data_job_02296
_audit_creation_date              2018-12-19
_audit_creation_method            'Materials Studio'
_symmetry_space_group_name_H-M    'P1'
_symmetry_Int_Tables_number       1
_symmetry_cell_setting            triclinic
loop_
_symmetry_equiv_pos_as_xyz
  x,y,z
_cell_length_a                    22.9272
_cell_length_b                    22.9272
_cell_length_c                    21.0558
_cell_angle_alpha                 90.0000
_cell_angle_beta                  90.0000
_cell_angle_gamma                 90.0000
loop_
_atom_site_label
_atom_site_type_symbol
_atom_site_fract_x
_atom_site_fract_y
_atom_site_fract_z
_atom_site_U_iso_or_equiv
_atom_site_adp_type
_atom_site_occupancy
C1     C     0.42205   0.10017   0.11296   0.00000  Uiso   1.00
C2     C     0.39093   0.15138   0.14438   0.00000  Uiso   1.00
C3     C     0.41568   0.19015   0.18723   0.00000  Uiso   1.00
C4     C     0.37994   0.23406   0.21062   0.00000  Uiso   1.00
C5     C     0.34049   0.31282   0.26230   0.00000  Uiso   1.00
C6     C     0.38621   0.04615   0.12916   0.00000  Uiso   1.00
C7     C     0.40698   0.99644   0.15921   0.00000  Uiso   1.00
C8     C     0.36726   0.95176   0.16977   0.00000  Uiso   1.00
C9     C     0.32050   0.86713   0.19778   0.00000  Uiso   1.00
C10    C     0.41535   0.10917   0.04158   0.00000  Uiso   1.00
C11    C     0.46063   0.11243   0.99797   0.00000  Uiso   1.00
C12    C     0.44544   0.12080   0.93479   0.00000  Uiso   1.00
C13    C     0.44393   0.13402   0.82681   0.00000  Uiso   1.00
C14    C     0.31457   0.10922   0.07828   0.00000  Uiso   1.00
C15    C     0.33256   0.15630   0.12555   0.00000  Uiso   1.00
C16    C     0.29677   0.20017   0.14887   0.00000  Uiso   1.00
C17    C     0.32146   0.23899   0.19175   0.00000  Uiso   1.00
C18    C     0.32783   0.05106   0.11033   0.00000  Uiso   1.00
C19    C     0.28808   0.00645   0.12085   0.00000  Uiso   1.00
C20    C     0.30878   0.95669   0.15090   0.00000  Uiso   1.00
C21    C     0.35698   0.11409   0.02274   0.00000  Uiso   1.00
C22    C     0.34172   0.12245   0.95961   0.00000  Uiso   1.00
C23    C     0.38696   0.12573   0.91592   0.00000  Uiso   1.00
H24    H     0.46749   0.09633   0.12762   0.00000  Uiso   1.00
H25    H     0.46085   0.18633   0.20180   0.00000  Uiso   1.00
H26    H     0.45216   0.99264   0.17377   0.00000  Uiso   1.00
H27    H     0.50580   0.10862   0.01256   0.00000  Uiso   1.00
H28    H     0.42774   0.28825   0.27575   0.00000  Uiso   1.00
H29    H     0.40942   0.87985   0.21663   0.00000  Uiso   1.00
H30    H     0.52252   0.12442   0.87670   0.00000  Uiso   1.00
H31    H     0.26912   0.11305   0.06362   0.00000  Uiso   1.00
H32    H     0.25160   0.20396   0.13429   0.00000  Uiso   1.00
H33    H     0.24291   0.01027   0.10626   0.00000  Uiso   1.00
H34    H     0.29654   0.12625   0.94506   0.00000  Uiso   1.00
H35    H     0.25790   0.30256   0.22096   0.00000  Uiso   1.00
H36    H     0.23958   0.89416   0.16184   0.00000  Uiso   1.00
H37    H     0.35268   0.13873   0.82190   0.00000  Uiso   1.00
O38    O     0.33486   0.35490   0.29602   0.00000  Uiso   1.00
O39    O     0.31083   0.81909   0.21844   0.00000  Uiso   1.00
O40    O     0.45921   0.13995   0.77246   0.00000  Uiso   1.00
N41    N     0.39018   0.27915   0.25315   0.00000  Uiso   1.00
N42    N     0.37304   0.89732   0.19789   0.00000  Uiso   1.00
N43    N     0.47878   0.12596   0.88007   0.00000  Uiso   1.00
N44    N     0.29879   0.28685   0.22367   0.00000  Uiso   1.00
N45    N     0.28165   0.90503   0.16840   0.00000  Uiso   1.00
N46    N     0.38739   0.13366   0.85059   0.00000  Uiso   1.00
C47    C     0.92205   0.60017   0.61296   0.00000  Uiso   1.00
C48    C     0.89093   0.65138   0.64438   0.00000  Uiso   1.00
C49    C     0.91568   0.69015   0.68723   0.00000  Uiso   1.00
C50    C     0.87994   0.73406   0.71062   0.00000  Uiso   1.00
C51    C     0.84049   0.81282   0.76230   0.00000  Uiso   1.00
C52    C     0.88621   0.54615   0.62916   0.00000  Uiso   1.00
C53    C     0.90698   0.49644   0.65921   0.00000  Uiso   1.00
C54    C     0.86726   0.45176   0.66977   0.00000  Uiso   1.00
C55    C     0.82050   0.36713   0.69778   0.00000  Uiso   1.00
C56    C     0.91535   0.60917   0.54158   0.00000  Uiso   1.00
C57    C     0.96063   0.61243   0.49797   0.00000  Uiso   1.00
C58    C     0.94544   0.62080   0.43479   0.00000  Uiso   1.00
C59    C     0.94393   0.63402   0.32681   0.00000  Uiso   1.00
C60    C     0.81457   0.60922   0.57828   0.00000  Uiso   1.00
C61    C     0.83256   0.65630   0.62555   0.00000  Uiso   1.00
C62    C     0.79677   0.70017   0.64887   0.00000  Uiso   1.00
C63    C     0.82146   0.73899   0.69175   0.00000  Uiso   1.00
C64    C     0.82783   0.55106   0.61033   0.00000  Uiso   1.00
C65    C     0.78808   0.50645   0.62085   0.00000  Uiso   1.00
C66    C     0.80878   0.45669   0.65090   0.00000  Uiso   1.00
C67    C     0.85698   0.61409   0.52274   0.00000  Uiso   1.00
C68    C     0.84172   0.62245   0.45961   0.00000  Uiso   1.00
C69    C     0.88696   0.62573   0.41592   0.00000  Uiso   1.00
H70    H     0.96749   0.59633   0.62762   0.00000  Uiso   1.00
H71    H     0.96085   0.68633   0.70180   0.00000  Uiso   1.00
H72    H     0.95216   0.49264   0.67377   0.00000  Uiso   1.00
H73    H     0.00580   0.60862   0.51256   0.00000  Uiso   1.00
H74    H     0.92774   0.78825   0.77575   0.00000  Uiso   1.00
H75    H     0.90942   0.37985   0.71663   0.00000  Uiso   1.00
H76    H     0.02252   0.62442   0.37670   0.00000  Uiso   1.00
H77    H     0.76912   0.61305   0.56362   0.00000  Uiso   1.00
H78    H     0.75160   0.70396   0.63429   0.00000  Uiso   1.00
H79    H     0.74291   0.51027   0.60626   0.00000  Uiso   1.00
H80    H     0.79654   0.62625   0.44506   0.00000  Uiso   1.00
H81    H     0.75790   0.80256   0.72096   0.00000  Uiso   1.00
H82    H     0.73958   0.39416   0.66184   0.00000  Uiso   1.00
H83    H     0.85268   0.63873   0.32190   0.00000  Uiso   1.00
O84    O     0.83486   0.85490   0.79602   0.00000  Uiso   1.00
O85    O     0.81083   0.31909   0.71844   0.00000  Uiso   1.00
O86    O     0.95921   0.63995   0.27246   0.00000  Uiso   1.00
N87    N     0.89018   0.77915   0.75315   0.00000  Uiso   1.00
N88    N     0.87304   0.39732   0.69789   0.00000  Uiso   1.00
N89    N     0.97878   0.62596   0.38007   0.00000  Uiso   1.00
N90    N     0.79879   0.78685   0.72367   0.00000  Uiso   1.00
N91    N     0.78165   0.40503   0.66840   0.00000  Uiso   1.00
N92    N     0.88739   0.63366   0.35059   0.00000  Uiso   1.00
C93    C     0.07795   0.39983   0.61296   0.00000  Uiso   1.00
C94    C     0.10907   0.34862   0.64438   0.00000  Uiso   1.00
C95    C     0.08432   0.30985   0.68723   0.00000  Uiso   1.00
C96    C     0.12006   0.26594   0.71062   0.00000  Uiso   1.00
C97    C     0.15951   0.18718   0.76230   0.00000  Uiso   1.00
C98    C     0.11379   0.45385   0.62916   0.00000  Uiso   1.00
C99    C     0.09302   0.50356   0.65921   0.00000  Uiso   1.00
C100   C     0.13274   0.54824   0.66977   0.00000  Uiso   1.00
C101   C     0.17950   0.63287   0.69778   0.00000  Uiso   1.00
C102   C     0.08465   0.39083   0.54158   0.00000  Uiso   1.00
C103   C     0.03937   0.38757   0.49797   0.00000  Uiso   1.00
C104   C     0.05456   0.37920   0.43479   0.00000  Uiso   1.00
C105   C     0.05607   0.36598   0.32681   0.00000  Uiso   1.00
C106   C     0.18543   0.39078   0.57828   0.00000  Uiso   1.00
C107   C     0.16744   0.34370   0.62555   0.00000  Uiso   1.00
C108   C     0.20323   0.29983   0.64887   0.00000  Uiso   1.00
C109   C     0.17854   0.26101   0.69175   0.00000  Uiso   1.00
C110   C     0.17217   0.44894   0.61033   0.00000  Uiso   1.00
C111   C     0.21192   0.49355   0.62085   0.00000  Uiso   1.00
C112   C     0.19122   0.54331   0.65090   0.00000  Uiso   1.00
C113   C     0.14302   0.38591   0.52274   0.00000  Uiso   1.00
C114   C     0.15828   0.37755   0.45961   0.00000  Uiso   1.00
C115   C     0.11304   0.37427   0.41592   0.00000  Uiso   1.00
H116   H     0.03251   0.40367   0.62762   0.00000  Uiso   1.00
H117   H     0.03915   0.31367   0.70180   0.00000  Uiso   1.00
H118   H     0.04784   0.50736   0.67377   0.00000  Uiso   1.00
H119   H     0.99420   0.39138   0.51256   0.00000  Uiso   1.00
H120   H     0.07226   0.21175   0.77575   0.00000  Uiso   1.00
H121   H     0.09058   0.62015   0.71663   0.00000  Uiso   1.00
H122   H     0.97748   0.37558   0.37670   0.00000  Uiso   1.00
H123   H     0.23088   0.38695   0.56362   0.00000  Uiso   1.00
H124   H     0.24840   0.29604   0.63429   0.00000  Uiso   1.00
H125   H     0.25709   0.48973   0.60626   0.00000  Uiso   1.00
H126   H     0.20346   0.37375   0.44506   0.00000  Uiso   1.00
H127   H     0.24210   0.19744   0.72096   0.00000  Uiso   1.00
H128   H     0.26042   0.60584   0.66184   0.00000  Uiso   1.00
H129   H     0.14732   0.36127   0.32190   0.00000  Uiso   1.00
O130   O     0.16514   0.14510   0.79602   0.00000  Uiso   1.00
O131   O     0.18917   0.68091   0.71844   0.00000  Uiso   1.00
O132   O     0.04079   0.36005   0.27246   0.00000  Uiso   1.00
N133   N     0.10982   0.22085   0.75315   0.00000  Uiso   1.00
N134   N     0.12696   0.60268   0.69789   0.00000  Uiso   1.00
N135   N     0.02122   0.37404   0.38007   0.00000  Uiso   1.00
N136   N     0.20121   0.21315   0.72367   0.00000  Uiso   1.00
N137   N     0.21835   0.59497   0.66840   0.00000  Uiso   1.00
N138   N     0.11261   0.36634   0.35059   0.00000  Uiso   1.00
C139   C     0.57795   0.89983   0.11296   0.00000  Uiso   1.00
C140   C     0.60907   0.84862   0.14438   0.00000  Uiso   1.00
C141   C     0.58432   0.80985   0.18723   0.00000  Uiso   1.00
C142   C     0.62006   0.76594   0.21062   0.00000  Uiso   1.00
C143   C     0.65951   0.68718   0.26230   0.00000  Uiso   1.00
C144   C     0.61379   0.95385   0.12916   0.00000  Uiso   1.00
C145   C     0.59302   0.00356   0.15921   0.00000  Uiso   1.00
C146   C     0.63274   0.04824   0.16977   0.00000  Uiso   1.00
C147   C     0.67950   0.13287   0.19778   0.00000  Uiso   1.00
C148   C     0.58465   0.89083   0.04158   0.00000  Uiso   1.00
C149   C     0.53937   0.88757   0.99797   0.00000  Uiso   1.00
C150   C     0.55456   0.87920   0.93479   0.00000  Uiso   1.00
C151   C     0.55607   0.86598   0.82681   0.00000  Uiso   1.00
C152   C     0.68543   0.89078   0.07828   0.00000  Uiso   1.00
C153   C     0.66744   0.84370   0.12555   0.00000  Uiso   1.00
C154   C     0.70323   0.79983   0.14887   0.00000  Uiso   1.00
C155   C     0.67854   0.76101   0.19175   0.00000  Uiso   1.00
C156   C     0.67217   0.94894   0.11033   0.00000  Uiso   1.00
C157   C     0.71192   0.99355   0.12085   0.00000  Uiso   1.00
C158   C     0.69122   0.04331   0.15090   0.00000  Uiso   1.00
C159   C     0.64302   0.88591   0.02274   0.00000  Uiso   1.00
C160   C     0.65828   0.87755   0.95961   0.00000  Uiso   1.00
C161   C     0.61304   0.87427   0.91592   0.00000  Uiso   1.00
H162   H     0.53251   0.90367   0.12762   0.00000  Uiso   1.00
H163   H     0.53915   0.81367   0.20180   0.00000  Uiso   1.00
H164   H     0.54784   0.00736   0.17377   0.00000  Uiso   1.00
H165   H     0.49420   0.89138   0.01256   0.00000  Uiso   1.00
H166   H     0.57226   0.71175   0.27575   0.00000  Uiso   1.00
H167   H     0.59058   0.12015   0.21663   0.00000  Uiso   1.00
H168   H     0.47748   0.87558   0.87670   0.00000  Uiso   1.00
H169   H     0.73088   0.88695   0.06362   0.00000  Uiso   1.00
H170   H     0.74840   0.79604   0.13429   0.00000  Uiso   1.00
H171   H     0.75709   0.98973   0.10626   0.00000  Uiso   1.00
H172   H     0.70346   0.87375   0.94506   0.00000  Uiso   1.00
H173   H     0.74210   0.69744   0.22096   0.00000  Uiso   1.00
H174   H     0.76042   0.10584   0.16184   0.00000  Uiso   1.00
H175   H     0.64732   0.86127   0.82190   0.00000  Uiso   1.00
O176   O     0.66514   0.64510   0.29602   0.00000  Uiso   1.00
O177   O     0.68917   0.18091   0.21844   0.00000  Uiso   1.00
O178   O     0.54079   0.86005   0.77246   0.00000  Uiso   1.00
N179   N     0.60982   0.72085   0.25315   0.00000  Uiso   1.00
N180   N     0.62696   0.10268   0.19789   0.00000  Uiso   1.00
N181   N     0.52122   0.87404   0.88007   0.00000  Uiso   1.00
N182   N     0.70121   0.71315   0.22367   0.00000  Uiso   1.00
N183   N     0.71835   0.09497   0.16840   0.00000  Uiso   1.00
N184   N     0.61261   0.86634   0.85059   0.00000  Uiso   1.00
C185   C     0.89983   0.92205   0.36296   0.00000  Uiso   1.00
C186   C     0.84862   0.89093   0.39438   0.00000  Uiso   1.00
C187   C     0.80985   0.91568   0.43723   0.00000  Uiso   1.00
C188   C     0.76594   0.87994   0.46062   0.00000  Uiso   1.00
C189   C     0.68718   0.84049   0.51230   0.00000  Uiso   1.00
C190   C     0.95385   0.88621   0.37916   0.00000  Uiso   1.00
C191   C     0.00356   0.90698   0.40921   0.00000  Uiso   1.00
C192   C     0.04824   0.86726   0.41977   0.00000  Uiso   1.00
C193   C     0.13287   0.82050   0.44778   0.00000  Uiso   1.00
C194   C     0.89083   0.91535   0.29158   0.00000  Uiso   1.00
C195   C     0.88757   0.96063   0.24797   0.00000  Uiso   1.00
C196   C     0.87920   0.94544   0.18479   0.00000  Uiso   1.00
C197   C     0.86598   0.94393   0.07681   0.00000  Uiso   1.00
C198   C     0.89078   0.81457   0.32828   0.00000  Uiso   1.00
C199   C     0.84370   0.83256   0.37555   0.00000  Uiso   1.00
C200   C     0.79983   0.79677   0.39887   0.00000  Uiso   1.00
C201   C     0.76101   0.82146   0.44175   0.00000  Uiso   1.00
C202   C     0.94894   0.82783   0.36033   0.00000  Uiso   1.00
C203   C     0.99355   0.78808   0.37085   0.00000  Uiso   1.00
C204   C     0.04331   0.80878   0.40090   0.00000  Uiso   1.00
C205   C     0.88591   0.85698   0.27274   0.00000  Uiso   1.00
C206   C     0.87755   0.84172   0.20961   0.00000  Uiso   1.00
C207   C     0.87427   0.88696   0.16592   0.00000  Uiso   1.00
H208   H     0.90367   0.96749   0.37762   0.00000  Uiso   1.00
H209   H     0.81367   0.96085   0.45180   0.00000  Uiso   1.00
H210   H     0.00736   0.95216   0.42377   0.00000  Uiso   1.00
H211   H     0.89138   0.00580   0.26256   0.00000  Uiso   1.00
H212   H     0.71175   0.92774   0.52575   0.00000  Uiso   1.00
H213   H     0.12015   0.90942   0.46663   0.00000  Uiso   1.00
H214   H     0.87558   0.02252   0.12670   0.00000  Uiso   1.00
H215   H     0.88695   0.76912   0.31362   0.00000  Uiso   1.00
H216   H     0.79604   0.75160   0.38429   0.00000  Uiso   1.00
H217   H     0.98973   0.74291   0.35626   0.00000  Uiso   1.00
H218   H     0.87375   0.79654   0.19506   0.00000  Uiso   1.00
H219   H     0.69744   0.75790   0.47096   0.00000  Uiso   1.00
H220   H     0.10584   0.73958   0.41184   0.00000  Uiso   1.00
H221   H     0.86127   0.85268   0.07190   0.00000  Uiso   1.00
O222   O     0.64510   0.83486   0.54602   0.00000  Uiso   1.00
O223   O     0.18091   0.81083   0.46844   0.00000  Uiso   1.00
O224   O     0.86005   0.95921   0.02246   0.00000  Uiso   1.00
N225   N     0.72085   0.89018   0.50315   0.00000  Uiso   1.00
N226   N     0.10268   0.87304   0.44789   0.00000  Uiso   1.00
N227   N     0.87404   0.97878   0.13007   0.00000  Uiso   1.00
N228   N     0.71315   0.79879   0.47367   0.00000  Uiso   1.00
N229   N     0.09497   0.78165   0.41840   0.00000  Uiso   1.00
N230   N     0.86634   0.88739   0.10059   0.00000  Uiso   1.00
C231   C     0.39983   0.42205   0.86296   0.00000  Uiso   1.00
C232   C     0.34862   0.39093   0.89438   0.00000  Uiso   1.00
C233   C     0.30985   0.41568   0.93723   0.00000  Uiso   1.00
C234   C     0.26594   0.37994   0.96062   0.00000  Uiso   1.00
C235   C     0.18718   0.34049   0.01230   0.00000  Uiso   1.00
C236   C     0.45385   0.38621   0.87916   0.00000  Uiso   1.00
C237   C     0.50356   0.40698   0.90921   0.00000  Uiso   1.00
C238   C     0.54824   0.36726   0.91977   0.00000  Uiso   1.00
C239   C     0.63287   0.32050   0.94778   0.00000  Uiso   1.00
C240   C     0.39083   0.41535   0.79158   0.00000  Uiso   1.00
C241   C     0.38757   0.46063   0.74797   0.00000  Uiso   1.00
C242   C     0.37920   0.44544   0.68479   0.00000  Uiso   1.00
C243   C     0.36598   0.44393   0.57681   0.00000  Uiso   1.00
C244   C     0.39078   0.31457   0.82828   0.00000  Uiso   1.00
C245   C     0.34370   0.33256   0.87555   0.00000  Uiso   1.00
C246   C     0.29983   0.29677   0.89887   0.00000  Uiso   1.00
C247   C     0.26101   0.32146   0.94175   0.00000  Uiso   1.00
C248   C     0.44894   0.32783   0.86033   0.00000  Uiso   1.00
C249   C     0.49355   0.28808   0.87085   0.00000  Uiso   1.00
C250   C     0.54331   0.30878   0.90090   0.00000  Uiso   1.00
C251   C     0.38591   0.35698   0.77274   0.00000  Uiso   1.00
C252   C     0.37755   0.34172   0.70961   0.00000  Uiso   1.00
C253   C     0.37427   0.38696   0.66592   0.00000  Uiso   1.00
H254   H     0.40367   0.46749   0.87762   0.00000  Uiso   1.00
H255   H     0.31367   0.46085   0.95180   0.00000  Uiso   1.00
H256   H     0.50736   0.45216   0.92377   0.00000  Uiso   1.00
H257   H     0.39138   0.50580   0.76256   0.00000  Uiso   1.00
H258   H     0.21175   0.42774   0.02575   0.00000  Uiso   1.00
H259   H     0.62015   0.40942   0.96663   0.00000  Uiso   1.00
H260   H     0.37558   0.52252   0.62670   0.00000  Uiso   1.00
H261   H     0.38695   0.26912   0.81362   0.00000  Uiso   1.00
H262   H     0.29604   0.25160   0.88429   0.00000  Uiso   1.00
H263   H     0.48973   0.24291   0.85626   0.00000  Uiso   1.00
H264   H     0.37375   0.29654   0.69506   0.00000  Uiso   1.00
H265   H     0.19744   0.25790   0.97096   0.00000  Uiso   1.00
H266   H     0.60584   0.23958   0.91184   0.00000  Uiso   1.00
H267   H     0.36127   0.35268   0.57190   0.00000  Uiso   1.00
O268   O     0.14510   0.33486   0.04602   0.00000  Uiso   1.00
O269   O     0.68091   0.31083   0.96844   0.00000  Uiso   1.00
O270   O     0.36005   0.45921   0.52246   0.00000  Uiso   1.00
N271   N     0.22085   0.39018   0.00315   0.00000  Uiso   1.00
N272   N     0.60268   0.37304   0.94789   0.00000  Uiso   1.00
N273   N     0.37404   0.47878   0.63007   0.00000  Uiso   1.00
N274   N     0.21315   0.29879   0.97367   0.00000  Uiso   1.00
N275   N     0.59497   0.28165   0.91840   0.00000  Uiso   1.00
N276   N     0.36634   0.38739   0.60059   0.00000  Uiso   1.00
C277   C     0.60017   0.57795   0.86296   0.00000  Uiso   1.00
C278   C     0.65138   0.60907   0.89438   0.00000  Uiso   1.00
C279   C     0.69015   0.58432   0.93723   0.00000  Uiso   1.00
C280   C     0.73406   0.62006   0.96062   0.00000  Uiso   1.00
C281   C     0.81282   0.65951   0.01230   0.00000  Uiso   1.00
C282   C     0.54615   0.61379   0.87916   0.00000  Uiso   1.00
C283   C     0.49644   0.59302   0.90921   0.00000  Uiso   1.00
C284   C     0.45176   0.63274   0.91977   0.00000  Uiso   1.00
C285   C     0.36713   0.67950   0.94778   0.00000  Uiso   1.00
C286   C     0.60917   0.58465   0.79158   0.00000  Uiso   1.00
C287   C     0.61243   0.53937   0.74797   0.00000  Uiso   1.00
C288   C     0.62080   0.55456   0.68479   0.00000  Uiso   1.00
C289   C     0.63402   0.55607   0.57681   0.00000  Uiso   1.00
C290   C     0.60922   0.68543   0.82828   0.00000  Uiso   1.00
C291   C     0.65630   0.66744   0.87555   0.00000  Uiso   1.00
C292   C     0.70017   0.70323   0.89887   0.00000  Uiso   1.00
C293   C     0.73899   0.67854   0.94175   0.00000  Uiso   1.00
C294   C     0.55106   0.67217   0.86033   0.00000  Uiso   1.00
C295   C     0.50645   0.71192   0.87085   0.00000  Uiso   1.00
C296   C     0.45669   0.69122   0.90090   0.00000  Uiso   1.00
C297   C     0.61409   0.64302   0.77274   0.00000  Uiso   1.00
C298   C     0.62245   0.65828   0.70961   0.00000  Uiso   1.00
C299   C     0.62573   0.61304   0.66592   0.00000  Uiso   1.00
H300   H     0.59633   0.53251   0.87762   0.00000  Uiso   1.00
H301   H     0.68633   0.53915   0.95180   0.00000  Uiso   1.00
H302   H     0.49264   0.54784   0.92377   0.00000  Uiso   1.00
H303   H     0.60862   0.49420   0.76256   0.00000  Uiso   1.00
H304   H     0.78825   0.57226   0.02575   0.00000  Uiso   1.00
H305   H     0.37985   0.59058   0.96663   0.00000  Uiso   1.00
H306   H     0.62442   0.47748   0.62670   0.00000  Uiso   1.00
H307   H     0.61305   0.73088   0.81362   0.00000  Uiso   1.00
H308   H     0.70396   0.74840   0.88429   0.00000  Uiso   1.00
H309   H     0.51027   0.75709   0.85626   0.00000  Uiso   1.00
H310   H     0.62625   0.70346   0.69506   0.00000  Uiso   1.00
H311   H     0.80256   0.74210   0.97096   0.00000  Uiso   1.00
H312   H     0.39416   0.76042   0.91184   0.00000  Uiso   1.00
H313   H     0.63873   0.64732   0.57190   0.00000  Uiso   1.00
O314   O     0.85490   0.66514   0.04602   0.00000  Uiso   1.00
O315   O     0.31909   0.68917   0.96844   0.00000  Uiso   1.00
O316   O     0.63995   0.54079   0.52246   0.00000  Uiso   1.00
N317   N     0.77915   0.60982   0.00315   0.00000  Uiso   1.00
N318   N     0.39732   0.62696   0.94789   0.00000  Uiso   1.00
N319   N     0.62596   0.52122   0.63007   0.00000  Uiso   1.00
N320   N     0.78685   0.70121   0.97367   0.00000  Uiso   1.00
N321   N     0.40503   0.71835   0.91840   0.00000  Uiso   1.00
N322   N     0.63366   0.61261   0.60059   0.00000  Uiso   1.00
C323   C     0.10017   0.07795   0.36296   0.00000  Uiso   1.00
C324   C     0.15138   0.10907   0.39438   0.00000  Uiso   1.00
C325   C     0.19015   0.08432   0.43723   0.00000  Uiso   1.00
C326   C     0.23406   0.12006   0.46062   0.00000  Uiso   1.00
C327   C     0.31282   0.15951   0.51230   0.00000  Uiso   1.00
C328   C     0.04615   0.11379   0.37916   0.00000  Uiso   1.00
C329   C     0.99644   0.09302   0.40921   0.00000  Uiso   1.00
C330   C     0.95176   0.13274   0.41977   0.00000  Uiso   1.00
C331   C     0.86713   0.17950   0.44778   0.00000  Uiso   1.00
C332   C     0.10917   0.08465   0.29158   0.00000  Uiso   1.00
C333   C     0.11243   0.03937   0.24797   0.00000  Uiso   1.00
C334   C     0.12080   0.05456   0.18479   0.00000  Uiso   1.00
C335   C     0.13402   0.05607   0.07681   0.00000  Uiso   1.00
C336   C     0.10922   0.18543   0.32828   0.00000  Uiso   1.00
C337   C     0.15630   0.16744   0.37555   0.00000  Uiso   1.00
C338   C     0.20017   0.20323   0.39887   0.00000  Uiso   1.00
C339   C     0.23899   0.17854   0.44175   0.00000  Uiso   1.00
C340   C     0.05106   0.17217   0.36033   0.00000  Uiso   1.00
C341   C     0.00645   0.21192   0.37085   0.00000  Uiso   1.00
C342   C     0.95669   0.19122   0.40090   0.00000  Uiso   1.00
C343   C     0.11409   0.14302   0.27274   0.00000  Uiso   1.00
C344   C     0.12245   0.15828   0.20961   0.00000  Uiso   1.00
C345   C     0.12573   0.11304   0.16592   0.00000  Uiso   1.00
H346   H     0.09633   0.03251   0.37762   0.00000  Uiso   1.00
H347   H     0.18633   0.03915   0.45180   0.00000  Uiso   1.00
H348   H     0.99264   0.04784   0.42377   0.00000  Uiso   1.00
H349   H     0.10862   0.99420   0.26256   0.00000  Uiso   1.00
H350   H     0.28825   0.07226   0.52575   0.00000  Uiso   1.00
H351   H     0.87985   0.09058   0.46663   0.00000  Uiso   1.00
H352   H     0.12442   0.97748   0.12670   0.00000  Uiso   1.00
H353   H     0.11305   0.23088   0.31362   0.00000  Uiso   1.00
H354   H     0.20396   0.24840   0.38429   0.00000  Uiso   1.00
H355   H     0.01027   0.25709   0.35626   0.00000  Uiso   1.00
H356   H     0.12625   0.20346   0.19506   0.00000  Uiso   1.00
H357   H     0.30256   0.24210   0.47096   0.00000  Uiso   1.00
H358   H     0.89416   0.26042   0.41184   0.00000  Uiso   1.00
H359   H     0.13873   0.14732   0.07190   0.00000  Uiso   1.00
O360   O     0.35490   0.16514   0.54602   0.00000  Uiso   1.00
O361   O     0.81909   0.18917   0.46844   0.00000  Uiso   1.00
O362   O     0.13995   0.04079   0.02246   0.00000  Uiso   1.00
N363   N     0.27915   0.10982   0.50315   0.00000  Uiso   1.00
N364   N     0.89732   0.12696   0.44789   0.00000  Uiso   1.00
N365   N     0.12596   0.02122   0.13007   0.00000  Uiso   1.00
N366   N     0.28685   0.20121   0.47367   0.00000  Uiso   1.00
N367   N     0.90503   0.21835   0.41840   0.00000  Uiso   1.00
N368   N     0.13366   0.11261   0.10059   0.00000  Uiso   1.00
C369   C     0.42205   0.89983   0.61296   0.00000  Uiso   1.00
C370   C     0.39093   0.84862   0.64438   0.00000  Uiso   1.00
C371   C     0.41568   0.80985   0.68723   0.00000  Uiso   1.00
C372   C     0.37994   0.76594   0.71062   0.00000  Uiso   1.00
C373   C     0.34049   0.68718   0.76230   0.00000  Uiso   1.00
C374   C     0.38621   0.95385   0.62916   0.00000  Uiso   1.00
C375   C     0.40698   0.00356   0.65921   0.00000  Uiso   1.00
C376   C     0.36726   0.04824   0.66977   0.00000  Uiso   1.00
C377   C     0.32050   0.13287   0.69778   0.00000  Uiso   1.00
C378   C     0.41535   0.89083   0.54158   0.00000  Uiso   1.00
C379   C     0.46063   0.88757   0.49797   0.00000  Uiso   1.00
C380   C     0.44544   0.87920   0.43479   0.00000  Uiso   1.00
C381   C     0.44393   0.86598   0.32681   0.00000  Uiso   1.00
C382   C     0.31457   0.89078   0.57828   0.00000  Uiso   1.00
C383   C     0.33256   0.84370   0.62555   0.00000  Uiso   1.00
C384   C     0.29677   0.79983   0.64887   0.00000  Uiso   1.00
C385   C     0.32146   0.76101   0.69175   0.00000  Uiso   1.00
C386   C     0.32783   0.94894   0.61033   0.00000  Uiso   1.00
C387   C     0.28808   0.99355   0.62085   0.00000  Uiso   1.00
C388   C     0.30878   0.04331   0.65090   0.00000  Uiso   1.00
C389   C     0.35698   0.88591   0.52274   0.00000  Uiso   1.00
C390   C     0.34172   0.87755   0.45961   0.00000  Uiso   1.00
C391   C     0.38696   0.87427   0.41592   0.00000  Uiso   1.00
H392   H     0.46749   0.90367   0.62762   0.00000  Uiso   1.00
H393   H     0.46085   0.81367   0.70180   0.00000  Uiso   1.00
H394   H     0.45216   0.00736   0.67377   0.00000  Uiso   1.00
H395   H     0.50580   0.89138   0.51256   0.00000  Uiso   1.00
H396   H     0.42774   0.71175   0.77575   0.00000  Uiso   1.00
H397   H     0.40942   0.12015   0.71663   0.00000  Uiso   1.00
H398   H     0.52252   0.87558   0.37670   0.00000  Uiso   1.00
H399   H     0.26912   0.88695   0.56362   0.00000  Uiso   1.00
H400   H     0.25160   0.79604   0.63429   0.00000  Uiso   1.00
H401   H     0.24291   0.98973   0.60626   0.00000  Uiso   1.00
H402   H     0.29654   0.87375   0.44506   0.00000  Uiso   1.00
H403   H     0.25790   0.69744   0.72096   0.00000  Uiso   1.00
H404   H     0.23958   0.10584   0.66184   0.00000  Uiso   1.00
H405   H     0.35268   0.86127   0.32190   0.00000  Uiso   1.00
O406   O     0.33486   0.64510   0.79602   0.00000  Uiso   1.00
O407   O     0.31083   0.18091   0.71844   0.00000  Uiso   1.00
O408   O     0.45921   0.86005   0.27246   0.00000  Uiso   1.00
N409   N     0.39018   0.72085   0.75315   0.00000  Uiso   1.00
N410   N     0.37304   0.10268   0.69789   0.00000  Uiso   1.00
N411   N     0.47878   0.87404   0.38007   0.00000  Uiso   1.00
N412   N     0.29879   0.71315   0.72367   0.00000  Uiso   1.00
N413   N     0.28165   0.09497   0.66840   0.00000  Uiso   1.00
N414   N     0.38739   0.86634   0.35059   0.00000  Uiso   1.00
C415   C     0.92205   0.39983   0.11296   0.00000  Uiso   1.00
C416   C     0.89093   0.34862   0.14438   0.00000  Uiso   1.00
C417   C     0.91568   0.30985   0.18723   0.00000  Uiso   1.00
C418   C     0.87994   0.26594   0.21062   0.00000  Uiso   1.00
C419   C     0.84049   0.18718   0.26230   0.00000  Uiso   1.00
C420   C     0.88621   0.45385   0.12916   0.00000  Uiso   1.00
C421   C     0.90698   0.50356   0.15921   0.00000  Uiso   1.00
C422   C     0.86726   0.54824   0.16977   0.00000  Uiso   1.00
C423   C     0.82050   0.63287   0.19778   0.00000  Uiso   1.00
C424   C     0.91535   0.39083   0.04158   0.00000  Uiso   1.00
C425   C     0.96063   0.38757   0.99797   0.00000  Uiso   1.00
C426   C     0.94544   0.37920   0.93479   0.00000  Uiso   1.00
C427   C     0.94393   0.36598   0.82681   0.00000  Uiso   1.00
C428   C     0.81457   0.39078   0.07828   0.00000  Uiso   1.00
C429   C     0.83256   0.34370   0.12555   0.00000  Uiso   1.00
C430   C     0.79677   0.29983   0.14887   0.00000  Uiso   1.00
C431   C     0.82146   0.26101   0.19175   0.00000  Uiso   1.00
C432   C     0.82783   0.44894   0.11033   0.00000  Uiso   1.00
C433   C     0.78808   0.49355   0.12085   0.00000  Uiso   1.00
C434   C     0.80878   0.54331   0.15090   0.00000  Uiso   1.00
C435   C     0.85698   0.38591   0.02274   0.00000  Uiso   1.00
C436   C     0.84172   0.37755   0.95961   0.00000  Uiso   1.00
C437   C     0.88696   0.37427   0.91592   0.00000  Uiso   1.00
H438   H     0.96749   0.40367   0.12762   0.00000  Uiso   1.00
H439   H     0.96085   0.31367   0.20180   0.00000  Uiso   1.00
H440   H     0.95216   0.50736   0.17377   0.00000  Uiso   1.00
H441   H     0.00580   0.39138   0.01256   0.00000  Uiso   1.00
H442   H     0.92774   0.21175   0.27575   0.00000  Uiso   1.00
H443   H     0.90942   0.62015   0.21663   0.00000  Uiso   1.00
H444   H     0.02252   0.37558   0.87670   0.00000  Uiso   1.00
H445   H     0.76912   0.38695   0.06362   0.00000  Uiso   1.00
H446   H     0.75160   0.29604   0.13429   0.00000  Uiso   1.00
H447   H     0.74291   0.48973   0.10626   0.00000  Uiso   1.00
H448   H     0.79654   0.37375   0.94506   0.00000  Uiso   1.00
H449   H     0.75790   0.19744   0.22096   0.00000  Uiso   1.00
H450   H     0.73958   0.60584   0.16184   0.00000  Uiso   1.00
H451   H     0.85268   0.36127   0.82190   0.00000  Uiso   1.00
O452   O     0.83486   0.14510   0.29602   0.00000  Uiso   1.00
O453   O     0.81083   0.68091   0.21844   0.00000  Uiso   1.00
O454   O     0.95921   0.36005   0.77246   0.00000  Uiso   1.00
N455   N     0.89018   0.22085   0.25315   0.00000  Uiso   1.00
N456   N     0.87304   0.60268   0.19789   0.00000  Uiso   1.00
N457   N     0.97878   0.37404   0.88007   0.00000  Uiso   1.00
N458   N     0.79879   0.21315   0.22367   0.00000  Uiso   1.00
N459   N     0.78165   0.59497   0.16840   0.00000  Uiso   1.00
N460   N     0.88739   0.36634   0.85059   0.00000  Uiso   1.00
C461   C     0.07795   0.60017   0.11296   0.00000  Uiso   1.00
C462   C     0.10907   0.65138   0.14438   0.00000  Uiso   1.00
C463   C     0.08432   0.69015   0.18723   0.00000  Uiso   1.00
C464   C     0.12006   0.73406   0.21062   0.00000  Uiso   1.00
C465   C     0.15951   0.81282   0.26230   0.00000  Uiso   1.00
C466   C     0.11379   0.54615   0.12916   0.00000  Uiso   1.00
C467   C     0.09302   0.49644   0.15921   0.00000  Uiso   1.00
C468   C     0.13274   0.45176   0.16977   0.00000  Uiso   1.00
C469   C     0.17950   0.36713   0.19778   0.00000  Uiso   1.00
C470   C     0.08465   0.60917   0.04158   0.00000  Uiso   1.00
C471   C     0.03937   0.61243   0.99797   0.00000  Uiso   1.00
C472   C     0.05456   0.62080   0.93479   0.00000  Uiso   1.00
C473   C     0.05607   0.63402   0.82681   0.00000  Uiso   1.00
C474   C     0.18543   0.60922   0.07828   0.00000  Uiso   1.00
C475   C     0.16744   0.65630   0.12555   0.00000  Uiso   1.00
C476   C     0.20323   0.70017   0.14887   0.00000  Uiso   1.00
C477   C     0.17854   0.73899   0.19175   0.00000  Uiso   1.00
C478   C     0.17217   0.55106   0.11033   0.00000  Uiso   1.00
C479   C     0.21192   0.50645   0.12085   0.00000  Uiso   1.00
C480   C     0.19122   0.45669   0.15090   0.00000  Uiso   1.00
C481   C     0.14302   0.61409   0.02274   0.00000  Uiso   1.00
C482   C     0.15828   0.62245   0.95961   0.00000  Uiso   1.00
C483   C     0.11304   0.62573   0.91592   0.00000  Uiso   1.00
H484   H     0.03251   0.59633   0.12762   0.00000  Uiso   1.00
H485   H     0.03915   0.68633   0.20180   0.00000  Uiso   1.00
H486   H     0.04784   0.49264   0.17377   0.00000  Uiso   1.00
H487   H     0.99420   0.60862   0.01256   0.00000  Uiso   1.00
H488   H     0.07226   0.78825   0.27575   0.00000  Uiso   1.00
H489   H     0.09058   0.37985   0.21663   0.00000  Uiso   1.00
H490   H     0.97748   0.62442   0.87670   0.00000  Uiso   1.00
H491   H     0.23088   0.61305   0.06362   0.00000  Uiso   1.00
H492   H     0.24840   0.70396   0.13429   0.00000  Uiso   1.00
H493   H     0.25709   0.51027   0.10626   0.00000  Uiso   1.00
H494   H     0.20346   0.62625   0.94506   0.00000  Uiso   1.00
H495   H     0.24210   0.80256   0.22096   0.00000  Uiso   1.00
H496   H     0.26042   0.39416   0.16184   0.00000  Uiso   1.00
H497   H     0.14732   0.63873   0.82190   0.00000  Uiso   1.00
O498   O     0.16514   0.85490   0.29602   0.00000  Uiso   1.00
O499   O     0.18917   0.31909   0.21844   0.00000  Uiso   1.00
O500   O     0.04079   0.63995   0.77246   0.00000  Uiso   1.00
N501   N     0.10982   0.77915   0.25315   0.00000  Uiso   1.00
N502   N     0.12696   0.39732   0.19789   0.00000  Uiso   1.00
N503   N     0.02122   0.62596   0.88007   0.00000  Uiso   1.00
N504   N     0.20121   0.78685   0.22367   0.00000  Uiso   1.00
N505   N     0.21835   0.40503   0.16840   0.00000  Uiso   1.00
N506   N     0.11261   0.63366   0.85059   0.00000  Uiso   1.00
C507   C     0.57795   0.10017   0.61296   0.00000  Uiso   1.00
C508   C     0.60907   0.15138   0.64438   0.00000  Uiso   1.00
C509   C     0.58432   0.19015   0.68723   0.00000  Uiso   1.00
C510   C     0.62006   0.23406   0.71062   0.00000  Uiso   1.00
C511   C     0.65951   0.31282   0.76230   0.00000  Uiso   1.00
C512   C     0.61379   0.04615   0.62916   0.00000  Uiso   1.00
C513   C     0.59302   0.99644   0.65921   0.00000  Uiso   1.00
C514   C     0.63274   0.95176   0.66977   0.00000  Uiso   1.00
C515   C     0.67950   0.86713   0.69778   0.00000  Uiso   1.00
C516   C     0.58465   0.10917   0.54158   0.00000  Uiso   1.00
C517   C     0.53937   0.11243   0.49797   0.00000  Uiso   1.00
C518   C     0.55456   0.12080   0.43479   0.00000  Uiso   1.00
C519   C     0.55607   0.13402   0.32681   0.00000  Uiso   1.00
C520   C     0.68543   0.10922   0.57828   0.00000  Uiso   1.00
C521   C     0.66744   0.15630   0.62555   0.00000  Uiso   1.00
C522   C     0.70323   0.20017   0.64887   0.00000  Uiso   1.00
C523   C     0.67854   0.23899   0.69175   0.00000  Uiso   1.00
C524   C     0.67217   0.05106   0.61033   0.00000  Uiso   1.00
C525   C     0.71192   0.00645   0.62085   0.00000  Uiso   1.00
C526   C     0.69122   0.95669   0.65090   0.00000  Uiso   1.00
C527   C     0.64302   0.11409   0.52274   0.00000  Uiso   1.00
C528   C     0.65828   0.12245   0.45961   0.00000  Uiso   1.00
C529   C     0.61304   0.12573   0.41592   0.00000  Uiso   1.00
H530   H     0.53251   0.09633   0.62762   0.00000  Uiso   1.00
H531   H     0.53915   0.18633   0.70180   0.00000  Uiso   1.00
H532   H     0.54784   0.99264   0.67377   0.00000  Uiso   1.00
H533   H     0.49420   0.10862   0.51256   0.00000  Uiso   1.00
H534   H     0.57226   0.28825   0.77575   0.00000  Uiso   1.00
H535   H     0.59058   0.87985   0.71663   0.00000  Uiso   1.00
H536   H     0.47748   0.12442   0.37670   0.00000  Uiso   1.00
H537   H     0.73088   0.11305   0.56362   0.00000  Uiso   1.00
H538   H     0.74840   0.20396   0.63429   0.00000  Uiso   1.00
H539   H     0.75709   0.01027   0.60626   0.00000  Uiso   1.00
H540   H     0.70346   0.12625   0.44506   0.00000  Uiso   1.00
H541   H     0.74210   0.30256   0.72096   0.00000  Uiso   1.00
H542   H     0.76042   0.89416   0.66184   0.00000  Uiso   1.00
H543   H     0.64732   0.13873   0.32190   0.00000  Uiso   1.00
O544   O     0.66514   0.35490   0.79602   0.00000  Uiso   1.00
O545   O     0.68917   0.81909   0.71844   0.00000  Uiso   1.00
O546   O     0.54079   0.13995   0.27246   0.00000  Uiso   1.00
N547   N     0.60982   0.27915   0.75315   0.00000  Uiso   1.00
N548   N     0.62696   0.89732   0.69789   0.00000  Uiso   1.00
N549   N     0.52122   0.12596   0.38007   0.00000  Uiso   1.00
N550   N     0.70121   0.28685   0.72367   0.00000  Uiso   1.00
N551   N     0.71835   0.90503   0.66840   0.00000  Uiso   1.00
N552   N     0.61261   0.13366   0.35059   0.00000  Uiso   1.00
C553   C     0.89983   0.07795   0.86296   0.00000  Uiso   1.00
C554   C     0.84862   0.10907   0.89438   0.00000  Uiso   1.00
C555   C     0.80985   0.08432   0.93723   0.00000  Uiso   1.00
C556   C     0.76594   0.12006   0.96062   0.00000  Uiso   1.00
C557   C     0.68718   0.15951   0.01230   0.00000  Uiso   1.00
C558   C     0.95385   0.11379   0.87916   0.00000  Uiso   1.00
C559   C     0.00356   0.09302   0.90921   0.00000  Uiso   1.00
C560   C     0.04824   0.13274   0.91977   0.00000  Uiso   1.00
C561   C     0.13287   0.17950   0.94778   0.00000  Uiso   1.00
C562   C     0.89083   0.08465   0.79158   0.00000  Uiso   1.00
C563   C     0.88757   0.03937   0.74797   0.00000  Uiso   1.00
C564   C     0.87920   0.05456   0.68479   0.00000  Uiso   1.00
C565   C     0.86598   0.05607   0.57681   0.00000  Uiso   1.00
C566   C     0.89078   0.18543   0.82828   0.00000  Uiso   1.00
C567   C     0.84370   0.16744   0.87555   0.00000  Uiso   1.00
C568   C     0.79983   0.20323   0.89887   0.00000  Uiso   1.00
C569   C     0.76101   0.17854   0.94175   0.00000  Uiso   1.00
C570   C     0.94894   0.17217   0.86033   0.00000  Uiso   1.00
C571   C     0.99355   0.21192   0.87085   0.00000  Uiso   1.00
C572   C     0.04331   0.19122   0.90090   0.00000  Uiso   1.00
C573   C     0.88591   0.14302   0.77274   0.00000  Uiso   1.00
C574   C     0.87755   0.15828   0.70961   0.00000  Uiso   1.00
C575   C     0.87427   0.11304   0.66592   0.00000  Uiso   1.00
H576   H     0.90367   0.03251   0.87762   0.00000  Uiso   1.00
H577   H     0.81367   0.03915   0.95180   0.00000  Uiso   1.00
H578   H     0.00736   0.04784   0.92377   0.00000  Uiso   1.00
H579   H     0.89138   0.99420   0.76256   0.00000  Uiso   1.00
H580   H     0.71175   0.07226   0.02575   0.00000  Uiso   1.00
H581   H     0.12015   0.09058   0.96663   0.00000  Uiso   1.00
H582   H     0.87558   0.97748   0.62670   0.00000  Uiso   1.00
H583   H     0.88695   0.23088   0.81362   0.00000  Uiso   1.00
H584   H     0.79604   0.24840   0.88429   0.00000  Uiso   1.00
H585   H     0.98973   0.25709   0.85626   0.00000  Uiso   1.00
H586   H     0.87375   0.20346   0.69506   0.00000  Uiso   1.00
H587   H     0.69744   0.24210   0.97096   0.00000  Uiso   1.00
H588   H     0.10584   0.26042   0.91184   0.00000  Uiso   1.00
H589   H     0.86127   0.14732   0.57190   0.00000  Uiso   1.00
O590   O     0.64510   0.16514   0.04602   0.00000  Uiso   1.00
O591   O     0.18091   0.18917   0.96844   0.00000  Uiso   1.00
O592   O     0.86005   0.04079   0.52246   0.00000  Uiso   1.00
N593   N     0.72085   0.10982   0.00315   0.00000  Uiso   1.00
N594   N     0.10268   0.12696   0.94789   0.00000  Uiso   1.00
N595   N     0.87404   0.02122   0.63007   0.00000  Uiso   1.00
N596   N     0.71315   0.20121   0.97367   0.00000  Uiso   1.00
N597   N     0.09497   0.21835   0.91840   0.00000  Uiso   1.00
N598   N     0.86634   0.11261   0.60059   0.00000  Uiso   1.00
C599   C     0.39983   0.57795   0.36296   0.00000  Uiso   1.00
C600   C     0.34862   0.60907   0.39438   0.00000  Uiso   1.00
C601   C     0.30985   0.58432   0.43723   0.00000  Uiso   1.00
C602   C     0.26594   0.62006   0.46062   0.00000  Uiso   1.00
C603   C     0.18718   0.65951   0.51230   0.00000  Uiso   1.00
C604   C     0.45385   0.61379   0.37916   0.00000  Uiso   1.00
C605   C     0.50356   0.59302   0.40921   0.00000  Uiso   1.00
C606   C     0.54824   0.63274   0.41977   0.00000  Uiso   1.00
C607   C     0.63287   0.67950   0.44778   0.00000  Uiso   1.00
C608   C     0.39083   0.58465   0.29158   0.00000  Uiso   1.00
C609   C     0.38757   0.53937   0.24797   0.00000  Uiso   1.00
C610   C     0.37920   0.55456   0.18479   0.00000  Uiso   1.00
C611   C     0.36598   0.55607   0.07681   0.00000  Uiso   1.00
C612   C     0.39078   0.68543   0.32828   0.00000  Uiso   1.00
C613   C     0.34370   0.66744   0.37555   0.00000  Uiso   1.00
C614   C     0.29983   0.70323   0.39887   0.00000  Uiso   1.00
C615   C     0.26101   0.67854   0.44175   0.00000  Uiso   1.00
C616   C     0.44894   0.67217   0.36033   0.00000  Uiso   1.00
C617   C     0.49355   0.71192   0.37085   0.00000  Uiso   1.00
C618   C     0.54331   0.69122   0.40090   0.00000  Uiso   1.00
C619   C     0.38591   0.64302   0.27274   0.00000  Uiso   1.00
C620   C     0.37755   0.65828   0.20961   0.00000  Uiso   1.00
C621   C     0.37427   0.61304   0.16592   0.00000  Uiso   1.00
H622   H     0.40367   0.53251   0.37762   0.00000  Uiso   1.00
H623   H     0.31367   0.53915   0.45180   0.00000  Uiso   1.00
H624   H     0.50736   0.54784   0.42377   0.00000  Uiso   1.00
H625   H     0.39138   0.49420   0.26256   0.00000  Uiso   1.00
H626   H     0.21175   0.57226   0.52575   0.00000  Uiso   1.00
H627   H     0.62015   0.59058   0.46663   0.00000  Uiso   1.00
H628   H     0.37558   0.47748   0.12670   0.00000  Uiso   1.00
H629   H     0.38695   0.73088   0.31362   0.00000  Uiso   1.00
H630   H     0.29604   0.74840   0.38429   0.00000  Uiso   1.00
H631   H     0.48973   0.75709   0.35626   0.00000  Uiso   1.00
H632   H     0.37375   0.70346   0.19506   0.00000  Uiso   1.00
H633   H     0.19744   0.74210   0.47096   0.00000  Uiso   1.00
H634   H     0.60584   0.76042   0.41184   0.00000  Uiso   1.00
H635   H     0.36127   0.64732   0.07190   0.00000  Uiso   1.00
O636   O     0.14510   0.66514   0.54602   0.00000  Uiso   1.00
O637   O     0.68091   0.68917   0.46844   0.00000  Uiso   1.00
O638   O     0.36005   0.54079   0.02246   0.00000  Uiso   1.00
N639   N     0.22085   0.60982   0.50315   0.00000  Uiso   1.00
N640   N     0.60268   0.62696   0.44789   0.00000  Uiso   1.00
N641   N     0.37404   0.52122   0.13007   0.00000  Uiso   1.00
N642   N     0.21315   0.70121   0.47367   0.00000  Uiso   1.00
N643   N     0.59497   0.71835   0.41840   0.00000  Uiso   1.00
N644   N     0.36634   0.61261   0.10059   0.00000  Uiso   1.00
C645   C     0.60017   0.42205   0.36296   0.00000  Uiso   1.00
C646   C     0.65138   0.39093   0.39438   0.00000  Uiso   1.00
C647   C     0.69015   0.41568   0.43723   0.00000  Uiso   1.00
C648   C     0.73406   0.37994   0.46062   0.00000  Uiso   1.00
C649   C     0.81282   0.34049   0.51230   0.00000  Uiso   1.00
C650   C     0.54615   0.38621   0.37916   0.00000  Uiso   1.00
C651   C     0.49644   0.40698   0.40921   0.00000  Uiso   1.00
C652   C     0.45176   0.36726   0.41977   0.00000  Uiso   1.00
C653   C     0.36713   0.32050   0.44778   0.00000  Uiso   1.00
C654   C     0.60917   0.41535   0.29158   0.00000  Uiso   1.00
C655   C     0.61243   0.46063   0.24797   0.00000  Uiso   1.00
C656   C     0.62080   0.44544   0.18479   0.00000  Uiso   1.00
C657   C     0.63402   0.44393   0.07681   0.00000  Uiso   1.00
C658   C     0.60922   0.31457   0.32828   0.00000  Uiso   1.00
C659   C     0.65630   0.33256   0.37555   0.00000  Uiso   1.00
C660   C     0.70017   0.29677   0.39887   0.00000  Uiso   1.00
C661   C     0.73899   0.32146   0.44175   0.00000  Uiso   1.00
C662   C     0.55106   0.32783   0.36033   0.00000  Uiso   1.00
C663   C     0.50645   0.28808   0.37085   0.00000  Uiso   1.00
C664   C     0.45669   0.30878   0.40090   0.00000  Uiso   1.00
C665   C     0.61409   0.35698   0.27274   0.00000  Uiso   1.00
C666   C     0.62245   0.34172   0.20961   0.00000  Uiso   1.00
C667   C     0.62573   0.38696   0.16592   0.00000  Uiso   1.00
H668   H     0.59633   0.46749   0.37762   0.00000  Uiso   1.00
H669   H     0.68633   0.46085   0.45180   0.00000  Uiso   1.00
H670   H     0.49264   0.45216   0.42377   0.00000  Uiso   1.00
H671   H     0.60862   0.50580   0.26256   0.00000  Uiso   1.00
H672   H     0.78825   0.42774   0.52575   0.00000  Uiso   1.00
H673   H     0.37985   0.40942   0.46663   0.00000  Uiso   1.00
H674   H     0.62442   0.52252   0.12670   0.00000  Uiso   1.00
H675   H     0.61305   0.26912   0.31362   0.00000  Uiso   1.00
H676   H     0.70396   0.25160   0.38429   0.00000  Uiso   1.00
H677   H     0.51027   0.24291   0.35626   0.00000  Uiso   1.00
H678   H     0.62625   0.29654   0.19506   0.00000  Uiso   1.00
H679   H     0.80256   0.25790   0.47096   0.00000  Uiso   1.00
H680   H     0.39416   0.23958   0.41184   0.00000  Uiso   1.00
H681   H     0.63873   0.35268   0.07190   0.00000  Uiso   1.00
O682   O     0.85490   0.33486   0.54602   0.00000  Uiso   1.00
O683   O     0.31909   0.31083   0.46844   0.00000  Uiso   1.00
O684   O     0.63995   0.45921   0.02246   0.00000  Uiso   1.00
N685   N     0.77915   0.39018   0.50315   0.00000  Uiso   1.00
N686   N     0.39732   0.37304   0.44789   0.00000  Uiso   1.00
N687   N     0.62596   0.47878   0.13007   0.00000  Uiso   1.00
N688   N     0.78685   0.29879   0.47367   0.00000  Uiso   1.00
N689   N     0.40503   0.28165   0.41840   0.00000  Uiso   1.00
N690   N     0.63366   0.38739   0.10059   0.00000  Uiso   1.00
C691   C     0.10017   0.92205   0.86296   0.00000  Uiso   1.00
C692   C     0.15138   0.89093   0.89438   0.00000  Uiso   1.00
C693   C     0.19015   0.91568   0.93723   0.00000  Uiso   1.00
C694   C     0.23406   0.87994   0.96062   0.00000  Uiso   1.00
C695   C     0.31282   0.84049   0.01230   0.00000  Uiso   1.00
C696   C     0.04615   0.88621   0.87916   0.00000  Uiso   1.00
C697   C     0.99644   0.90698   0.90921   0.00000  Uiso   1.00
C698   C     0.95176   0.86726   0.91977   0.00000  Uiso   1.00
C699   C     0.86713   0.82050   0.94778   0.00000  Uiso   1.00
C700   C     0.10917   0.91535   0.79158   0.00000  Uiso   1.00
C701   C     0.11243   0.96063   0.74797   0.00000  Uiso   1.00
C702   C     0.12080   0.94544   0.68479   0.00000  Uiso   1.00
C703   C     0.13402   0.94393   0.57681   0.00000  Uiso   1.00
C704   C     0.10922   0.81457   0.82828   0.00000  Uiso   1.00
C705   C     0.15630   0.83256   0.87555   0.00000  Uiso   1.00
C706   C     0.20017   0.79677   0.89887   0.00000  Uiso   1.00
C707   C     0.23899   0.82146   0.94175   0.00000  Uiso   1.00
C708   C     0.05106   0.82783   0.86033   0.00000  Uiso   1.00
C709   C     0.00645   0.78808   0.87085   0.00000  Uiso   1.00
C710   C     0.95669   0.80878   0.90090   0.00000  Uiso   1.00
C711   C     0.11409   0.85698   0.77274   0.00000  Uiso   1.00
C712   C     0.12245   0.84172   0.70961   0.00000  Uiso   1.00
C713   C     0.12573   0.88696   0.66592   0.00000  Uiso   1.00
H714   H     0.09633   0.96749   0.87762   0.00000  Uiso   1.00
H715   H     0.18633   0.96085   0.95180   0.00000  Uiso   1.00
H716   H     0.99264   0.95216   0.92377   0.00000  Uiso   1.00
H717   H     0.10862   0.00580   0.76256   0.00000  Uiso   1.00
H718   H     0.28825   0.92774   0.02575   0.00000  Uiso   1.00
H719   H     0.87985   0.90942   0.96663   0.00000  Uiso   1.00
H720   H     0.12442   0.02252   0.62670   0.00000  Uiso   1.00
H721   H     0.11305   0.76912   0.81362   0.00000  Uiso   1.00
H722   H     0.20396   0.75160   0.88429   0.00000  Uiso   1.00
H723   H     0.01027   0.74291   0.85626   0.00000  Uiso   1.00
H724   H     0.12625   0.79654   0.69506   0.00000  Uiso   1.00
H725   H     0.30256   0.75790   0.97096   0.00000  Uiso   1.00
H726   H     0.89416   0.73958   0.91184   0.00000  Uiso   1.00
H727   H     0.13873   0.85268   0.57190   0.00000  Uiso   1.00
O728   O     0.35490   0.83486   0.04602   0.00000  Uiso   1.00
O729   O     0.81909   0.81083   0.96844   0.00000  Uiso   1.00
O730   O     0.13995   0.95921   0.52246   0.00000  Uiso   1.00
N731   N     0.27915   0.89018   0.00315   0.00000  Uiso   1.00
N732   N     0.89732   0.87304   0.94789   0.00000  Uiso   1.00
N733   N     0.12596   0.97878   0.63007   0.00000  Uiso   1.00
N734   N     0.28685   0.79879   0.97367   0.00000  Uiso   1.00
N735   N     0.90503   0.78165   0.91840   0.00000  Uiso   1.00
N736   N     0.13366   0.88739   0.60059   0.00000  Uiso   1.00
