data_job_03819
_audit_creation_date              2018-12-19
_audit_creation_method            'Materials Studio'
_symmetry_space_group_name_H-M    'P1'
_symmetry_Int_Tables_number       1
_symmetry_cell_setting            triclinic
loop_
_symmetry_equiv_pos_as_xyz
  x,y,z
_cell_length_a                    20.2073
_cell_length_b                    20.2073
_cell_length_c                    21.1199
_cell_angle_alpha                 90.0000
_cell_angle_beta                  90.0000
_cell_angle_gamma                 90.0000
loop_
_atom_site_label
_atom_site_type_symbol
_atom_site_fract_x
_atom_site_fract_y
_atom_site_fract_z
_atom_site_U_iso_or_equiv
_atom_site_adp_type
_atom_site_occupancy
C1     C     0.03649   0.73546   0.38126   0.00000  Uiso   1.00
C2     C     0.99451   0.79800   0.38561   0.00000  Uiso   1.00
C3     C     0.93734   0.80531   0.42134   0.00000  Uiso   1.00
C4     C     0.90609   0.86645   0.41898   0.00000  Uiso   1.00
C5     C     0.83707   0.95566   0.43129   0.00000  Uiso   1.00
C6     C     0.04029   0.71819   0.31107   0.00000  Uiso   1.00
C7     C     0.02163   0.65839   0.28413   0.00000  Uiso   1.00
C8     C     0.02893   0.65234   0.21902   0.00000  Uiso   1.00
C9     C     0.03104   0.61762   0.11562   0.00000  Uiso   1.00
C10    C     0.10630   0.75568   0.40068   0.00000  Uiso   1.00
C11    C     0.14314   0.72739   0.44909   0.00000  Uiso   1.00
C12    C     0.20602   0.75290   0.45942   0.00000  Uiso   1.00
C13    C     0.31062   0.77639   0.49516   0.00000  Uiso   1.00
C14    C     0.08266   0.83104   0.31352   0.00000  Uiso   1.00
C15    C     0.01959   0.84992   0.34881   0.00000  Uiso   1.00
C16    C     0.98842   0.91106   0.34640   0.00000  Uiso   1.00
C17    C     0.93121   0.91846   0.38212   0.00000  Uiso   1.00
C18    C     0.06537   0.77010   0.27428   0.00000  Uiso   1.00
C19    C     0.07271   0.76414   0.20919   0.00000  Uiso   1.00
C20    C     0.05405   0.70435   0.18216   0.00000  Uiso   1.00
C21    C     0.13138   0.80760   0.36389   0.00000  Uiso   1.00
C22    C     0.19422   0.83315   0.37414   0.00000  Uiso   1.00
C23    C     0.23115   0.80491   0.42256   0.00000  Uiso   1.00
H24    H     0.01697   0.69503   0.40990   0.00000  Uiso   1.00
H25    H     0.91795   0.76512   0.44980   0.00000  Uiso   1.00
H26    H     0.00223   0.61822   0.31262   0.00000  Uiso   1.00
H27    H     0.12372   0.68722   0.47755   0.00000  Uiso   1.00
H28    H     0.81921   0.86571   0.47779   0.00000  Uiso   1.00
H29    H     0.99695   0.55595   0.18854   0.00000  Uiso   1.00
H30    H     0.25313   0.70144   0.53632   0.00000  Uiso   1.00
H31    H     0.10218   0.87146   0.28488   0.00000  Uiso   1.00
H32    H     0.00783   0.95123   0.31792   0.00000  Uiso   1.00
H33    H     0.09212   0.80433   0.18073   0.00000  Uiso   1.00
H34    H     0.21361   0.87332   0.34566   0.00000  Uiso   1.00
H35    H     0.89216   0.01676   0.37075   0.00000  Uiso   1.00
H36    H     0.06990   0.70700   0.08149   0.00000  Uiso   1.00
H37    H     0.32609   0.85250   0.42928   0.00000  Uiso   1.00
O38    O     0.79207   0.99052   0.44825   0.00000  Uiso   1.00
O39    O     0.02527   0.58413   0.06876   0.00000  Uiso   1.00
O40    O     0.36138   0.77501   0.52505   0.00000  Uiso   1.00
N41    N     0.84933   0.89032   0.44808   0.00000  Uiso   1.00
N42    N     0.01550   0.60072   0.17764   0.00000  Uiso   1.00
N43    N     0.25502   0.73673   0.50278   0.00000  Uiso   1.00
N44    N     0.88859   0.97160   0.39048   0.00000  Uiso   1.00
N45    N     0.05475   0.68200   0.12004   0.00000  Uiso   1.00
N46    N     0.29427   0.81801   0.44518   0.00000  Uiso   1.00
C47    C     0.53649   0.23546   0.88126   0.00000  Uiso   1.00
C48    C     0.49451   0.29800   0.88561   0.00000  Uiso   1.00
C49    C     0.43734   0.30531   0.92134   0.00000  Uiso   1.00
C50    C     0.40609   0.36645   0.91898   0.00000  Uiso   1.00
C51    C     0.33707   0.45566   0.93129   0.00000  Uiso   1.00
C52    C     0.54029   0.21819   0.81107   0.00000  Uiso   1.00
C53    C     0.52163   0.15839   0.78413   0.00000  Uiso   1.00
C54    C     0.52893   0.15234   0.71902   0.00000  Uiso   1.00
C55    C     0.53104   0.11762   0.61562   0.00000  Uiso   1.00
C56    C     0.60630   0.25568   0.90068   0.00000  Uiso   1.00
C57    C     0.64314   0.22739   0.94909   0.00000  Uiso   1.00
C58    C     0.70602   0.25290   0.95942   0.00000  Uiso   1.00
C59    C     0.81062   0.27639   0.99516   0.00000  Uiso   1.00
C60    C     0.58266   0.33104   0.81352   0.00000  Uiso   1.00
C61    C     0.51959   0.34992   0.84881   0.00000  Uiso   1.00
C62    C     0.48842   0.41106   0.84640   0.00000  Uiso   1.00
C63    C     0.43121   0.41846   0.88212   0.00000  Uiso   1.00
C64    C     0.56537   0.27010   0.77428   0.00000  Uiso   1.00
C65    C     0.57271   0.26414   0.70919   0.00000  Uiso   1.00
C66    C     0.55405   0.20435   0.68216   0.00000  Uiso   1.00
C67    C     0.63138   0.30760   0.86389   0.00000  Uiso   1.00
C68    C     0.69422   0.33315   0.87414   0.00000  Uiso   1.00
C69    C     0.73115   0.30491   0.92256   0.00000  Uiso   1.00
H70    H     0.51697   0.19503   0.90990   0.00000  Uiso   1.00
H71    H     0.41795   0.26512   0.94980   0.00000  Uiso   1.00
H72    H     0.50223   0.11822   0.81262   0.00000  Uiso   1.00
H73    H     0.62372   0.18722   0.97755   0.00000  Uiso   1.00
H74    H     0.31921   0.36571   0.97779   0.00000  Uiso   1.00
H75    H     0.49695   0.05595   0.68854   0.00000  Uiso   1.00
H76    H     0.75313   0.20144   0.03632   0.00000  Uiso   1.00
H77    H     0.60218   0.37146   0.78488   0.00000  Uiso   1.00
H78    H     0.50783   0.45123   0.81792   0.00000  Uiso   1.00
H79    H     0.59212   0.30433   0.68073   0.00000  Uiso   1.00
H80    H     0.71361   0.37332   0.84566   0.00000  Uiso   1.00
H81    H     0.39216   0.51676   0.87075   0.00000  Uiso   1.00
H82    H     0.56990   0.20700   0.58149   0.00000  Uiso   1.00
H83    H     0.82609   0.35250   0.92928   0.00000  Uiso   1.00
O84    O     0.29207   0.49052   0.94825   0.00000  Uiso   1.00
O85    O     0.52527   0.08413   0.56876   0.00000  Uiso   1.00
O86    O     0.86138   0.27501   0.02505   0.00000  Uiso   1.00
N87    N     0.34933   0.39032   0.94808   0.00000  Uiso   1.00
N88    N     0.51550   0.10072   0.67764   0.00000  Uiso   1.00
N89    N     0.75502   0.23673   0.00278   0.00000  Uiso   1.00
N90    N     0.38859   0.47160   0.89048   0.00000  Uiso   1.00
N91    N     0.55475   0.18200   0.62004   0.00000  Uiso   1.00
N92    N     0.79427   0.31801   0.94518   0.00000  Uiso   1.00
C93    C     0.46351   0.76454   0.88126   0.00000  Uiso   1.00
C94    C     0.50549   0.70200   0.88561   0.00000  Uiso   1.00
C95    C     0.56266   0.69469   0.92134   0.00000  Uiso   1.00
C96    C     0.59391   0.63355   0.91898   0.00000  Uiso   1.00
C97    C     0.66293   0.54434   0.93129   0.00000  Uiso   1.00
C98    C     0.45971   0.78181   0.81107   0.00000  Uiso   1.00
C99    C     0.47837   0.84161   0.78413   0.00000  Uiso   1.00
C100   C     0.47107   0.84766   0.71902   0.00000  Uiso   1.00
C101   C     0.46896   0.88238   0.61562   0.00000  Uiso   1.00
C102   C     0.39370   0.74432   0.90068   0.00000  Uiso   1.00
C103   C     0.35686   0.77261   0.94909   0.00000  Uiso   1.00
C104   C     0.29398   0.74710   0.95942   0.00000  Uiso   1.00
C105   C     0.18938   0.72361   0.99516   0.00000  Uiso   1.00
C106   C     0.41734   0.66896   0.81352   0.00000  Uiso   1.00
C107   C     0.48041   0.65008   0.84881   0.00000  Uiso   1.00
C108   C     0.51158   0.58894   0.84640   0.00000  Uiso   1.00
C109   C     0.56879   0.58154   0.88212   0.00000  Uiso   1.00
C110   C     0.43463   0.72990   0.77428   0.00000  Uiso   1.00
C111   C     0.42729   0.73586   0.70919   0.00000  Uiso   1.00
C112   C     0.44595   0.79565   0.68216   0.00000  Uiso   1.00
C113   C     0.36862   0.69240   0.86389   0.00000  Uiso   1.00
C114   C     0.30578   0.66685   0.87414   0.00000  Uiso   1.00
C115   C     0.26885   0.69509   0.92256   0.00000  Uiso   1.00
H116   H     0.48303   0.80497   0.90990   0.00000  Uiso   1.00
H117   H     0.58205   0.73488   0.94980   0.00000  Uiso   1.00
H118   H     0.49777   0.88178   0.81262   0.00000  Uiso   1.00
H119   H     0.37628   0.81278   0.97755   0.00000  Uiso   1.00
H120   H     0.68079   0.63429   0.97779   0.00000  Uiso   1.00
H121   H     0.50305   0.94405   0.68854   0.00000  Uiso   1.00
H122   H     0.24687   0.79856   0.03632   0.00000  Uiso   1.00
H123   H     0.39782   0.62854   0.78488   0.00000  Uiso   1.00
H124   H     0.49217   0.54877   0.81792   0.00000  Uiso   1.00
H125   H     0.40788   0.69567   0.68073   0.00000  Uiso   1.00
H126   H     0.28639   0.62668   0.84566   0.00000  Uiso   1.00
H127   H     0.60784   0.48324   0.87075   0.00000  Uiso   1.00
H128   H     0.43010   0.79300   0.58149   0.00000  Uiso   1.00
H129   H     0.17391   0.64750   0.92928   0.00000  Uiso   1.00
O130   O     0.70793   0.50948   0.94825   0.00000  Uiso   1.00
O131   O     0.47473   0.91587   0.56876   0.00000  Uiso   1.00
O132   O     0.13862   0.72499   0.02505   0.00000  Uiso   1.00
N133   N     0.65067   0.60968   0.94808   0.00000  Uiso   1.00
N134   N     0.48450   0.89928   0.67764   0.00000  Uiso   1.00
N135   N     0.24498   0.76327   0.00278   0.00000  Uiso   1.00
N136   N     0.61141   0.52840   0.89048   0.00000  Uiso   1.00
N137   N     0.44525   0.81800   0.62004   0.00000  Uiso   1.00
N138   N     0.20573   0.68199   0.94518   0.00000  Uiso   1.00
C139   C     0.96351   0.26454   0.38126   0.00000  Uiso   1.00
C140   C     0.00549   0.20200   0.38561   0.00000  Uiso   1.00
C141   C     0.06266   0.19469   0.42134   0.00000  Uiso   1.00
C142   C     0.09391   0.13355   0.41898   0.00000  Uiso   1.00
C143   C     0.16293   0.04434   0.43129   0.00000  Uiso   1.00
C144   C     0.95971   0.28181   0.31107   0.00000  Uiso   1.00
C145   C     0.97837   0.34161   0.28413   0.00000  Uiso   1.00
C146   C     0.97107   0.34766   0.21902   0.00000  Uiso   1.00
C147   C     0.96896   0.38238   0.11562   0.00000  Uiso   1.00
C148   C     0.89370   0.24432   0.40068   0.00000  Uiso   1.00
C149   C     0.85686   0.27261   0.44909   0.00000  Uiso   1.00
C150   C     0.79398   0.24710   0.45942   0.00000  Uiso   1.00
C151   C     0.68938   0.22361   0.49516   0.00000  Uiso   1.00
C152   C     0.91734   0.16896   0.31352   0.00000  Uiso   1.00
C153   C     0.98041   0.15008   0.34881   0.00000  Uiso   1.00
C154   C     0.01158   0.08894   0.34640   0.00000  Uiso   1.00
C155   C     0.06879   0.08154   0.38212   0.00000  Uiso   1.00
C156   C     0.93463   0.22990   0.27428   0.00000  Uiso   1.00
C157   C     0.92729   0.23586   0.20919   0.00000  Uiso   1.00
C158   C     0.94595   0.29565   0.18216   0.00000  Uiso   1.00
C159   C     0.86862   0.19240   0.36389   0.00000  Uiso   1.00
C160   C     0.80578   0.16685   0.37414   0.00000  Uiso   1.00
C161   C     0.76885   0.19509   0.42256   0.00000  Uiso   1.00
H162   H     0.98303   0.30497   0.40990   0.00000  Uiso   1.00
H163   H     0.08205   0.23488   0.44980   0.00000  Uiso   1.00
H164   H     0.99777   0.38178   0.31262   0.00000  Uiso   1.00
H165   H     0.87628   0.31278   0.47755   0.00000  Uiso   1.00
H166   H     0.18079   0.13429   0.47779   0.00000  Uiso   1.00
H167   H     0.00305   0.44405   0.18854   0.00000  Uiso   1.00
H168   H     0.74687   0.29856   0.53632   0.00000  Uiso   1.00
H169   H     0.89782   0.12854   0.28488   0.00000  Uiso   1.00
H170   H     0.99217   0.04877   0.31792   0.00000  Uiso   1.00
H171   H     0.90788   0.19567   0.18073   0.00000  Uiso   1.00
H172   H     0.78639   0.12668   0.34566   0.00000  Uiso   1.00
H173   H     0.10784   0.98324   0.37075   0.00000  Uiso   1.00
H174   H     0.93010   0.29300   0.08149   0.00000  Uiso   1.00
H175   H     0.67391   0.14750   0.42928   0.00000  Uiso   1.00
O176   O     0.20793   0.00948   0.44825   0.00000  Uiso   1.00
O177   O     0.97473   0.41587   0.06876   0.00000  Uiso   1.00
O178   O     0.63862   0.22499   0.52505   0.00000  Uiso   1.00
N179   N     0.15067   0.10968   0.44808   0.00000  Uiso   1.00
N180   N     0.98450   0.39928   0.17764   0.00000  Uiso   1.00
N181   N     0.74498   0.26327   0.50278   0.00000  Uiso   1.00
N182   N     0.11141   0.02840   0.39048   0.00000  Uiso   1.00
N183   N     0.94525   0.31800   0.12004   0.00000  Uiso   1.00
N184   N     0.70573   0.18199   0.44518   0.00000  Uiso   1.00
C185   C     0.26454   0.53649   0.63126   0.00000  Uiso   1.00
C186   C     0.20200   0.49451   0.63561   0.00000  Uiso   1.00
C187   C     0.19469   0.43734   0.67134   0.00000  Uiso   1.00
C188   C     0.13355   0.40609   0.66898   0.00000  Uiso   1.00
C189   C     0.04434   0.33707   0.68129   0.00000  Uiso   1.00
C190   C     0.28181   0.54029   0.56107   0.00000  Uiso   1.00
C191   C     0.34161   0.52163   0.53413   0.00000  Uiso   1.00
C192   C     0.34766   0.52893   0.46902   0.00000  Uiso   1.00
C193   C     0.38238   0.53104   0.36562   0.00000  Uiso   1.00
C194   C     0.24432   0.60630   0.65068   0.00000  Uiso   1.00
C195   C     0.27261   0.64314   0.69909   0.00000  Uiso   1.00
C196   C     0.24710   0.70602   0.70942   0.00000  Uiso   1.00
C197   C     0.22361   0.81062   0.74516   0.00000  Uiso   1.00
C198   C     0.16896   0.58266   0.56352   0.00000  Uiso   1.00
C199   C     0.15008   0.51959   0.59881   0.00000  Uiso   1.00
C200   C     0.08894   0.48842   0.59640   0.00000  Uiso   1.00
C201   C     0.08154   0.43121   0.63212   0.00000  Uiso   1.00
C202   C     0.22990   0.56537   0.52428   0.00000  Uiso   1.00
C203   C     0.23586   0.57271   0.45919   0.00000  Uiso   1.00
C204   C     0.29565   0.55405   0.43216   0.00000  Uiso   1.00
C205   C     0.19240   0.63138   0.61389   0.00000  Uiso   1.00
C206   C     0.16685   0.69422   0.62414   0.00000  Uiso   1.00
C207   C     0.19509   0.73115   0.67256   0.00000  Uiso   1.00
H208   H     0.30497   0.51697   0.65990   0.00000  Uiso   1.00
H209   H     0.23488   0.41795   0.69980   0.00000  Uiso   1.00
H210   H     0.38178   0.50223   0.56262   0.00000  Uiso   1.00
H211   H     0.31278   0.62372   0.72755   0.00000  Uiso   1.00
H212   H     0.13429   0.31921   0.72779   0.00000  Uiso   1.00
H213   H     0.44405   0.49695   0.43854   0.00000  Uiso   1.00
H214   H     0.29856   0.75313   0.78632   0.00000  Uiso   1.00
H215   H     0.12854   0.60218   0.53488   0.00000  Uiso   1.00
H216   H     0.04877   0.50783   0.56792   0.00000  Uiso   1.00
H217   H     0.19567   0.59212   0.43073   0.00000  Uiso   1.00
H218   H     0.12668   0.71361   0.59566   0.00000  Uiso   1.00
H219   H     0.98324   0.39216   0.62075   0.00000  Uiso   1.00
H220   H     0.29300   0.56990   0.33149   0.00000  Uiso   1.00
H221   H     0.14750   0.82609   0.67928   0.00000  Uiso   1.00
O222   O     0.00948   0.29207   0.69825   0.00000  Uiso   1.00
O223   O     0.41587   0.52527   0.31876   0.00000  Uiso   1.00
O224   O     0.22499   0.86138   0.77505   0.00000  Uiso   1.00
N225   N     0.10968   0.34933   0.69808   0.00000  Uiso   1.00
N226   N     0.39928   0.51550   0.42764   0.00000  Uiso   1.00
N227   N     0.26327   0.75502   0.75278   0.00000  Uiso   1.00
N228   N     0.02840   0.38859   0.64048   0.00000  Uiso   1.00
N229   N     0.31800   0.55475   0.37004   0.00000  Uiso   1.00
N230   N     0.18199   0.79427   0.69518   0.00000  Uiso   1.00
C231   C     0.76454   0.03649   0.13126   0.00000  Uiso   1.00
C232   C     0.70200   0.99451   0.13561   0.00000  Uiso   1.00
C233   C     0.69469   0.93734   0.17134   0.00000  Uiso   1.00
C234   C     0.63355   0.90609   0.16898   0.00000  Uiso   1.00
C235   C     0.54434   0.83707   0.18129   0.00000  Uiso   1.00
C236   C     0.78181   0.04029   0.06107   0.00000  Uiso   1.00
C237   C     0.84161   0.02163   0.03413   0.00000  Uiso   1.00
C238   C     0.84766   0.02893   0.96902   0.00000  Uiso   1.00
C239   C     0.88238   0.03104   0.86562   0.00000  Uiso   1.00
C240   C     0.74432   0.10630   0.15068   0.00000  Uiso   1.00
C241   C     0.77261   0.14314   0.19909   0.00000  Uiso   1.00
C242   C     0.74710   0.20602   0.20942   0.00000  Uiso   1.00
C243   C     0.72361   0.31062   0.24516   0.00000  Uiso   1.00
C244   C     0.66896   0.08266   0.06352   0.00000  Uiso   1.00
C245   C     0.65008   0.01959   0.09881   0.00000  Uiso   1.00
C246   C     0.58894   0.98842   0.09640   0.00000  Uiso   1.00
C247   C     0.58154   0.93121   0.13212   0.00000  Uiso   1.00
C248   C     0.72990   0.06537   0.02428   0.00000  Uiso   1.00
C249   C     0.73586   0.07271   0.95919   0.00000  Uiso   1.00
C250   C     0.79565   0.05405   0.93216   0.00000  Uiso   1.00
C251   C     0.69240   0.13138   0.11389   0.00000  Uiso   1.00
C252   C     0.66685   0.19422   0.12414   0.00000  Uiso   1.00
C253   C     0.69509   0.23115   0.17256   0.00000  Uiso   1.00
H254   H     0.80497   0.01697   0.15990   0.00000  Uiso   1.00
H255   H     0.73488   0.91795   0.19980   0.00000  Uiso   1.00
H256   H     0.88178   0.00223   0.06262   0.00000  Uiso   1.00
H257   H     0.81278   0.12372   0.22755   0.00000  Uiso   1.00
H258   H     0.63429   0.81921   0.22779   0.00000  Uiso   1.00
H259   H     0.94405   0.99695   0.93854   0.00000  Uiso   1.00
H260   H     0.79856   0.25313   0.28632   0.00000  Uiso   1.00
H261   H     0.62854   0.10218   0.03488   0.00000  Uiso   1.00
H262   H     0.54877   0.00783   0.06792   0.00000  Uiso   1.00
H263   H     0.69567   0.09212   0.93073   0.00000  Uiso   1.00
H264   H     0.62668   0.21361   0.09566   0.00000  Uiso   1.00
H265   H     0.48324   0.89216   0.12075   0.00000  Uiso   1.00
H266   H     0.79300   0.06990   0.83149   0.00000  Uiso   1.00
H267   H     0.64750   0.32609   0.17928   0.00000  Uiso   1.00
O268   O     0.50948   0.79207   0.19825   0.00000  Uiso   1.00
O269   O     0.91587   0.02527   0.81876   0.00000  Uiso   1.00
O270   O     0.72499   0.36138   0.27505   0.00000  Uiso   1.00
N271   N     0.60968   0.84933   0.19808   0.00000  Uiso   1.00
N272   N     0.89928   0.01550   0.92764   0.00000  Uiso   1.00
N273   N     0.76327   0.25502   0.25278   0.00000  Uiso   1.00
N274   N     0.52840   0.88859   0.14048   0.00000  Uiso   1.00
N275   N     0.81800   0.05475   0.87004   0.00000  Uiso   1.00
N276   N     0.68199   0.29427   0.19518   0.00000  Uiso   1.00
C277   C     0.23546   0.96351   0.13126   0.00000  Uiso   1.00
C278   C     0.29800   0.00549   0.13561   0.00000  Uiso   1.00
C279   C     0.30531   0.06266   0.17134   0.00000  Uiso   1.00
C280   C     0.36645   0.09391   0.16898   0.00000  Uiso   1.00
C281   C     0.45566   0.16293   0.18129   0.00000  Uiso   1.00
C282   C     0.21819   0.95971   0.06107   0.00000  Uiso   1.00
C283   C     0.15839   0.97837   0.03413   0.00000  Uiso   1.00
C284   C     0.15234   0.97107   0.96902   0.00000  Uiso   1.00
C285   C     0.11762   0.96896   0.86562   0.00000  Uiso   1.00
C286   C     0.25568   0.89370   0.15068   0.00000  Uiso   1.00
C287   C     0.22739   0.85686   0.19909   0.00000  Uiso   1.00
C288   C     0.25290   0.79398   0.20942   0.00000  Uiso   1.00
C289   C     0.27639   0.68938   0.24516   0.00000  Uiso   1.00
C290   C     0.33104   0.91734   0.06352   0.00000  Uiso   1.00
C291   C     0.34992   0.98041   0.09881   0.00000  Uiso   1.00
C292   C     0.41106   0.01158   0.09640   0.00000  Uiso   1.00
C293   C     0.41846   0.06879   0.13212   0.00000  Uiso   1.00
C294   C     0.27010   0.93463   0.02428   0.00000  Uiso   1.00
C295   C     0.26414   0.92729   0.95919   0.00000  Uiso   1.00
C296   C     0.20435   0.94595   0.93216   0.00000  Uiso   1.00
C297   C     0.30760   0.86862   0.11389   0.00000  Uiso   1.00
C298   C     0.33315   0.80578   0.12414   0.00000  Uiso   1.00
C299   C     0.30491   0.76885   0.17256   0.00000  Uiso   1.00
H300   H     0.19503   0.98303   0.15990   0.00000  Uiso   1.00
H301   H     0.26512   0.08205   0.19980   0.00000  Uiso   1.00
H302   H     0.11822   0.99777   0.06262   0.00000  Uiso   1.00
H303   H     0.18722   0.87628   0.22755   0.00000  Uiso   1.00
H304   H     0.36571   0.18079   0.22779   0.00000  Uiso   1.00
H305   H     0.05595   0.00305   0.93854   0.00000  Uiso   1.00
H306   H     0.20144   0.74687   0.28632   0.00000  Uiso   1.00
H307   H     0.37146   0.89782   0.03488   0.00000  Uiso   1.00
H308   H     0.45123   0.99217   0.06792   0.00000  Uiso   1.00
H309   H     0.30433   0.90788   0.93073   0.00000  Uiso   1.00
H310   H     0.37332   0.78639   0.09566   0.00000  Uiso   1.00
H311   H     0.51676   0.10784   0.12075   0.00000  Uiso   1.00
H312   H     0.20700   0.93010   0.83149   0.00000  Uiso   1.00
H313   H     0.35250   0.67391   0.17928   0.00000  Uiso   1.00
O314   O     0.49052   0.20793   0.19825   0.00000  Uiso   1.00
O315   O     0.08413   0.97473   0.81876   0.00000  Uiso   1.00
O316   O     0.27501   0.63862   0.27505   0.00000  Uiso   1.00
N317   N     0.39032   0.15067   0.19808   0.00000  Uiso   1.00
N318   N     0.10072   0.98450   0.92764   0.00000  Uiso   1.00
N319   N     0.23673   0.74498   0.25278   0.00000  Uiso   1.00
N320   N     0.47160   0.11141   0.14048   0.00000  Uiso   1.00
N321   N     0.18200   0.94525   0.87004   0.00000  Uiso   1.00
N322   N     0.31801   0.70573   0.19518   0.00000  Uiso   1.00
C323   C     0.73546   0.46351   0.63126   0.00000  Uiso   1.00
C324   C     0.79800   0.50549   0.63561   0.00000  Uiso   1.00
C325   C     0.80531   0.56266   0.67134   0.00000  Uiso   1.00
C326   C     0.86645   0.59391   0.66898   0.00000  Uiso   1.00
C327   C     0.95566   0.66293   0.68129   0.00000  Uiso   1.00
C328   C     0.71819   0.45971   0.56107   0.00000  Uiso   1.00
C329   C     0.65839   0.47837   0.53413   0.00000  Uiso   1.00
C330   C     0.65234   0.47107   0.46902   0.00000  Uiso   1.00
C331   C     0.61762   0.46896   0.36562   0.00000  Uiso   1.00
C332   C     0.75568   0.39370   0.65068   0.00000  Uiso   1.00
C333   C     0.72739   0.35686   0.69909   0.00000  Uiso   1.00
C334   C     0.75290   0.29398   0.70942   0.00000  Uiso   1.00
C335   C     0.77639   0.18938   0.74516   0.00000  Uiso   1.00
C336   C     0.83104   0.41734   0.56352   0.00000  Uiso   1.00
C337   C     0.84992   0.48041   0.59881   0.00000  Uiso   1.00
C338   C     0.91106   0.51158   0.59640   0.00000  Uiso   1.00
C339   C     0.91846   0.56879   0.63212   0.00000  Uiso   1.00
C340   C     0.77010   0.43463   0.52428   0.00000  Uiso   1.00
C341   C     0.76414   0.42729   0.45919   0.00000  Uiso   1.00
C342   C     0.70435   0.44595   0.43216   0.00000  Uiso   1.00
C343   C     0.80760   0.36862   0.61389   0.00000  Uiso   1.00
C344   C     0.83315   0.30578   0.62414   0.00000  Uiso   1.00
C345   C     0.80491   0.26885   0.67256   0.00000  Uiso   1.00
H346   H     0.69503   0.48303   0.65990   0.00000  Uiso   1.00
H347   H     0.76512   0.58205   0.69980   0.00000  Uiso   1.00
H348   H     0.61822   0.49777   0.56262   0.00000  Uiso   1.00
H349   H     0.68722   0.37628   0.72755   0.00000  Uiso   1.00
H350   H     0.86571   0.68079   0.72779   0.00000  Uiso   1.00
H351   H     0.55595   0.50305   0.43854   0.00000  Uiso   1.00
H352   H     0.70144   0.24687   0.78632   0.00000  Uiso   1.00
H353   H     0.87146   0.39782   0.53488   0.00000  Uiso   1.00
H354   H     0.95123   0.49217   0.56792   0.00000  Uiso   1.00
H355   H     0.80433   0.40788   0.43073   0.00000  Uiso   1.00
H356   H     0.87332   0.28639   0.59566   0.00000  Uiso   1.00
H357   H     0.01676   0.60784   0.62075   0.00000  Uiso   1.00
H358   H     0.70700   0.43010   0.33149   0.00000  Uiso   1.00
H359   H     0.85250   0.17391   0.67928   0.00000  Uiso   1.00
O360   O     0.99052   0.70793   0.69825   0.00000  Uiso   1.00
O361   O     0.58413   0.47473   0.31876   0.00000  Uiso   1.00
O362   O     0.77501   0.13862   0.77505   0.00000  Uiso   1.00
N363   N     0.89032   0.65067   0.69808   0.00000  Uiso   1.00
N364   N     0.60072   0.48450   0.42764   0.00000  Uiso   1.00
N365   N     0.73673   0.24498   0.75278   0.00000  Uiso   1.00
N366   N     0.97160   0.61141   0.64048   0.00000  Uiso   1.00
N367   N     0.68200   0.44525   0.37004   0.00000  Uiso   1.00
N368   N     0.81801   0.20573   0.69518   0.00000  Uiso   1.00
C369   C     0.96351   0.76454   0.86874   0.00000  Uiso   1.00
C370   C     0.00549   0.70200   0.86439   0.00000  Uiso   1.00
C371   C     0.06266   0.69469   0.82866   0.00000  Uiso   1.00
C372   C     0.09391   0.63355   0.83102   0.00000  Uiso   1.00
C373   C     0.16293   0.54434   0.81871   0.00000  Uiso   1.00
C374   C     0.95971   0.78181   0.93893   0.00000  Uiso   1.00
C375   C     0.97837   0.84161   0.96587   0.00000  Uiso   1.00
C376   C     0.97107   0.84766   0.03098   0.00000  Uiso   1.00
C377   C     0.96896   0.88238   0.13438   0.00000  Uiso   1.00
C378   C     0.89370   0.74432   0.84932   0.00000  Uiso   1.00
C379   C     0.85686   0.77261   0.80091   0.00000  Uiso   1.00
C380   C     0.79398   0.74710   0.79058   0.00000  Uiso   1.00
C381   C     0.68938   0.72361   0.75484   0.00000  Uiso   1.00
C382   C     0.91734   0.66896   0.93648   0.00000  Uiso   1.00
C383   C     0.98041   0.65008   0.90119   0.00000  Uiso   1.00
C384   C     0.01158   0.58894   0.90360   0.00000  Uiso   1.00
C385   C     0.06879   0.58154   0.86788   0.00000  Uiso   1.00
C386   C     0.93463   0.72990   0.97572   0.00000  Uiso   1.00
C387   C     0.92729   0.73586   0.04081   0.00000  Uiso   1.00
C388   C     0.94595   0.79565   0.06784   0.00000  Uiso   1.00
C389   C     0.86862   0.69240   0.88611   0.00000  Uiso   1.00
C390   C     0.80578   0.66685   0.87586   0.00000  Uiso   1.00
C391   C     0.76885   0.69509   0.82744   0.00000  Uiso   1.00
H392   H     0.98303   0.80497   0.84010   0.00000  Uiso   1.00
H393   H     0.08205   0.73488   0.80020   0.00000  Uiso   1.00
H394   H     0.99777   0.88178   0.93738   0.00000  Uiso   1.00
H395   H     0.87628   0.81278   0.77245   0.00000  Uiso   1.00
H396   H     0.18079   0.63429   0.77221   0.00000  Uiso   1.00
H397   H     0.00305   0.94405   0.06146   0.00000  Uiso   1.00
H398   H     0.74687   0.79856   0.71368   0.00000  Uiso   1.00
H399   H     0.89782   0.62854   0.96512   0.00000  Uiso   1.00
H400   H     0.99217   0.54877   0.93208   0.00000  Uiso   1.00
H401   H     0.90788   0.69567   0.06927   0.00000  Uiso   1.00
H402   H     0.78639   0.62668   0.90434   0.00000  Uiso   1.00
H403   H     0.10784   0.48324   0.87925   0.00000  Uiso   1.00
H404   H     0.93010   0.79300   0.16851   0.00000  Uiso   1.00
H405   H     0.67391   0.64750   0.82072   0.00000  Uiso   1.00
O406   O     0.20793   0.50948   0.80175   0.00000  Uiso   1.00
O407   O     0.97473   0.91587   0.18124   0.00000  Uiso   1.00
O408   O     0.63862   0.72499   0.72495   0.00000  Uiso   1.00
N409   N     0.15067   0.60968   0.80192   0.00000  Uiso   1.00
N410   N     0.98450   0.89928   0.07236   0.00000  Uiso   1.00
N411   N     0.74498   0.76327   0.74722   0.00000  Uiso   1.00
N412   N     0.11141   0.52840   0.85952   0.00000  Uiso   1.00
N413   N     0.94525   0.81800   0.12996   0.00000  Uiso   1.00
N414   N     0.70573   0.68199   0.80482   0.00000  Uiso   1.00
C415   C     0.46351   0.26454   0.36874   0.00000  Uiso   1.00
C416   C     0.50549   0.20200   0.36439   0.00000  Uiso   1.00
C417   C     0.56266   0.19469   0.32866   0.00000  Uiso   1.00
C418   C     0.59391   0.13355   0.33102   0.00000  Uiso   1.00
C419   C     0.66293   0.04434   0.31871   0.00000  Uiso   1.00
C420   C     0.45971   0.28181   0.43893   0.00000  Uiso   1.00
C421   C     0.47837   0.34161   0.46587   0.00000  Uiso   1.00
C422   C     0.47107   0.34766   0.53098   0.00000  Uiso   1.00
C423   C     0.46896   0.38238   0.63438   0.00000  Uiso   1.00
C424   C     0.39370   0.24432   0.34932   0.00000  Uiso   1.00
C425   C     0.35686   0.27261   0.30091   0.00000  Uiso   1.00
C426   C     0.29398   0.24710   0.29058   0.00000  Uiso   1.00
C427   C     0.18938   0.22361   0.25484   0.00000  Uiso   1.00
C428   C     0.41734   0.16896   0.43648   0.00000  Uiso   1.00
C429   C     0.48041   0.15008   0.40119   0.00000  Uiso   1.00
C430   C     0.51158   0.08894   0.40360   0.00000  Uiso   1.00
C431   C     0.56879   0.08154   0.36788   0.00000  Uiso   1.00
C432   C     0.43463   0.22990   0.47572   0.00000  Uiso   1.00
C433   C     0.42729   0.23586   0.54081   0.00000  Uiso   1.00
C434   C     0.44595   0.29565   0.56784   0.00000  Uiso   1.00
C435   C     0.36862   0.19240   0.38611   0.00000  Uiso   1.00
C436   C     0.30578   0.16685   0.37586   0.00000  Uiso   1.00
C437   C     0.26885   0.19509   0.32744   0.00000  Uiso   1.00
H438   H     0.48303   0.30497   0.34010   0.00000  Uiso   1.00
H439   H     0.58205   0.23488   0.30020   0.00000  Uiso   1.00
H440   H     0.49777   0.38178   0.43738   0.00000  Uiso   1.00
H441   H     0.37628   0.31278   0.27245   0.00000  Uiso   1.00
H442   H     0.68079   0.13429   0.27221   0.00000  Uiso   1.00
H443   H     0.50305   0.44405   0.56146   0.00000  Uiso   1.00
H444   H     0.24687   0.29856   0.21368   0.00000  Uiso   1.00
H445   H     0.39782   0.12854   0.46512   0.00000  Uiso   1.00
H446   H     0.49217   0.04877   0.43208   0.00000  Uiso   1.00
H447   H     0.40788   0.19567   0.56927   0.00000  Uiso   1.00
H448   H     0.28639   0.12668   0.40434   0.00000  Uiso   1.00
H449   H     0.60784   0.98324   0.37925   0.00000  Uiso   1.00
H450   H     0.43010   0.29300   0.66851   0.00000  Uiso   1.00
H451   H     0.17391   0.14750   0.32072   0.00000  Uiso   1.00
O452   O     0.70793   0.00948   0.30175   0.00000  Uiso   1.00
O453   O     0.47473   0.41587   0.68124   0.00000  Uiso   1.00
O454   O     0.13862   0.22499   0.22495   0.00000  Uiso   1.00
N455   N     0.65067   0.10968   0.30192   0.00000  Uiso   1.00
N456   N     0.48450   0.39928   0.57236   0.00000  Uiso   1.00
N457   N     0.24498   0.26327   0.24722   0.00000  Uiso   1.00
N458   N     0.61141   0.02840   0.35952   0.00000  Uiso   1.00
N459   N     0.44525   0.31800   0.62996   0.00000  Uiso   1.00
N460   N     0.20573   0.18199   0.30482   0.00000  Uiso   1.00
C461   C     0.53649   0.73546   0.36874   0.00000  Uiso   1.00
C462   C     0.49451   0.79800   0.36439   0.00000  Uiso   1.00
C463   C     0.43734   0.80531   0.32866   0.00000  Uiso   1.00
C464   C     0.40609   0.86645   0.33102   0.00000  Uiso   1.00
C465   C     0.33707   0.95566   0.31871   0.00000  Uiso   1.00
C466   C     0.54029   0.71819   0.43893   0.00000  Uiso   1.00
C467   C     0.52163   0.65839   0.46587   0.00000  Uiso   1.00
C468   C     0.52893   0.65234   0.53098   0.00000  Uiso   1.00
C469   C     0.53104   0.61762   0.63438   0.00000  Uiso   1.00
C470   C     0.60630   0.75568   0.34932   0.00000  Uiso   1.00
C471   C     0.64314   0.72739   0.30091   0.00000  Uiso   1.00
C472   C     0.70602   0.75290   0.29058   0.00000  Uiso   1.00
C473   C     0.81062   0.77639   0.25484   0.00000  Uiso   1.00
C474   C     0.58266   0.83104   0.43648   0.00000  Uiso   1.00
C475   C     0.51959   0.84992   0.40119   0.00000  Uiso   1.00
C476   C     0.48842   0.91106   0.40360   0.00000  Uiso   1.00
C477   C     0.43121   0.91846   0.36788   0.00000  Uiso   1.00
C478   C     0.56537   0.77010   0.47572   0.00000  Uiso   1.00
C479   C     0.57271   0.76414   0.54081   0.00000  Uiso   1.00
C480   C     0.55405   0.70435   0.56784   0.00000  Uiso   1.00
C481   C     0.63138   0.80760   0.38611   0.00000  Uiso   1.00
C482   C     0.69422   0.83315   0.37586   0.00000  Uiso   1.00
C483   C     0.73115   0.80491   0.32744   0.00000  Uiso   1.00
H484   H     0.51697   0.69503   0.34010   0.00000  Uiso   1.00
H485   H     0.41795   0.76512   0.30020   0.00000  Uiso   1.00
H486   H     0.50223   0.61822   0.43738   0.00000  Uiso   1.00
H487   H     0.62372   0.68722   0.27245   0.00000  Uiso   1.00
H488   H     0.31921   0.86571   0.27221   0.00000  Uiso   1.00
H489   H     0.49695   0.55595   0.56146   0.00000  Uiso   1.00
H490   H     0.75313   0.70144   0.21368   0.00000  Uiso   1.00
H491   H     0.60218   0.87146   0.46512   0.00000  Uiso   1.00
H492   H     0.50783   0.95123   0.43208   0.00000  Uiso   1.00
H493   H     0.59212   0.80433   0.56927   0.00000  Uiso   1.00
H494   H     0.71361   0.87332   0.40434   0.00000  Uiso   1.00
H495   H     0.39216   0.01676   0.37925   0.00000  Uiso   1.00
H496   H     0.56990   0.70700   0.66851   0.00000  Uiso   1.00
H497   H     0.82609   0.85250   0.32072   0.00000  Uiso   1.00
O498   O     0.29207   0.99052   0.30175   0.00000  Uiso   1.00
O499   O     0.52527   0.58413   0.68124   0.00000  Uiso   1.00
O500   O     0.86138   0.77501   0.22495   0.00000  Uiso   1.00
N501   N     0.34933   0.89032   0.30192   0.00000  Uiso   1.00
N502   N     0.51550   0.60072   0.57236   0.00000  Uiso   1.00
N503   N     0.75502   0.73673   0.24722   0.00000  Uiso   1.00
N504   N     0.38859   0.97160   0.35952   0.00000  Uiso   1.00
N505   N     0.55475   0.68200   0.62996   0.00000  Uiso   1.00
N506   N     0.79427   0.81801   0.30482   0.00000  Uiso   1.00
C507   C     0.03649   0.23546   0.86874   0.00000  Uiso   1.00
C508   C     0.99451   0.29800   0.86439   0.00000  Uiso   1.00
C509   C     0.93734   0.30531   0.82866   0.00000  Uiso   1.00
C510   C     0.90609   0.36645   0.83102   0.00000  Uiso   1.00
C511   C     0.83707   0.45566   0.81871   0.00000  Uiso   1.00
C512   C     0.04029   0.21819   0.93893   0.00000  Uiso   1.00
C513   C     0.02163   0.15839   0.96587   0.00000  Uiso   1.00
C514   C     0.02893   0.15234   0.03098   0.00000  Uiso   1.00
C515   C     0.03104   0.11762   0.13438   0.00000  Uiso   1.00
C516   C     0.10630   0.25568   0.84932   0.00000  Uiso   1.00
C517   C     0.14314   0.22739   0.80091   0.00000  Uiso   1.00
C518   C     0.20602   0.25290   0.79058   0.00000  Uiso   1.00
C519   C     0.31062   0.27639   0.75484   0.00000  Uiso   1.00
C520   C     0.08266   0.33104   0.93648   0.00000  Uiso   1.00
C521   C     0.01959   0.34992   0.90119   0.00000  Uiso   1.00
C522   C     0.98842   0.41106   0.90360   0.00000  Uiso   1.00
C523   C     0.93121   0.41846   0.86788   0.00000  Uiso   1.00
C524   C     0.06537   0.27010   0.97572   0.00000  Uiso   1.00
C525   C     0.07271   0.26414   0.04081   0.00000  Uiso   1.00
C526   C     0.05405   0.20435   0.06784   0.00000  Uiso   1.00
C527   C     0.13138   0.30760   0.88611   0.00000  Uiso   1.00
C528   C     0.19422   0.33315   0.87586   0.00000  Uiso   1.00
C529   C     0.23115   0.30491   0.82744   0.00000  Uiso   1.00
H530   H     0.01697   0.19503   0.84010   0.00000  Uiso   1.00
H531   H     0.91795   0.26512   0.80020   0.00000  Uiso   1.00
H532   H     0.00223   0.11822   0.93738   0.00000  Uiso   1.00
H533   H     0.12372   0.18722   0.77245   0.00000  Uiso   1.00
H534   H     0.81921   0.36571   0.77221   0.00000  Uiso   1.00
H535   H     0.99695   0.05595   0.06146   0.00000  Uiso   1.00
H536   H     0.25313   0.20144   0.71368   0.00000  Uiso   1.00
H537   H     0.10218   0.37146   0.96512   0.00000  Uiso   1.00
H538   H     0.00783   0.45123   0.93208   0.00000  Uiso   1.00
H539   H     0.09212   0.30433   0.06927   0.00000  Uiso   1.00
H540   H     0.21361   0.37332   0.90434   0.00000  Uiso   1.00
H541   H     0.89216   0.51676   0.87925   0.00000  Uiso   1.00
H542   H     0.06990   0.20700   0.16851   0.00000  Uiso   1.00
H543   H     0.32609   0.35250   0.82072   0.00000  Uiso   1.00
O544   O     0.79207   0.49052   0.80175   0.00000  Uiso   1.00
O545   O     0.02527   0.08413   0.18124   0.00000  Uiso   1.00
O546   O     0.36138   0.27501   0.72495   0.00000  Uiso   1.00
N547   N     0.84933   0.39032   0.80192   0.00000  Uiso   1.00
N548   N     0.01550   0.10072   0.07236   0.00000  Uiso   1.00
N549   N     0.25502   0.23673   0.74722   0.00000  Uiso   1.00
N550   N     0.88859   0.47160   0.85952   0.00000  Uiso   1.00
N551   N     0.05475   0.18200   0.12996   0.00000  Uiso   1.00
N552   N     0.29427   0.31801   0.80482   0.00000  Uiso   1.00
C553   C     0.73546   0.96351   0.61874   0.00000  Uiso   1.00
C554   C     0.79800   0.00549   0.61439   0.00000  Uiso   1.00
C555   C     0.80531   0.06266   0.57866   0.00000  Uiso   1.00
C556   C     0.86645   0.09391   0.58102   0.00000  Uiso   1.00
C557   C     0.95566   0.16293   0.56871   0.00000  Uiso   1.00
C558   C     0.71819   0.95971   0.68893   0.00000  Uiso   1.00
C559   C     0.65839   0.97837   0.71587   0.00000  Uiso   1.00
C560   C     0.65234   0.97107   0.78098   0.00000  Uiso   1.00
C561   C     0.61762   0.96896   0.88438   0.00000  Uiso   1.00
C562   C     0.75568   0.89370   0.59932   0.00000  Uiso   1.00
C563   C     0.72739   0.85686   0.55091   0.00000  Uiso   1.00
C564   C     0.75290   0.79398   0.54058   0.00000  Uiso   1.00
C565   C     0.77639   0.68938   0.50484   0.00000  Uiso   1.00
C566   C     0.83104   0.91734   0.68648   0.00000  Uiso   1.00
C567   C     0.84992   0.98041   0.65119   0.00000  Uiso   1.00
C568   C     0.91106   0.01158   0.65360   0.00000  Uiso   1.00
C569   C     0.91846   0.06879   0.61788   0.00000  Uiso   1.00
C570   C     0.77010   0.93463   0.72572   0.00000  Uiso   1.00
C571   C     0.76414   0.92729   0.79081   0.00000  Uiso   1.00
C572   C     0.70435   0.94595   0.81784   0.00000  Uiso   1.00
C573   C     0.80760   0.86862   0.63611   0.00000  Uiso   1.00
C574   C     0.83315   0.80578   0.62586   0.00000  Uiso   1.00
C575   C     0.80491   0.76885   0.57744   0.00000  Uiso   1.00
H576   H     0.69503   0.98303   0.59010   0.00000  Uiso   1.00
H577   H     0.76512   0.08205   0.55020   0.00000  Uiso   1.00
H578   H     0.61822   0.99777   0.68738   0.00000  Uiso   1.00
H579   H     0.68722   0.87628   0.52245   0.00000  Uiso   1.00
H580   H     0.86571   0.18079   0.52221   0.00000  Uiso   1.00
H581   H     0.55595   0.00305   0.81146   0.00000  Uiso   1.00
H582   H     0.70144   0.74687   0.46368   0.00000  Uiso   1.00
H583   H     0.87146   0.89782   0.71512   0.00000  Uiso   1.00
H584   H     0.95123   0.99217   0.68208   0.00000  Uiso   1.00
H585   H     0.80433   0.90788   0.81927   0.00000  Uiso   1.00
H586   H     0.87332   0.78639   0.65434   0.00000  Uiso   1.00
H587   H     0.01676   0.10784   0.62925   0.00000  Uiso   1.00
H588   H     0.70700   0.93010   0.91851   0.00000  Uiso   1.00
H589   H     0.85250   0.67391   0.57072   0.00000  Uiso   1.00
O590   O     0.99052   0.20793   0.55175   0.00000  Uiso   1.00
O591   O     0.58413   0.97473   0.93124   0.00000  Uiso   1.00
O592   O     0.77501   0.63862   0.47495   0.00000  Uiso   1.00
N593   N     0.89032   0.15067   0.55192   0.00000  Uiso   1.00
N594   N     0.60072   0.98450   0.82236   0.00000  Uiso   1.00
N595   N     0.73673   0.74498   0.49722   0.00000  Uiso   1.00
N596   N     0.97160   0.11141   0.60952   0.00000  Uiso   1.00
N597   N     0.68200   0.94525   0.87996   0.00000  Uiso   1.00
N598   N     0.81801   0.70573   0.55482   0.00000  Uiso   1.00
C599   C     0.23546   0.46351   0.11874   0.00000  Uiso   1.00
C600   C     0.29800   0.50549   0.11439   0.00000  Uiso   1.00
C601   C     0.30531   0.56266   0.07866   0.00000  Uiso   1.00
C602   C     0.36645   0.59391   0.08102   0.00000  Uiso   1.00
C603   C     0.45566   0.66293   0.06871   0.00000  Uiso   1.00
C604   C     0.21819   0.45971   0.18893   0.00000  Uiso   1.00
C605   C     0.15839   0.47837   0.21587   0.00000  Uiso   1.00
C606   C     0.15234   0.47107   0.28098   0.00000  Uiso   1.00
C607   C     0.11762   0.46896   0.38438   0.00000  Uiso   1.00
C608   C     0.25568   0.39370   0.09932   0.00000  Uiso   1.00
C609   C     0.22739   0.35686   0.05091   0.00000  Uiso   1.00
C610   C     0.25290   0.29398   0.04058   0.00000  Uiso   1.00
C611   C     0.27639   0.18938   0.00484   0.00000  Uiso   1.00
C612   C     0.33104   0.41734   0.18648   0.00000  Uiso   1.00
C613   C     0.34992   0.48041   0.15119   0.00000  Uiso   1.00
C614   C     0.41106   0.51158   0.15360   0.00000  Uiso   1.00
C615   C     0.41846   0.56879   0.11788   0.00000  Uiso   1.00
C616   C     0.27010   0.43463   0.22572   0.00000  Uiso   1.00
C617   C     0.26414   0.42729   0.29081   0.00000  Uiso   1.00
C618   C     0.20435   0.44595   0.31784   0.00000  Uiso   1.00
C619   C     0.30760   0.36862   0.13611   0.00000  Uiso   1.00
C620   C     0.33315   0.30578   0.12586   0.00000  Uiso   1.00
C621   C     0.30491   0.26885   0.07744   0.00000  Uiso   1.00
H622   H     0.19503   0.48303   0.09010   0.00000  Uiso   1.00
H623   H     0.26512   0.58205   0.05020   0.00000  Uiso   1.00
H624   H     0.11822   0.49777   0.18738   0.00000  Uiso   1.00
H625   H     0.18722   0.37628   0.02245   0.00000  Uiso   1.00
H626   H     0.36571   0.68079   0.02221   0.00000  Uiso   1.00
H627   H     0.05595   0.50305   0.31146   0.00000  Uiso   1.00
H628   H     0.20144   0.24687   0.96368   0.00000  Uiso   1.00
H629   H     0.37146   0.39782   0.21512   0.00000  Uiso   1.00
H630   H     0.45123   0.49217   0.18208   0.00000  Uiso   1.00
H631   H     0.30433   0.40788   0.31927   0.00000  Uiso   1.00
H632   H     0.37332   0.28639   0.15434   0.00000  Uiso   1.00
H633   H     0.51676   0.60784   0.12925   0.00000  Uiso   1.00
H634   H     0.20700   0.43010   0.41851   0.00000  Uiso   1.00
H635   H     0.35250   0.17391   0.07072   0.00000  Uiso   1.00
O636   O     0.49052   0.70793   0.05175   0.00000  Uiso   1.00
O637   O     0.08413   0.47473   0.43124   0.00000  Uiso   1.00
O638   O     0.27501   0.13862   0.97495   0.00000  Uiso   1.00
N639   N     0.39032   0.65067   0.05192   0.00000  Uiso   1.00
N640   N     0.10072   0.48450   0.32236   0.00000  Uiso   1.00
N641   N     0.23673   0.24498   0.99722   0.00000  Uiso   1.00
N642   N     0.47160   0.61141   0.10952   0.00000  Uiso   1.00
N643   N     0.18200   0.44525   0.37996   0.00000  Uiso   1.00
N644   N     0.31801   0.20573   0.05482   0.00000  Uiso   1.00
C645   C     0.76454   0.53649   0.11874   0.00000  Uiso   1.00
C646   C     0.70200   0.49451   0.11439   0.00000  Uiso   1.00
C647   C     0.69469   0.43734   0.07866   0.00000  Uiso   1.00
C648   C     0.63355   0.40609   0.08102   0.00000  Uiso   1.00
C649   C     0.54434   0.33707   0.06871   0.00000  Uiso   1.00
C650   C     0.78181   0.54029   0.18893   0.00000  Uiso   1.00
C651   C     0.84161   0.52163   0.21587   0.00000  Uiso   1.00
C652   C     0.84766   0.52893   0.28098   0.00000  Uiso   1.00
C653   C     0.88238   0.53104   0.38438   0.00000  Uiso   1.00
C654   C     0.74432   0.60630   0.09932   0.00000  Uiso   1.00
C655   C     0.77261   0.64314   0.05091   0.00000  Uiso   1.00
C656   C     0.74710   0.70602   0.04058   0.00000  Uiso   1.00
C657   C     0.72361   0.81062   0.00484   0.00000  Uiso   1.00
C658   C     0.66896   0.58266   0.18648   0.00000  Uiso   1.00
C659   C     0.65008   0.51959   0.15119   0.00000  Uiso   1.00
C660   C     0.58894   0.48842   0.15360   0.00000  Uiso   1.00
C661   C     0.58154   0.43121   0.11788   0.00000  Uiso   1.00
C662   C     0.72990   0.56537   0.22572   0.00000  Uiso   1.00
C663   C     0.73586   0.57271   0.29081   0.00000  Uiso   1.00
C664   C     0.79565   0.55405   0.31784   0.00000  Uiso   1.00
C665   C     0.69240   0.63138   0.13611   0.00000  Uiso   1.00
C666   C     0.66685   0.69422   0.12586   0.00000  Uiso   1.00
C667   C     0.69509   0.73115   0.07744   0.00000  Uiso   1.00
H668   H     0.80497   0.51697   0.09010   0.00000  Uiso   1.00
H669   H     0.73488   0.41795   0.05020   0.00000  Uiso   1.00
H670   H     0.88178   0.50223   0.18738   0.00000  Uiso   1.00
H671   H     0.81278   0.62372   0.02245   0.00000  Uiso   1.00
H672   H     0.63429   0.31921   0.02221   0.00000  Uiso   1.00
H673   H     0.94405   0.49695   0.31146   0.00000  Uiso   1.00
H674   H     0.79856   0.75313   0.96368   0.00000  Uiso   1.00
H675   H     0.62854   0.60218   0.21512   0.00000  Uiso   1.00
H676   H     0.54877   0.50783   0.18208   0.00000  Uiso   1.00
H677   H     0.69567   0.59212   0.31927   0.00000  Uiso   1.00
H678   H     0.62668   0.71361   0.15434   0.00000  Uiso   1.00
H679   H     0.48324   0.39216   0.12925   0.00000  Uiso   1.00
H680   H     0.79300   0.56990   0.41851   0.00000  Uiso   1.00
H681   H     0.64750   0.82609   0.07072   0.00000  Uiso   1.00
O682   O     0.50948   0.29207   0.05175   0.00000  Uiso   1.00
O683   O     0.91587   0.52527   0.43124   0.00000  Uiso   1.00
O684   O     0.72499   0.86138   0.97495   0.00000  Uiso   1.00
N685   N     0.60968   0.34933   0.05192   0.00000  Uiso   1.00
N686   N     0.89928   0.51550   0.32236   0.00000  Uiso   1.00
N687   N     0.76327   0.75502   0.99722   0.00000  Uiso   1.00
N688   N     0.52840   0.38859   0.10952   0.00000  Uiso   1.00
N689   N     0.81800   0.55475   0.37996   0.00000  Uiso   1.00
N690   N     0.68199   0.79427   0.05482   0.00000  Uiso   1.00
C691   C     0.26454   0.03649   0.61874   0.00000  Uiso   1.00
C692   C     0.20200   0.99451   0.61439   0.00000  Uiso   1.00
C693   C     0.19469   0.93734   0.57866   0.00000  Uiso   1.00
C694   C     0.13355   0.90609   0.58102   0.00000  Uiso   1.00
C695   C     0.04434   0.83707   0.56871   0.00000  Uiso   1.00
C696   C     0.28181   0.04029   0.68893   0.00000  Uiso   1.00
C697   C     0.34161   0.02163   0.71587   0.00000  Uiso   1.00
C698   C     0.34766   0.02893   0.78098   0.00000  Uiso   1.00
C699   C     0.38238   0.03104   0.88438   0.00000  Uiso   1.00
C700   C     0.24432   0.10630   0.59932   0.00000  Uiso   1.00
C701   C     0.27261   0.14314   0.55091   0.00000  Uiso   1.00
C702   C     0.24710   0.20602   0.54058   0.00000  Uiso   1.00
C703   C     0.22361   0.31062   0.50484   0.00000  Uiso   1.00
C704   C     0.16896   0.08266   0.68648   0.00000  Uiso   1.00
C705   C     0.15008   0.01959   0.65119   0.00000  Uiso   1.00
C706   C     0.08894   0.98842   0.65360   0.00000  Uiso   1.00
C707   C     0.08154   0.93121   0.61788   0.00000  Uiso   1.00
C708   C     0.22990   0.06537   0.72572   0.00000  Uiso   1.00
C709   C     0.23586   0.07271   0.79081   0.00000  Uiso   1.00
C710   C     0.29565   0.05405   0.81784   0.00000  Uiso   1.00
C711   C     0.19240   0.13138   0.63611   0.00000  Uiso   1.00
C712   C     0.16685   0.19422   0.62586   0.00000  Uiso   1.00
C713   C     0.19509   0.23115   0.57744   0.00000  Uiso   1.00
H714   H     0.30497   0.01697   0.59010   0.00000  Uiso   1.00
H715   H     0.23488   0.91795   0.55020   0.00000  Uiso   1.00
H716   H     0.38178   0.00223   0.68738   0.00000  Uiso   1.00
H717   H     0.31278   0.12372   0.52245   0.00000  Uiso   1.00
H718   H     0.13429   0.81921   0.52221   0.00000  Uiso   1.00
H719   H     0.44405   0.99695   0.81146   0.00000  Uiso   1.00
H720   H     0.29856   0.25313   0.46368   0.00000  Uiso   1.00
H721   H     0.12854   0.10218   0.71512   0.00000  Uiso   1.00
H722   H     0.04877   0.00783   0.68208   0.00000  Uiso   1.00
H723   H     0.19567   0.09212   0.81927   0.00000  Uiso   1.00
H724   H     0.12668   0.21361   0.65434   0.00000  Uiso   1.00
H725   H     0.98324   0.89216   0.62925   0.00000  Uiso   1.00
H726   H     0.29300   0.06990   0.91851   0.00000  Uiso   1.00
H727   H     0.14750   0.32609   0.57072   0.00000  Uiso   1.00
O728   O     0.00948   0.79207   0.55175   0.00000  Uiso   1.00
O729   O     0.41587   0.02527   0.93124   0.00000  Uiso   1.00
O730   O     0.22499   0.36138   0.47495   0.00000  Uiso   1.00
N731   N     0.10968   0.84933   0.55192   0.00000  Uiso   1.00
N732   N     0.39928   0.01550   0.82236   0.00000  Uiso   1.00
N733   N     0.26327   0.25502   0.49722   0.00000  Uiso   1.00
N734   N     0.02840   0.88859   0.60952   0.00000  Uiso   1.00
N735   N     0.31800   0.05475   0.87996   0.00000  Uiso   1.00
N736   N     0.18199   0.29427   0.55482   0.00000  Uiso   1.00
