data_job_01405
_audit_creation_date              2018-12-19
_audit_creation_method            'Materials Studio'
_symmetry_space_group_name_H-M    'P1'
_symmetry_Int_Tables_number       1
_symmetry_cell_setting            triclinic
loop_
_symmetry_equiv_pos_as_xyz
  x,y,z
_cell_length_a                    23.4177
_cell_length_b                    23.4177
_cell_length_c                    23.1687
_cell_angle_alpha                 90.0000
_cell_angle_beta                  90.0000
_cell_angle_gamma                 90.0000
loop_
_atom_site_label
_atom_site_type_symbol
_atom_site_fract_x
_atom_site_fract_y
_atom_site_fract_z
_atom_site_U_iso_or_equiv
_atom_site_adp_type
_atom_site_occupancy
C1     C     0.89727   0.25769   0.94410   0.00000  Uiso   1.00
C2     C     0.84241   0.25612   0.90869   0.00000  Uiso   1.00
C3     C     0.79779   0.29493   0.91254   0.00000  Uiso   1.00
C4     C     0.75131   0.28608   0.87642   0.00000  Uiso   1.00
C5     C     0.66637   0.29062   0.82732   0.00000  Uiso   1.00
C6     C     0.90112   0.20001   0.97441   0.00000  Uiso   1.00
C7     C     0.90587   0.19166   0.03352   0.00000  Uiso   1.00
C8     C     0.90883   0.13557   0.05274   0.00000  Uiso   1.00
C9     C     0.91508   0.05302   0.10567   0.00000  Uiso   1.00
C10    C     0.94610   0.25886   0.90058   0.00000  Uiso   1.00
C11    C     0.98868   0.29997   0.89761   0.00000  Uiso   1.00
C12    C     0.02952   0.29343   0.85466   0.00000  Uiso   1.00
C13    C     0.10561   0.30224   0.79295   0.00000  Uiso   1.00
C14    C     0.89408   0.17295   0.87313   0.00000  Uiso   1.00
C15    C     0.84067   0.21009   0.87014   0.00000  Uiso   1.00
C16    C     0.79425   0.20118   0.83401   0.00000  Uiso   1.00
C17    C     0.74957   0.23997   0.83780   0.00000  Uiso   1.00
C18    C     0.89939   0.15399   0.93586   0.00000  Uiso   1.00
C19    C     0.90234   0.09790   0.95499   0.00000  Uiso   1.00
C20    C     0.90709   0.08946   0.01412   0.00000  Uiso   1.00
C21    C     0.94437   0.21283   0.86202   0.00000  Uiso   1.00
C22    C     0.98514   0.20622   0.81908   0.00000  Uiso   1.00
C23    C     0.02778   0.24732   0.81604   0.00000  Uiso   1.00
H24    H     0.89862   0.29352   0.97412   0.00000  Uiso   1.00
H25    H     0.79914   0.33054   0.94238   0.00000  Uiso   1.00
H26    H     0.90722   0.22728   0.06335   0.00000  Uiso   1.00
H27    H     0.99001   0.33558   0.92745   0.00000  Uiso   1.00
H28    H     0.68807   0.35128   0.89020   0.00000  Uiso   1.00
H29    H     0.91598   0.13355   0.14526   0.00000  Uiso   1.00
H30    H     0.09056   0.36193   0.85870   0.00000  Uiso   1.00
H31    H     0.89273   0.13711   0.84311   0.00000  Uiso   1.00
H32    H     0.79292   0.16555   0.80418   0.00000  Uiso   1.00
H33    H     0.90100   0.06230   0.92515   0.00000  Uiso   1.00
H34    H     0.98379   0.17060   0.78925   0.00000  Uiso   1.00
H35    H     0.68302   0.21736   0.77804   0.00000  Uiso   1.00
H36    H     0.91093   0.99964   0.03310   0.00000  Uiso   1.00
H37    H     0.08551   0.22802   0.74653   0.00000  Uiso   1.00
O38    O     0.61999   0.30584   0.81089   0.00000  Uiso   1.00
O39    O     0.91901   0.02020   0.14551   0.00000  Uiso   1.00
O40    O     0.14805   0.31982   0.76955   0.00000  Uiso   1.00
N41    N     0.70059   0.31586   0.86914   0.00000  Uiso   1.00
N42    N     0.91366   0.11231   0.10761   0.00000  Uiso   1.00
N43    N     0.07689   0.32581   0.83970   0.00000  Uiso   1.00
N44    N     0.69787   0.24381   0.80878   0.00000  Uiso   1.00
N45    N     0.91094   0.04025   0.04725   0.00000  Uiso   1.00
N46    N     0.07417   0.25375   0.77935   0.00000  Uiso   1.00
C47    C     0.10273   0.74231   0.94410   0.00000  Uiso   1.00
C48    C     0.15759   0.74388   0.90869   0.00000  Uiso   1.00
C49    C     0.20221   0.70507   0.91254   0.00000  Uiso   1.00
C50    C     0.24869   0.71392   0.87642   0.00000  Uiso   1.00
C51    C     0.33363   0.70938   0.82732   0.00000  Uiso   1.00
C52    C     0.09888   0.79999   0.97441   0.00000  Uiso   1.00
C53    C     0.09413   0.80834   0.03352   0.00000  Uiso   1.00
C54    C     0.09117   0.86443   0.05274   0.00000  Uiso   1.00
C55    C     0.08492   0.94698   0.10567   0.00000  Uiso   1.00
C56    C     0.05390   0.74114   0.90058   0.00000  Uiso   1.00
C57    C     0.01132   0.70003   0.89761   0.00000  Uiso   1.00
C58    C     0.97048   0.70657   0.85466   0.00000  Uiso   1.00
C59    C     0.89439   0.69776   0.79295   0.00000  Uiso   1.00
C60    C     0.10592   0.82705   0.87313   0.00000  Uiso   1.00
C61    C     0.15933   0.78991   0.87014   0.00000  Uiso   1.00
C62    C     0.20575   0.79882   0.83401   0.00000  Uiso   1.00
C63    C     0.25043   0.76003   0.83780   0.00000  Uiso   1.00
C64    C     0.10061   0.84601   0.93586   0.00000  Uiso   1.00
C65    C     0.09766   0.90210   0.95499   0.00000  Uiso   1.00
C66    C     0.09291   0.91054   0.01412   0.00000  Uiso   1.00
C67    C     0.05563   0.78717   0.86202   0.00000  Uiso   1.00
C68    C     0.01486   0.79378   0.81908   0.00000  Uiso   1.00
C69    C     0.97222   0.75268   0.81604   0.00000  Uiso   1.00
H70    H     0.10138   0.70648   0.97412   0.00000  Uiso   1.00
H71    H     0.20086   0.66946   0.94238   0.00000  Uiso   1.00
H72    H     0.09278   0.77272   0.06335   0.00000  Uiso   1.00
H73    H     0.00999   0.66442   0.92745   0.00000  Uiso   1.00
H74    H     0.31193   0.64872   0.89020   0.00000  Uiso   1.00
H75    H     0.08402   0.86645   0.14526   0.00000  Uiso   1.00
H76    H     0.90944   0.63807   0.85870   0.00000  Uiso   1.00
H77    H     0.10727   0.86289   0.84311   0.00000  Uiso   1.00
H78    H     0.20708   0.83445   0.80418   0.00000  Uiso   1.00
H79    H     0.09900   0.93770   0.92515   0.00000  Uiso   1.00
H80    H     0.01621   0.82940   0.78925   0.00000  Uiso   1.00
H81    H     0.31698   0.78264   0.77804   0.00000  Uiso   1.00
H82    H     0.08907   0.00036   0.03310   0.00000  Uiso   1.00
H83    H     0.91449   0.77198   0.74653   0.00000  Uiso   1.00
O84    O     0.38001   0.69416   0.81089   0.00000  Uiso   1.00
O85    O     0.08099   0.97980   0.14551   0.00000  Uiso   1.00
O86    O     0.85195   0.68018   0.76955   0.00000  Uiso   1.00
N87    N     0.29941   0.68414   0.86914   0.00000  Uiso   1.00
N88    N     0.08634   0.88769   0.10761   0.00000  Uiso   1.00
N89    N     0.92311   0.67419   0.83970   0.00000  Uiso   1.00
N90    N     0.30213   0.75619   0.80878   0.00000  Uiso   1.00
N91    N     0.08906   0.95975   0.04725   0.00000  Uiso   1.00
N92    N     0.92583   0.74625   0.77935   0.00000  Uiso   1.00
C93    C     0.24231   0.39727   0.94410   0.00000  Uiso   1.00
C94    C     0.24388   0.34241   0.90869   0.00000  Uiso   1.00
C95    C     0.20507   0.29779   0.91254   0.00000  Uiso   1.00
C96    C     0.21392   0.25131   0.87642   0.00000  Uiso   1.00
C97    C     0.20938   0.16637   0.82732   0.00000  Uiso   1.00
C98    C     0.29999   0.40112   0.97441   0.00000  Uiso   1.00
C99    C     0.30834   0.40587   0.03352   0.00000  Uiso   1.00
C100   C     0.36443   0.40883   0.05274   0.00000  Uiso   1.00
C101   C     0.44698   0.41508   0.10567   0.00000  Uiso   1.00
C102   C     0.24114   0.44610   0.90058   0.00000  Uiso   1.00
C103   C     0.20003   0.48868   0.89761   0.00000  Uiso   1.00
C104   C     0.20657   0.52952   0.85466   0.00000  Uiso   1.00
C105   C     0.19776   0.60561   0.79295   0.00000  Uiso   1.00
C106   C     0.32705   0.39408   0.87313   0.00000  Uiso   1.00
C107   C     0.28991   0.34067   0.87014   0.00000  Uiso   1.00
C108   C     0.29882   0.29425   0.83401   0.00000  Uiso   1.00
C109   C     0.26003   0.24957   0.83780   0.00000  Uiso   1.00
C110   C     0.34601   0.39939   0.93586   0.00000  Uiso   1.00
C111   C     0.40210   0.40234   0.95499   0.00000  Uiso   1.00
C112   C     0.41054   0.40709   0.01412   0.00000  Uiso   1.00
C113   C     0.28717   0.44437   0.86202   0.00000  Uiso   1.00
C114   C     0.29378   0.48514   0.81908   0.00000  Uiso   1.00
C115   C     0.25268   0.52778   0.81604   0.00000  Uiso   1.00
H116   H     0.20648   0.39862   0.97412   0.00000  Uiso   1.00
H117   H     0.16946   0.29914   0.94238   0.00000  Uiso   1.00
H118   H     0.27272   0.40722   0.06335   0.00000  Uiso   1.00
H119   H     0.16442   0.49001   0.92745   0.00000  Uiso   1.00
H120   H     0.14872   0.18807   0.89020   0.00000  Uiso   1.00
H121   H     0.36645   0.41598   0.14526   0.00000  Uiso   1.00
H122   H     0.13807   0.59056   0.85870   0.00000  Uiso   1.00
H123   H     0.36289   0.39273   0.84311   0.00000  Uiso   1.00
H124   H     0.33445   0.29292   0.80418   0.00000  Uiso   1.00
H125   H     0.43770   0.40100   0.92515   0.00000  Uiso   1.00
H126   H     0.32940   0.48379   0.78925   0.00000  Uiso   1.00
H127   H     0.28264   0.18302   0.77804   0.00000  Uiso   1.00
H128   H     0.50036   0.41093   0.03310   0.00000  Uiso   1.00
H129   H     0.27198   0.58551   0.74653   0.00000  Uiso   1.00
O130   O     0.19416   0.11999   0.81089   0.00000  Uiso   1.00
O131   O     0.47980   0.41901   0.14551   0.00000  Uiso   1.00
O132   O     0.18018   0.64805   0.76955   0.00000  Uiso   1.00
N133   N     0.18414   0.20059   0.86914   0.00000  Uiso   1.00
N134   N     0.38769   0.41366   0.10761   0.00000  Uiso   1.00
N135   N     0.17419   0.57689   0.83970   0.00000  Uiso   1.00
N136   N     0.25619   0.19787   0.80878   0.00000  Uiso   1.00
N137   N     0.45975   0.41094   0.04725   0.00000  Uiso   1.00
N138   N     0.24625   0.57417   0.77935   0.00000  Uiso   1.00
C139   C     0.75769   0.60273   0.94410   0.00000  Uiso   1.00
C140   C     0.75612   0.65759   0.90869   0.00000  Uiso   1.00
C141   C     0.79493   0.70221   0.91254   0.00000  Uiso   1.00
C142   C     0.78608   0.74869   0.87642   0.00000  Uiso   1.00
C143   C     0.79062   0.83363   0.82732   0.00000  Uiso   1.00
C144   C     0.70001   0.59888   0.97441   0.00000  Uiso   1.00
C145   C     0.69166   0.59413   0.03352   0.00000  Uiso   1.00
C146   C     0.63557   0.59117   0.05274   0.00000  Uiso   1.00
C147   C     0.55302   0.58492   0.10567   0.00000  Uiso   1.00
C148   C     0.75886   0.55390   0.90058   0.00000  Uiso   1.00
C149   C     0.79997   0.51132   0.89761   0.00000  Uiso   1.00
C150   C     0.79343   0.47048   0.85466   0.00000  Uiso   1.00
C151   C     0.80224   0.39439   0.79295   0.00000  Uiso   1.00
C152   C     0.67295   0.60592   0.87313   0.00000  Uiso   1.00
C153   C     0.71009   0.65933   0.87014   0.00000  Uiso   1.00
C154   C     0.70118   0.70575   0.83401   0.00000  Uiso   1.00
C155   C     0.73997   0.75043   0.83780   0.00000  Uiso   1.00
C156   C     0.65399   0.60061   0.93586   0.00000  Uiso   1.00
C157   C     0.59790   0.59766   0.95499   0.00000  Uiso   1.00
C158   C     0.58946   0.59291   0.01412   0.00000  Uiso   1.00
C159   C     0.71283   0.55563   0.86202   0.00000  Uiso   1.00
C160   C     0.70622   0.51486   0.81908   0.00000  Uiso   1.00
C161   C     0.74732   0.47222   0.81604   0.00000  Uiso   1.00
H162   H     0.79352   0.60138   0.97412   0.00000  Uiso   1.00
H163   H     0.83054   0.70086   0.94238   0.00000  Uiso   1.00
H164   H     0.72728   0.59278   0.06335   0.00000  Uiso   1.00
H165   H     0.83558   0.50999   0.92745   0.00000  Uiso   1.00
H166   H     0.85128   0.81193   0.89020   0.00000  Uiso   1.00
H167   H     0.63355   0.58402   0.14526   0.00000  Uiso   1.00
H168   H     0.86193   0.40944   0.85870   0.00000  Uiso   1.00
H169   H     0.63711   0.60727   0.84311   0.00000  Uiso   1.00
H170   H     0.66555   0.70708   0.80418   0.00000  Uiso   1.00
H171   H     0.56230   0.59900   0.92515   0.00000  Uiso   1.00
H172   H     0.67060   0.51621   0.78925   0.00000  Uiso   1.00
H173   H     0.71736   0.81698   0.77804   0.00000  Uiso   1.00
H174   H     0.49964   0.58907   0.03310   0.00000  Uiso   1.00
H175   H     0.72802   0.41449   0.74653   0.00000  Uiso   1.00
O176   O     0.80584   0.88001   0.81089   0.00000  Uiso   1.00
O177   O     0.52020   0.58099   0.14551   0.00000  Uiso   1.00
O178   O     0.81982   0.35195   0.76955   0.00000  Uiso   1.00
N179   N     0.81586   0.79941   0.86914   0.00000  Uiso   1.00
N180   N     0.61231   0.58634   0.10761   0.00000  Uiso   1.00
N181   N     0.82581   0.42311   0.83970   0.00000  Uiso   1.00
N182   N     0.74381   0.80213   0.80878   0.00000  Uiso   1.00
N183   N     0.54025   0.58906   0.04725   0.00000  Uiso   1.00
N184   N     0.75375   0.42583   0.77935   0.00000  Uiso   1.00
C185   C     0.60273   0.75769   0.55590   0.00000  Uiso   1.00
C186   C     0.65759   0.75612   0.59131   0.00000  Uiso   1.00
C187   C     0.70221   0.79493   0.58746   0.00000  Uiso   1.00
C188   C     0.74869   0.78608   0.62358   0.00000  Uiso   1.00
C189   C     0.83363   0.79062   0.67268   0.00000  Uiso   1.00
C190   C     0.59888   0.70001   0.52559   0.00000  Uiso   1.00
C191   C     0.59413   0.69166   0.46648   0.00000  Uiso   1.00
C192   C     0.59117   0.63557   0.44726   0.00000  Uiso   1.00
C193   C     0.58492   0.55302   0.39433   0.00000  Uiso   1.00
C194   C     0.55390   0.75886   0.59942   0.00000  Uiso   1.00
C195   C     0.51132   0.79997   0.60239   0.00000  Uiso   1.00
C196   C     0.47048   0.79343   0.64534   0.00000  Uiso   1.00
C197   C     0.39439   0.80224   0.70705   0.00000  Uiso   1.00
C198   C     0.60592   0.67295   0.62687   0.00000  Uiso   1.00
C199   C     0.65933   0.71009   0.62986   0.00000  Uiso   1.00
C200   C     0.70575   0.70118   0.66599   0.00000  Uiso   1.00
C201   C     0.75043   0.73997   0.66220   0.00000  Uiso   1.00
C202   C     0.60061   0.65399   0.56414   0.00000  Uiso   1.00
C203   C     0.59766   0.59790   0.54501   0.00000  Uiso   1.00
C204   C     0.59291   0.58946   0.48588   0.00000  Uiso   1.00
C205   C     0.55563   0.71283   0.63798   0.00000  Uiso   1.00
C206   C     0.51486   0.70622   0.68092   0.00000  Uiso   1.00
C207   C     0.47222   0.74732   0.68396   0.00000  Uiso   1.00
H208   H     0.60138   0.79352   0.52588   0.00000  Uiso   1.00
H209   H     0.70086   0.83054   0.55762   0.00000  Uiso   1.00
H210   H     0.59278   0.72728   0.43665   0.00000  Uiso   1.00
H211   H     0.50999   0.83558   0.57255   0.00000  Uiso   1.00
H212   H     0.81193   0.85128   0.60980   0.00000  Uiso   1.00
H213   H     0.58402   0.63355   0.35474   0.00000  Uiso   1.00
H214   H     0.40944   0.86193   0.64130   0.00000  Uiso   1.00
H215   H     0.60727   0.63711   0.65689   0.00000  Uiso   1.00
H216   H     0.70708   0.66555   0.69582   0.00000  Uiso   1.00
H217   H     0.59900   0.56230   0.57485   0.00000  Uiso   1.00
H218   H     0.51621   0.67060   0.71075   0.00000  Uiso   1.00
H219   H     0.81698   0.71736   0.72196   0.00000  Uiso   1.00
H220   H     0.58907   0.49964   0.46690   0.00000  Uiso   1.00
H221   H     0.41449   0.72802   0.75347   0.00000  Uiso   1.00
O222   O     0.88001   0.80584   0.68911   0.00000  Uiso   1.00
O223   O     0.58099   0.52020   0.35449   0.00000  Uiso   1.00
O224   O     0.35195   0.81982   0.73045   0.00000  Uiso   1.00
N225   N     0.79941   0.81586   0.63086   0.00000  Uiso   1.00
N226   N     0.58634   0.61231   0.39239   0.00000  Uiso   1.00
N227   N     0.42311   0.82581   0.66030   0.00000  Uiso   1.00
N228   N     0.80213   0.74381   0.69122   0.00000  Uiso   1.00
N229   N     0.58906   0.54025   0.45275   0.00000  Uiso   1.00
N230   N     0.42583   0.75375   0.72065   0.00000  Uiso   1.00
C231   C     0.39727   0.24231   0.55590   0.00000  Uiso   1.00
C232   C     0.34241   0.24388   0.59131   0.00000  Uiso   1.00
C233   C     0.29779   0.20507   0.58746   0.00000  Uiso   1.00
C234   C     0.25131   0.21392   0.62358   0.00000  Uiso   1.00
C235   C     0.16637   0.20938   0.67268   0.00000  Uiso   1.00
C236   C     0.40112   0.29999   0.52559   0.00000  Uiso   1.00
C237   C     0.40587   0.30834   0.46648   0.00000  Uiso   1.00
C238   C     0.40883   0.36443   0.44726   0.00000  Uiso   1.00
C239   C     0.41508   0.44698   0.39433   0.00000  Uiso   1.00
C240   C     0.44610   0.24114   0.59942   0.00000  Uiso   1.00
C241   C     0.48868   0.20003   0.60239   0.00000  Uiso   1.00
C242   C     0.52952   0.20657   0.64534   0.00000  Uiso   1.00
C243   C     0.60561   0.19776   0.70705   0.00000  Uiso   1.00
C244   C     0.39408   0.32705   0.62687   0.00000  Uiso   1.00
C245   C     0.34067   0.28991   0.62986   0.00000  Uiso   1.00
C246   C     0.29425   0.29882   0.66599   0.00000  Uiso   1.00
C247   C     0.24957   0.26003   0.66220   0.00000  Uiso   1.00
C248   C     0.39939   0.34601   0.56414   0.00000  Uiso   1.00
C249   C     0.40234   0.40210   0.54501   0.00000  Uiso   1.00
C250   C     0.40709   0.41054   0.48588   0.00000  Uiso   1.00
C251   C     0.44437   0.28717   0.63798   0.00000  Uiso   1.00
C252   C     0.48514   0.29378   0.68092   0.00000  Uiso   1.00
C253   C     0.52778   0.25268   0.68396   0.00000  Uiso   1.00
H254   H     0.39862   0.20648   0.52588   0.00000  Uiso   1.00
H255   H     0.29914   0.16946   0.55762   0.00000  Uiso   1.00
H256   H     0.40722   0.27272   0.43665   0.00000  Uiso   1.00
H257   H     0.49001   0.16442   0.57255   0.00000  Uiso   1.00
H258   H     0.18807   0.14872   0.60980   0.00000  Uiso   1.00
H259   H     0.41598   0.36645   0.35474   0.00000  Uiso   1.00
H260   H     0.59056   0.13807   0.64130   0.00000  Uiso   1.00
H261   H     0.39273   0.36289   0.65689   0.00000  Uiso   1.00
H262   H     0.29292   0.33445   0.69582   0.00000  Uiso   1.00
H263   H     0.40100   0.43770   0.57485   0.00000  Uiso   1.00
H264   H     0.48379   0.32940   0.71075   0.00000  Uiso   1.00
H265   H     0.18302   0.28264   0.72196   0.00000  Uiso   1.00
H266   H     0.41093   0.50036   0.46690   0.00000  Uiso   1.00
H267   H     0.58551   0.27198   0.75347   0.00000  Uiso   1.00
O268   O     0.11999   0.19416   0.68911   0.00000  Uiso   1.00
O269   O     0.41901   0.47980   0.35449   0.00000  Uiso   1.00
O270   O     0.64805   0.18018   0.73045   0.00000  Uiso   1.00
N271   N     0.20059   0.18414   0.63086   0.00000  Uiso   1.00
N272   N     0.41366   0.38769   0.39239   0.00000  Uiso   1.00
N273   N     0.57689   0.17419   0.66030   0.00000  Uiso   1.00
N274   N     0.19787   0.25619   0.69122   0.00000  Uiso   1.00
N275   N     0.41094   0.45975   0.45275   0.00000  Uiso   1.00
N276   N     0.57417   0.24625   0.72065   0.00000  Uiso   1.00
C277   C     0.25769   0.89727   0.55590   0.00000  Uiso   1.00
C278   C     0.25612   0.84241   0.59131   0.00000  Uiso   1.00
C279   C     0.29493   0.79779   0.58746   0.00000  Uiso   1.00
C280   C     0.28608   0.75131   0.62358   0.00000  Uiso   1.00
C281   C     0.29062   0.66637   0.67268   0.00000  Uiso   1.00
C282   C     0.20001   0.90112   0.52559   0.00000  Uiso   1.00
C283   C     0.19166   0.90587   0.46648   0.00000  Uiso   1.00
C284   C     0.13557   0.90883   0.44726   0.00000  Uiso   1.00
C285   C     0.05302   0.91508   0.39433   0.00000  Uiso   1.00
C286   C     0.25886   0.94610   0.59942   0.00000  Uiso   1.00
C287   C     0.29997   0.98868   0.60239   0.00000  Uiso   1.00
C288   C     0.29343   0.02952   0.64534   0.00000  Uiso   1.00
C289   C     0.30224   0.10561   0.70705   0.00000  Uiso   1.00
C290   C     0.17295   0.89408   0.62687   0.00000  Uiso   1.00
C291   C     0.21009   0.84067   0.62986   0.00000  Uiso   1.00
C292   C     0.20118   0.79425   0.66599   0.00000  Uiso   1.00
C293   C     0.23997   0.74957   0.66220   0.00000  Uiso   1.00
C294   C     0.15399   0.89939   0.56414   0.00000  Uiso   1.00
C295   C     0.09790   0.90234   0.54501   0.00000  Uiso   1.00
C296   C     0.08946   0.90709   0.48588   0.00000  Uiso   1.00
C297   C     0.21283   0.94437   0.63798   0.00000  Uiso   1.00
C298   C     0.20622   0.98514   0.68092   0.00000  Uiso   1.00
C299   C     0.24732   0.02778   0.68396   0.00000  Uiso   1.00
H300   H     0.29352   0.89862   0.52588   0.00000  Uiso   1.00
H301   H     0.33054   0.79914   0.55762   0.00000  Uiso   1.00
H302   H     0.22728   0.90722   0.43665   0.00000  Uiso   1.00
H303   H     0.33558   0.99001   0.57255   0.00000  Uiso   1.00
H304   H     0.35128   0.68807   0.60980   0.00000  Uiso   1.00
H305   H     0.13355   0.91598   0.35474   0.00000  Uiso   1.00
H306   H     0.36193   0.09056   0.64130   0.00000  Uiso   1.00
H307   H     0.13711   0.89273   0.65689   0.00000  Uiso   1.00
H308   H     0.16555   0.79292   0.69582   0.00000  Uiso   1.00
H309   H     0.06230   0.90100   0.57485   0.00000  Uiso   1.00
H310   H     0.17060   0.98379   0.71075   0.00000  Uiso   1.00
H311   H     0.21736   0.68302   0.72196   0.00000  Uiso   1.00
H312   H     0.99964   0.91093   0.46690   0.00000  Uiso   1.00
H313   H     0.22802   0.08551   0.75347   0.00000  Uiso   1.00
O314   O     0.30584   0.61999   0.68911   0.00000  Uiso   1.00
O315   O     0.02020   0.91901   0.35449   0.00000  Uiso   1.00
O316   O     0.31982   0.14805   0.73045   0.00000  Uiso   1.00
N317   N     0.31586   0.70059   0.63086   0.00000  Uiso   1.00
N318   N     0.11231   0.91366   0.39239   0.00000  Uiso   1.00
N319   N     0.32581   0.07689   0.66030   0.00000  Uiso   1.00
N320   N     0.24381   0.69787   0.69122   0.00000  Uiso   1.00
N321   N     0.04025   0.91094   0.45275   0.00000  Uiso   1.00
N322   N     0.25375   0.07417   0.72065   0.00000  Uiso   1.00
C323   C     0.74231   0.10273   0.55590   0.00000  Uiso   1.00
C324   C     0.74388   0.15759   0.59131   0.00000  Uiso   1.00
C325   C     0.70507   0.20221   0.58746   0.00000  Uiso   1.00
C326   C     0.71392   0.24869   0.62358   0.00000  Uiso   1.00
C327   C     0.70938   0.33363   0.67268   0.00000  Uiso   1.00
C328   C     0.79999   0.09888   0.52559   0.00000  Uiso   1.00
C329   C     0.80834   0.09413   0.46648   0.00000  Uiso   1.00
C330   C     0.86443   0.09117   0.44726   0.00000  Uiso   1.00
C331   C     0.94698   0.08492   0.39433   0.00000  Uiso   1.00
C332   C     0.74114   0.05390   0.59942   0.00000  Uiso   1.00
C333   C     0.70003   0.01132   0.60239   0.00000  Uiso   1.00
C334   C     0.70657   0.97048   0.64534   0.00000  Uiso   1.00
C335   C     0.69776   0.89439   0.70705   0.00000  Uiso   1.00
C336   C     0.82705   0.10592   0.62687   0.00000  Uiso   1.00
C337   C     0.78991   0.15933   0.62986   0.00000  Uiso   1.00
C338   C     0.79882   0.20575   0.66599   0.00000  Uiso   1.00
C339   C     0.76003   0.25043   0.66220   0.00000  Uiso   1.00
C340   C     0.84601   0.10061   0.56414   0.00000  Uiso   1.00
C341   C     0.90210   0.09766   0.54501   0.00000  Uiso   1.00
C342   C     0.91054   0.09291   0.48588   0.00000  Uiso   1.00
C343   C     0.78717   0.05563   0.63798   0.00000  Uiso   1.00
C344   C     0.79378   0.01486   0.68092   0.00000  Uiso   1.00
C345   C     0.75268   0.97222   0.68396   0.00000  Uiso   1.00
H346   H     0.70648   0.10138   0.52588   0.00000  Uiso   1.00
H347   H     0.66946   0.20086   0.55762   0.00000  Uiso   1.00
H348   H     0.77272   0.09278   0.43665   0.00000  Uiso   1.00
H349   H     0.66442   0.00999   0.57255   0.00000  Uiso   1.00
H350   H     0.64872   0.31193   0.60980   0.00000  Uiso   1.00
H351   H     0.86645   0.08402   0.35474   0.00000  Uiso   1.00
H352   H     0.63807   0.90944   0.64130   0.00000  Uiso   1.00
H353   H     0.86289   0.10727   0.65689   0.00000  Uiso   1.00
H354   H     0.83445   0.20708   0.69582   0.00000  Uiso   1.00
H355   H     0.93770   0.09900   0.57485   0.00000  Uiso   1.00
H356   H     0.82940   0.01621   0.71075   0.00000  Uiso   1.00
H357   H     0.78264   0.31698   0.72196   0.00000  Uiso   1.00
H358   H     0.00036   0.08907   0.46690   0.00000  Uiso   1.00
H359   H     0.77198   0.91449   0.75347   0.00000  Uiso   1.00
O360   O     0.69416   0.38001   0.68911   0.00000  Uiso   1.00
O361   O     0.97980   0.08099   0.35449   0.00000  Uiso   1.00
O362   O     0.68018   0.85195   0.73045   0.00000  Uiso   1.00
N363   N     0.68414   0.29941   0.63086   0.00000  Uiso   1.00
N364   N     0.88769   0.08634   0.39239   0.00000  Uiso   1.00
N365   N     0.67419   0.92311   0.66030   0.00000  Uiso   1.00
N366   N     0.75619   0.30213   0.69122   0.00000  Uiso   1.00
N367   N     0.95975   0.08906   0.45275   0.00000  Uiso   1.00
N368   N     0.74625   0.92583   0.72065   0.00000  Uiso   1.00
C369   C     0.60273   0.24231   0.05590   0.00000  Uiso   1.00
C370   C     0.65759   0.24388   0.09131   0.00000  Uiso   1.00
C371   C     0.70221   0.20507   0.08746   0.00000  Uiso   1.00
C372   C     0.74869   0.21392   0.12358   0.00000  Uiso   1.00
C373   C     0.83363   0.20938   0.17268   0.00000  Uiso   1.00
C374   C     0.59888   0.29999   0.02559   0.00000  Uiso   1.00
C375   C     0.59413   0.30834   0.96648   0.00000  Uiso   1.00
C376   C     0.59117   0.36443   0.94726   0.00000  Uiso   1.00
C377   C     0.58492   0.44698   0.89433   0.00000  Uiso   1.00
C378   C     0.55390   0.24114   0.09942   0.00000  Uiso   1.00
C379   C     0.51132   0.20003   0.10239   0.00000  Uiso   1.00
C380   C     0.47048   0.20657   0.14534   0.00000  Uiso   1.00
C381   C     0.39439   0.19776   0.20705   0.00000  Uiso   1.00
C382   C     0.60592   0.32705   0.12687   0.00000  Uiso   1.00
C383   C     0.65933   0.28991   0.12986   0.00000  Uiso   1.00
C384   C     0.70575   0.29882   0.16599   0.00000  Uiso   1.00
C385   C     0.75043   0.26003   0.16220   0.00000  Uiso   1.00
C386   C     0.60061   0.34601   0.06414   0.00000  Uiso   1.00
C387   C     0.59766   0.40210   0.04501   0.00000  Uiso   1.00
C388   C     0.59291   0.41054   0.98588   0.00000  Uiso   1.00
C389   C     0.55563   0.28717   0.13798   0.00000  Uiso   1.00
C390   C     0.51486   0.29378   0.18092   0.00000  Uiso   1.00
C391   C     0.47222   0.25268   0.18396   0.00000  Uiso   1.00
H392   H     0.60138   0.20648   0.02588   0.00000  Uiso   1.00
H393   H     0.70086   0.16946   0.05762   0.00000  Uiso   1.00
H394   H     0.59278   0.27272   0.93665   0.00000  Uiso   1.00
H395   H     0.50999   0.16442   0.07255   0.00000  Uiso   1.00
H396   H     0.81193   0.14872   0.10980   0.00000  Uiso   1.00
H397   H     0.58402   0.36645   0.85474   0.00000  Uiso   1.00
H398   H     0.40944   0.13807   0.14130   0.00000  Uiso   1.00
H399   H     0.60727   0.36289   0.15689   0.00000  Uiso   1.00
H400   H     0.70708   0.33445   0.19582   0.00000  Uiso   1.00
H401   H     0.59900   0.43770   0.07485   0.00000  Uiso   1.00
H402   H     0.51621   0.32940   0.21075   0.00000  Uiso   1.00
H403   H     0.81698   0.28264   0.22196   0.00000  Uiso   1.00
H404   H     0.58907   0.50036   0.96690   0.00000  Uiso   1.00
H405   H     0.41449   0.27198   0.25347   0.00000  Uiso   1.00
O406   O     0.88001   0.19416   0.18911   0.00000  Uiso   1.00
O407   O     0.58099   0.47980   0.85449   0.00000  Uiso   1.00
O408   O     0.35195   0.18018   0.23045   0.00000  Uiso   1.00
N409   N     0.79941   0.18414   0.13086   0.00000  Uiso   1.00
N410   N     0.58634   0.38769   0.89239   0.00000  Uiso   1.00
N411   N     0.42311   0.17419   0.16030   0.00000  Uiso   1.00
N412   N     0.80213   0.25619   0.19122   0.00000  Uiso   1.00
N413   N     0.58906   0.45975   0.95275   0.00000  Uiso   1.00
N414   N     0.42583   0.24625   0.22065   0.00000  Uiso   1.00
C415   C     0.39727   0.75769   0.05590   0.00000  Uiso   1.00
C416   C     0.34241   0.75612   0.09131   0.00000  Uiso   1.00
C417   C     0.29779   0.79493   0.08746   0.00000  Uiso   1.00
C418   C     0.25131   0.78608   0.12358   0.00000  Uiso   1.00
C419   C     0.16637   0.79062   0.17268   0.00000  Uiso   1.00
C420   C     0.40112   0.70001   0.02559   0.00000  Uiso   1.00
C421   C     0.40587   0.69166   0.96648   0.00000  Uiso   1.00
C422   C     0.40883   0.63557   0.94726   0.00000  Uiso   1.00
C423   C     0.41508   0.55302   0.89433   0.00000  Uiso   1.00
C424   C     0.44610   0.75886   0.09942   0.00000  Uiso   1.00
C425   C     0.48868   0.79997   0.10239   0.00000  Uiso   1.00
C426   C     0.52952   0.79343   0.14534   0.00000  Uiso   1.00
C427   C     0.60561   0.80224   0.20705   0.00000  Uiso   1.00
C428   C     0.39408   0.67295   0.12687   0.00000  Uiso   1.00
C429   C     0.34067   0.71009   0.12986   0.00000  Uiso   1.00
C430   C     0.29425   0.70118   0.16599   0.00000  Uiso   1.00
C431   C     0.24957   0.73997   0.16220   0.00000  Uiso   1.00
C432   C     0.39939   0.65399   0.06414   0.00000  Uiso   1.00
C433   C     0.40234   0.59790   0.04501   0.00000  Uiso   1.00
C434   C     0.40709   0.58946   0.98588   0.00000  Uiso   1.00
C435   C     0.44437   0.71283   0.13798   0.00000  Uiso   1.00
C436   C     0.48514   0.70622   0.18092   0.00000  Uiso   1.00
C437   C     0.52778   0.74732   0.18396   0.00000  Uiso   1.00
H438   H     0.39862   0.79352   0.02588   0.00000  Uiso   1.00
H439   H     0.29914   0.83054   0.05762   0.00000  Uiso   1.00
H440   H     0.40722   0.72728   0.93665   0.00000  Uiso   1.00
H441   H     0.49001   0.83558   0.07255   0.00000  Uiso   1.00
H442   H     0.18807   0.85128   0.10980   0.00000  Uiso   1.00
H443   H     0.41598   0.63355   0.85474   0.00000  Uiso   1.00
H444   H     0.59056   0.86193   0.14130   0.00000  Uiso   1.00
H445   H     0.39273   0.63711   0.15689   0.00000  Uiso   1.00
H446   H     0.29292   0.66555   0.19582   0.00000  Uiso   1.00
H447   H     0.40100   0.56230   0.07485   0.00000  Uiso   1.00
H448   H     0.48379   0.67060   0.21075   0.00000  Uiso   1.00
H449   H     0.18302   0.71736   0.22196   0.00000  Uiso   1.00
H450   H     0.41093   0.49964   0.96690   0.00000  Uiso   1.00
H451   H     0.58551   0.72802   0.25347   0.00000  Uiso   1.00
O452   O     0.11999   0.80584   0.18911   0.00000  Uiso   1.00
O453   O     0.41901   0.52020   0.85449   0.00000  Uiso   1.00
O454   O     0.64805   0.81982   0.23045   0.00000  Uiso   1.00
N455   N     0.20059   0.81586   0.13086   0.00000  Uiso   1.00
N456   N     0.41366   0.61231   0.89239   0.00000  Uiso   1.00
N457   N     0.57689   0.82581   0.16030   0.00000  Uiso   1.00
N458   N     0.19787   0.74381   0.19122   0.00000  Uiso   1.00
N459   N     0.41094   0.54025   0.95275   0.00000  Uiso   1.00
N460   N     0.57417   0.75375   0.22065   0.00000  Uiso   1.00
C461   C     0.25769   0.10273   0.05590   0.00000  Uiso   1.00
C462   C     0.25612   0.15759   0.09131   0.00000  Uiso   1.00
C463   C     0.29493   0.20221   0.08746   0.00000  Uiso   1.00
C464   C     0.28608   0.24869   0.12358   0.00000  Uiso   1.00
C465   C     0.29062   0.33363   0.17268   0.00000  Uiso   1.00
C466   C     0.20001   0.09888   0.02559   0.00000  Uiso   1.00
C467   C     0.19166   0.09413   0.96648   0.00000  Uiso   1.00
C468   C     0.13557   0.09117   0.94726   0.00000  Uiso   1.00
C469   C     0.05302   0.08492   0.89433   0.00000  Uiso   1.00
C470   C     0.25886   0.05390   0.09942   0.00000  Uiso   1.00
C471   C     0.29997   0.01132   0.10239   0.00000  Uiso   1.00
C472   C     0.29343   0.97048   0.14534   0.00000  Uiso   1.00
C473   C     0.30224   0.89439   0.20705   0.00000  Uiso   1.00
C474   C     0.17295   0.10592   0.12687   0.00000  Uiso   1.00
C475   C     0.21009   0.15933   0.12986   0.00000  Uiso   1.00
C476   C     0.20118   0.20575   0.16599   0.00000  Uiso   1.00
C477   C     0.23997   0.25043   0.16220   0.00000  Uiso   1.00
C478   C     0.15399   0.10061   0.06414   0.00000  Uiso   1.00
C479   C     0.09790   0.09766   0.04501   0.00000  Uiso   1.00
C480   C     0.08946   0.09291   0.98588   0.00000  Uiso   1.00
C481   C     0.21283   0.05563   0.13798   0.00000  Uiso   1.00
C482   C     0.20622   0.01486   0.18092   0.00000  Uiso   1.00
C483   C     0.24732   0.97222   0.18396   0.00000  Uiso   1.00
H484   H     0.29352   0.10138   0.02588   0.00000  Uiso   1.00
H485   H     0.33054   0.20086   0.05762   0.00000  Uiso   1.00
H486   H     0.22728   0.09278   0.93665   0.00000  Uiso   1.00
H487   H     0.33558   0.00999   0.07255   0.00000  Uiso   1.00
H488   H     0.35128   0.31193   0.10980   0.00000  Uiso   1.00
H489   H     0.13355   0.08402   0.85474   0.00000  Uiso   1.00
H490   H     0.36193   0.90944   0.14130   0.00000  Uiso   1.00
H491   H     0.13711   0.10727   0.15689   0.00000  Uiso   1.00
H492   H     0.16555   0.20708   0.19582   0.00000  Uiso   1.00
H493   H     0.06230   0.09900   0.07485   0.00000  Uiso   1.00
H494   H     0.17060   0.01621   0.21075   0.00000  Uiso   1.00
H495   H     0.21736   0.31698   0.22196   0.00000  Uiso   1.00
H496   H     0.99964   0.08907   0.96690   0.00000  Uiso   1.00
H497   H     0.22802   0.91449   0.25347   0.00000  Uiso   1.00
O498   O     0.30584   0.38001   0.18911   0.00000  Uiso   1.00
O499   O     0.02020   0.08099   0.85449   0.00000  Uiso   1.00
O500   O     0.31982   0.85195   0.23045   0.00000  Uiso   1.00
N501   N     0.31586   0.29941   0.13086   0.00000  Uiso   1.00
N502   N     0.11231   0.08634   0.89239   0.00000  Uiso   1.00
N503   N     0.32581   0.92311   0.16030   0.00000  Uiso   1.00
N504   N     0.24381   0.30213   0.19122   0.00000  Uiso   1.00
N505   N     0.04025   0.08906   0.95275   0.00000  Uiso   1.00
N506   N     0.25375   0.92583   0.22065   0.00000  Uiso   1.00
C507   C     0.74231   0.89727   0.05590   0.00000  Uiso   1.00
C508   C     0.74388   0.84241   0.09131   0.00000  Uiso   1.00
C509   C     0.70507   0.79779   0.08746   0.00000  Uiso   1.00
C510   C     0.71392   0.75131   0.12358   0.00000  Uiso   1.00
C511   C     0.70938   0.66637   0.17268   0.00000  Uiso   1.00
C512   C     0.79999   0.90112   0.02559   0.00000  Uiso   1.00
C513   C     0.80834   0.90587   0.96648   0.00000  Uiso   1.00
C514   C     0.86443   0.90883   0.94726   0.00000  Uiso   1.00
C515   C     0.94698   0.91508   0.89433   0.00000  Uiso   1.00
C516   C     0.74114   0.94610   0.09942   0.00000  Uiso   1.00
C517   C     0.70003   0.98868   0.10239   0.00000  Uiso   1.00
C518   C     0.70657   0.02952   0.14534   0.00000  Uiso   1.00
C519   C     0.69776   0.10561   0.20705   0.00000  Uiso   1.00
C520   C     0.82705   0.89408   0.12687   0.00000  Uiso   1.00
C521   C     0.78991   0.84067   0.12986   0.00000  Uiso   1.00
C522   C     0.79882   0.79425   0.16599   0.00000  Uiso   1.00
C523   C     0.76003   0.74957   0.16220   0.00000  Uiso   1.00
C524   C     0.84601   0.89939   0.06414   0.00000  Uiso   1.00
C525   C     0.90210   0.90234   0.04501   0.00000  Uiso   1.00
C526   C     0.91054   0.90709   0.98588   0.00000  Uiso   1.00
C527   C     0.78717   0.94437   0.13798   0.00000  Uiso   1.00
C528   C     0.79378   0.98514   0.18092   0.00000  Uiso   1.00
C529   C     0.75268   0.02778   0.18396   0.00000  Uiso   1.00
H530   H     0.70648   0.89862   0.02588   0.00000  Uiso   1.00
H531   H     0.66946   0.79914   0.05762   0.00000  Uiso   1.00
H532   H     0.77272   0.90722   0.93665   0.00000  Uiso   1.00
H533   H     0.66442   0.99001   0.07255   0.00000  Uiso   1.00
H534   H     0.64872   0.68807   0.10980   0.00000  Uiso   1.00
H535   H     0.86645   0.91598   0.85474   0.00000  Uiso   1.00
H536   H     0.63807   0.09056   0.14130   0.00000  Uiso   1.00
H537   H     0.86289   0.89273   0.15689   0.00000  Uiso   1.00
H538   H     0.83445   0.79292   0.19582   0.00000  Uiso   1.00
H539   H     0.93770   0.90100   0.07485   0.00000  Uiso   1.00
H540   H     0.82940   0.98379   0.21075   0.00000  Uiso   1.00
H541   H     0.78264   0.68302   0.22196   0.00000  Uiso   1.00
H542   H     0.00036   0.91093   0.96690   0.00000  Uiso   1.00
H543   H     0.77198   0.08551   0.25347   0.00000  Uiso   1.00
O544   O     0.69416   0.61999   0.18911   0.00000  Uiso   1.00
O545   O     0.97980   0.91901   0.85449   0.00000  Uiso   1.00
O546   O     0.68018   0.14805   0.23045   0.00000  Uiso   1.00
N547   N     0.68414   0.70059   0.13086   0.00000  Uiso   1.00
N548   N     0.88769   0.91366   0.89239   0.00000  Uiso   1.00
N549   N     0.67419   0.07689   0.16030   0.00000  Uiso   1.00
N550   N     0.75619   0.69787   0.19122   0.00000  Uiso   1.00
N551   N     0.95975   0.91094   0.95275   0.00000  Uiso   1.00
N552   N     0.74625   0.07417   0.22065   0.00000  Uiso   1.00
C553   C     0.89727   0.74231   0.44410   0.00000  Uiso   1.00
C554   C     0.84241   0.74388   0.40869   0.00000  Uiso   1.00
C555   C     0.79779   0.70507   0.41254   0.00000  Uiso   1.00
C556   C     0.75131   0.71392   0.37642   0.00000  Uiso   1.00
C557   C     0.66637   0.70938   0.32732   0.00000  Uiso   1.00
C558   C     0.90112   0.79999   0.47441   0.00000  Uiso   1.00
C559   C     0.90587   0.80834   0.53352   0.00000  Uiso   1.00
C560   C     0.90883   0.86443   0.55274   0.00000  Uiso   1.00
C561   C     0.91508   0.94698   0.60567   0.00000  Uiso   1.00
C562   C     0.94610   0.74114   0.40058   0.00000  Uiso   1.00
C563   C     0.98868   0.70003   0.39761   0.00000  Uiso   1.00
C564   C     0.02952   0.70657   0.35466   0.00000  Uiso   1.00
C565   C     0.10561   0.69776   0.29295   0.00000  Uiso   1.00
C566   C     0.89408   0.82705   0.37313   0.00000  Uiso   1.00
C567   C     0.84067   0.78991   0.37014   0.00000  Uiso   1.00
C568   C     0.79425   0.79882   0.33401   0.00000  Uiso   1.00
C569   C     0.74957   0.76003   0.33780   0.00000  Uiso   1.00
C570   C     0.89939   0.84601   0.43586   0.00000  Uiso   1.00
C571   C     0.90234   0.90210   0.45499   0.00000  Uiso   1.00
C572   C     0.90709   0.91054   0.51412   0.00000  Uiso   1.00
C573   C     0.94437   0.78717   0.36202   0.00000  Uiso   1.00
C574   C     0.98514   0.79378   0.31908   0.00000  Uiso   1.00
C575   C     0.02778   0.75268   0.31604   0.00000  Uiso   1.00
H576   H     0.89862   0.70648   0.47412   0.00000  Uiso   1.00
H577   H     0.79914   0.66946   0.44238   0.00000  Uiso   1.00
H578   H     0.90722   0.77272   0.56335   0.00000  Uiso   1.00
H579   H     0.99001   0.66442   0.42745   0.00000  Uiso   1.00
H580   H     0.68807   0.64872   0.39020   0.00000  Uiso   1.00
H581   H     0.91598   0.86645   0.64526   0.00000  Uiso   1.00
H582   H     0.09056   0.63807   0.35870   0.00000  Uiso   1.00
H583   H     0.89273   0.86289   0.34311   0.00000  Uiso   1.00
H584   H     0.79292   0.83445   0.30418   0.00000  Uiso   1.00
H585   H     0.90100   0.93770   0.42515   0.00000  Uiso   1.00
H586   H     0.98379   0.82940   0.28925   0.00000  Uiso   1.00
H587   H     0.68302   0.78264   0.27804   0.00000  Uiso   1.00
H588   H     0.91093   0.00036   0.53310   0.00000  Uiso   1.00
H589   H     0.08551   0.77198   0.24653   0.00000  Uiso   1.00
O590   O     0.61999   0.69416   0.31089   0.00000  Uiso   1.00
O591   O     0.91901   0.97980   0.64551   0.00000  Uiso   1.00
O592   O     0.14805   0.68018   0.26955   0.00000  Uiso   1.00
N593   N     0.70059   0.68414   0.36914   0.00000  Uiso   1.00
N594   N     0.91366   0.88769   0.60761   0.00000  Uiso   1.00
N595   N     0.07689   0.67419   0.33970   0.00000  Uiso   1.00
N596   N     0.69787   0.75619   0.30878   0.00000  Uiso   1.00
N597   N     0.91094   0.95975   0.54725   0.00000  Uiso   1.00
N598   N     0.07417   0.74625   0.27935   0.00000  Uiso   1.00
C599   C     0.10273   0.25769   0.44410   0.00000  Uiso   1.00
C600   C     0.15759   0.25612   0.40869   0.00000  Uiso   1.00
C601   C     0.20221   0.29493   0.41254   0.00000  Uiso   1.00
C602   C     0.24869   0.28608   0.37642   0.00000  Uiso   1.00
C603   C     0.33363   0.29062   0.32732   0.00000  Uiso   1.00
C604   C     0.09888   0.20001   0.47441   0.00000  Uiso   1.00
C605   C     0.09413   0.19166   0.53352   0.00000  Uiso   1.00
C606   C     0.09117   0.13557   0.55274   0.00000  Uiso   1.00
C607   C     0.08492   0.05302   0.60567   0.00000  Uiso   1.00
C608   C     0.05390   0.25886   0.40058   0.00000  Uiso   1.00
C609   C     0.01132   0.29997   0.39761   0.00000  Uiso   1.00
C610   C     0.97048   0.29343   0.35466   0.00000  Uiso   1.00
C611   C     0.89439   0.30224   0.29295   0.00000  Uiso   1.00
C612   C     0.10592   0.17295   0.37313   0.00000  Uiso   1.00
C613   C     0.15933   0.21009   0.37014   0.00000  Uiso   1.00
C614   C     0.20575   0.20118   0.33401   0.00000  Uiso   1.00
C615   C     0.25043   0.23997   0.33780   0.00000  Uiso   1.00
C616   C     0.10061   0.15399   0.43586   0.00000  Uiso   1.00
C617   C     0.09766   0.09790   0.45499   0.00000  Uiso   1.00
C618   C     0.09291   0.08946   0.51412   0.00000  Uiso   1.00
C619   C     0.05563   0.21283   0.36202   0.00000  Uiso   1.00
C620   C     0.01486   0.20622   0.31908   0.00000  Uiso   1.00
C621   C     0.97222   0.24732   0.31604   0.00000  Uiso   1.00
H622   H     0.10138   0.29352   0.47412   0.00000  Uiso   1.00
H623   H     0.20086   0.33054   0.44238   0.00000  Uiso   1.00
H624   H     0.09278   0.22728   0.56335   0.00000  Uiso   1.00
H625   H     0.00999   0.33558   0.42745   0.00000  Uiso   1.00
H626   H     0.31193   0.35128   0.39020   0.00000  Uiso   1.00
H627   H     0.08402   0.13355   0.64526   0.00000  Uiso   1.00
H628   H     0.90944   0.36193   0.35870   0.00000  Uiso   1.00
H629   H     0.10727   0.13711   0.34311   0.00000  Uiso   1.00
H630   H     0.20708   0.16555   0.30418   0.00000  Uiso   1.00
H631   H     0.09900   0.06230   0.42515   0.00000  Uiso   1.00
H632   H     0.01621   0.17060   0.28925   0.00000  Uiso   1.00
H633   H     0.31698   0.21736   0.27804   0.00000  Uiso   1.00
H634   H     0.08907   0.99964   0.53310   0.00000  Uiso   1.00
H635   H     0.91449   0.22802   0.24653   0.00000  Uiso   1.00
O636   O     0.38001   0.30584   0.31089   0.00000  Uiso   1.00
O637   O     0.08099   0.02020   0.64551   0.00000  Uiso   1.00
O638   O     0.85195   0.31982   0.26955   0.00000  Uiso   1.00
N639   N     0.29941   0.31586   0.36914   0.00000  Uiso   1.00
N640   N     0.08634   0.11231   0.60761   0.00000  Uiso   1.00
N641   N     0.92311   0.32581   0.33970   0.00000  Uiso   1.00
N642   N     0.30213   0.24381   0.30878   0.00000  Uiso   1.00
N643   N     0.08906   0.04025   0.54725   0.00000  Uiso   1.00
N644   N     0.92583   0.25375   0.27935   0.00000  Uiso   1.00
C645   C     0.24231   0.60273   0.44410   0.00000  Uiso   1.00
C646   C     0.24388   0.65759   0.40869   0.00000  Uiso   1.00
C647   C     0.20507   0.70221   0.41254   0.00000  Uiso   1.00
C648   C     0.21392   0.74869   0.37642   0.00000  Uiso   1.00
C649   C     0.20938   0.83363   0.32732   0.00000  Uiso   1.00
C650   C     0.29999   0.59888   0.47441   0.00000  Uiso   1.00
C651   C     0.30834   0.59413   0.53352   0.00000  Uiso   1.00
C652   C     0.36443   0.59117   0.55274   0.00000  Uiso   1.00
C653   C     0.44698   0.58492   0.60567   0.00000  Uiso   1.00
C654   C     0.24114   0.55390   0.40058   0.00000  Uiso   1.00
C655   C     0.20003   0.51132   0.39761   0.00000  Uiso   1.00
C656   C     0.20657   0.47048   0.35466   0.00000  Uiso   1.00
C657   C     0.19776   0.39439   0.29295   0.00000  Uiso   1.00
C658   C     0.32705   0.60592   0.37313   0.00000  Uiso   1.00
C659   C     0.28991   0.65933   0.37014   0.00000  Uiso   1.00
C660   C     0.29882   0.70575   0.33401   0.00000  Uiso   1.00
C661   C     0.26003   0.75043   0.33780   0.00000  Uiso   1.00
C662   C     0.34601   0.60061   0.43586   0.00000  Uiso   1.00
C663   C     0.40210   0.59766   0.45499   0.00000  Uiso   1.00
C664   C     0.41054   0.59291   0.51412   0.00000  Uiso   1.00
C665   C     0.28717   0.55563   0.36202   0.00000  Uiso   1.00
C666   C     0.29378   0.51486   0.31908   0.00000  Uiso   1.00
C667   C     0.25268   0.47222   0.31604   0.00000  Uiso   1.00
H668   H     0.20648   0.60138   0.47412   0.00000  Uiso   1.00
H669   H     0.16946   0.70086   0.44238   0.00000  Uiso   1.00
H670   H     0.27272   0.59278   0.56335   0.00000  Uiso   1.00
H671   H     0.16442   0.50999   0.42745   0.00000  Uiso   1.00
H672   H     0.14872   0.81193   0.39020   0.00000  Uiso   1.00
H673   H     0.36645   0.58402   0.64526   0.00000  Uiso   1.00
H674   H     0.13807   0.40944   0.35870   0.00000  Uiso   1.00
H675   H     0.36289   0.60727   0.34311   0.00000  Uiso   1.00
H676   H     0.33445   0.70708   0.30418   0.00000  Uiso   1.00
H677   H     0.43770   0.59900   0.42515   0.00000  Uiso   1.00
H678   H     0.32940   0.51621   0.28925   0.00000  Uiso   1.00
H679   H     0.28264   0.81698   0.27804   0.00000  Uiso   1.00
H680   H     0.50036   0.58907   0.53310   0.00000  Uiso   1.00
H681   H     0.27198   0.41449   0.24653   0.00000  Uiso   1.00
O682   O     0.19416   0.88001   0.31089   0.00000  Uiso   1.00
O683   O     0.47980   0.58099   0.64551   0.00000  Uiso   1.00
O684   O     0.18018   0.35195   0.26955   0.00000  Uiso   1.00
N685   N     0.18414   0.79941   0.36914   0.00000  Uiso   1.00
N686   N     0.38769   0.58634   0.60761   0.00000  Uiso   1.00
N687   N     0.17419   0.42311   0.33970   0.00000  Uiso   1.00
N688   N     0.25619   0.80213   0.30878   0.00000  Uiso   1.00
N689   N     0.45975   0.58906   0.54725   0.00000  Uiso   1.00
N690   N     0.24625   0.42583   0.27935   0.00000  Uiso   1.00
C691   C     0.75769   0.39727   0.44410   0.00000  Uiso   1.00
C692   C     0.75612   0.34241   0.40869   0.00000  Uiso   1.00
C693   C     0.79493   0.29779   0.41254   0.00000  Uiso   1.00
C694   C     0.78608   0.25131   0.37642   0.00000  Uiso   1.00
C695   C     0.79062   0.16637   0.32732   0.00000  Uiso   1.00
C696   C     0.70001   0.40112   0.47441   0.00000  Uiso   1.00
C697   C     0.69166   0.40587   0.53352   0.00000  Uiso   1.00
C698   C     0.63557   0.40883   0.55274   0.00000  Uiso   1.00
C699   C     0.55302   0.41508   0.60567   0.00000  Uiso   1.00
C700   C     0.75886   0.44610   0.40058   0.00000  Uiso   1.00
C701   C     0.79997   0.48868   0.39761   0.00000  Uiso   1.00
C702   C     0.79343   0.52952   0.35466   0.00000  Uiso   1.00
C703   C     0.80224   0.60561   0.29295   0.00000  Uiso   1.00
C704   C     0.67295   0.39408   0.37313   0.00000  Uiso   1.00
C705   C     0.71009   0.34067   0.37014   0.00000  Uiso   1.00
C706   C     0.70118   0.29425   0.33401   0.00000  Uiso   1.00
C707   C     0.73997   0.24957   0.33780   0.00000  Uiso   1.00
C708   C     0.65399   0.39939   0.43586   0.00000  Uiso   1.00
C709   C     0.59790   0.40234   0.45499   0.00000  Uiso   1.00
C710   C     0.58946   0.40709   0.51412   0.00000  Uiso   1.00
C711   C     0.71283   0.44437   0.36202   0.00000  Uiso   1.00
C712   C     0.70622   0.48514   0.31908   0.00000  Uiso   1.00
C713   C     0.74732   0.52778   0.31604   0.00000  Uiso   1.00
H714   H     0.79352   0.39862   0.47412   0.00000  Uiso   1.00
H715   H     0.83054   0.29914   0.44238   0.00000  Uiso   1.00
H716   H     0.72728   0.40722   0.56335   0.00000  Uiso   1.00
H717   H     0.83558   0.49001   0.42745   0.00000  Uiso   1.00
H718   H     0.85128   0.18807   0.39020   0.00000  Uiso   1.00
H719   H     0.63355   0.41598   0.64526   0.00000  Uiso   1.00
H720   H     0.86193   0.59056   0.35870   0.00000  Uiso   1.00
H721   H     0.63711   0.39273   0.34311   0.00000  Uiso   1.00
H722   H     0.66555   0.29292   0.30418   0.00000  Uiso   1.00
H723   H     0.56230   0.40100   0.42515   0.00000  Uiso   1.00
H724   H     0.67060   0.48379   0.28925   0.00000  Uiso   1.00
H725   H     0.71736   0.18302   0.27804   0.00000  Uiso   1.00
H726   H     0.49964   0.41093   0.53310   0.00000  Uiso   1.00
H727   H     0.72802   0.58551   0.24653   0.00000  Uiso   1.00
O728   O     0.80584   0.11999   0.31089   0.00000  Uiso   1.00
O729   O     0.52020   0.41901   0.64551   0.00000  Uiso   1.00
O730   O     0.81982   0.64805   0.26955   0.00000  Uiso   1.00
N731   N     0.81586   0.20059   0.36914   0.00000  Uiso   1.00
N732   N     0.61231   0.41366   0.60761   0.00000  Uiso   1.00
N733   N     0.82581   0.57689   0.33970   0.00000  Uiso   1.00
N734   N     0.74381   0.19787   0.30878   0.00000  Uiso   1.00
N735   N     0.54025   0.41094   0.54725   0.00000  Uiso   1.00
N736   N     0.75375   0.57417   0.27935   0.00000  Uiso   1.00
