data_job_06968
_audit_creation_date              2018-12-19
_audit_creation_method            'Materials Studio'
_symmetry_space_group_name_H-M    'P1'
_symmetry_Int_Tables_number       1
_symmetry_cell_setting            triclinic
loop_
_symmetry_equiv_pos_as_xyz
  x,y,z
_cell_length_a                    24.3314
_cell_length_b                    24.3314
_cell_length_c                    43.7551
_cell_angle_alpha                 90.0000
_cell_angle_beta                  90.0000
_cell_angle_gamma                 120.0000
loop_
_atom_site_label
_atom_site_type_symbol
_atom_site_fract_x
_atom_site_fract_y
_atom_site_fract_z
_atom_site_U_iso_or_equiv
_atom_site_adp_type
_atom_site_occupancy
C1     C     0.68185   0.94017   0.74437   0.00000  Uiso   1.00
C2     C     0.67313   0.89131   0.76855   0.00000  Uiso   1.00
C3     C     0.70077   0.90473   0.79734   0.00000  Uiso   1.00
C4     C     0.02021   0.52004   0.48277   0.00000  Uiso   1.00
C5     C     0.01280   0.45368   0.52179   0.00000  Uiso   1.00
C6     C     0.70648   0.92325   0.71592   0.00000  Uiso   1.00
C7     C     0.76216   0.96354   0.70045   0.00000  Uiso   1.00
C8     C     0.77635   0.93908   0.67491   0.00000  Uiso   1.00
C9     C     0.82069   0.92233   0.63220   0.00000  Uiso   1.00
C10    C     0.61536   0.92709   0.73641   0.00000  Uiso   1.00
C11    C     0.92775   0.63727   0.40483   0.00000  Uiso   1.00
C12    C     0.86521   0.61604   0.39653   0.00000  Uiso   1.00
C13    C     0.76807   0.60524   0.38562   0.00000  Uiso   1.00
C14    C     0.60804   0.82509   0.72651   0.00000  Uiso   1.00
C15    C     0.63304   0.82880   0.75885   0.00000  Uiso   1.00
C16    C     0.95244   0.44408   0.44424   0.00000  Uiso   1.00
C17    C     0.98005   0.45742   0.47305   0.00000  Uiso   1.00
C18    C     0.66639   0.86075   0.70622   0.00000  Uiso   1.00
C19    C     0.68050   0.83623   0.68069   0.00000  Uiso   1.00
C20    C     0.73618   0.87647   0.66519   0.00000  Uiso   1.00
C21    C     0.57526   0.86458   0.72671   0.00000  Uiso   1.00
C22    C     0.51275   0.84328   0.71840   0.00000  Uiso   1.00
C23    C     0.82505   0.55342   0.38680   0.00000  Uiso   1.00
H24    H     0.71306   0.98883   0.75193   0.00000  Uiso   1.00
H25    H     0.73180   0.95311   0.80484   0.00000  Uiso   1.00
H26    H     0.79317   0.01191   0.70797   0.00000  Uiso   1.00
H27    H     0.95879   0.68563   0.41234   0.00000  Uiso   1.00
H28    H     0.06823   0.55260   0.52589   0.00000  Uiso   1.00
H29    H     0.86431   0.00994   0.65495   0.00000  Uiso   1.00
H30    H     0.84398   0.69148   0.40112   0.00000  Uiso   1.00
H31    H     0.57682   0.77643   0.71896   0.00000  Uiso   1.00
H32    H     0.92141   0.39571   0.43673   0.00000  Uiso   1.00
H33    H     0.64946   0.78785   0.67319   0.00000  Uiso   1.00
H34    H     0.48174   0.79491   0.71089   0.00000  Uiso   1.00
H35    H     0.95159   0.37075   0.49766   0.00000  Uiso   1.00
H36    H     0.74767   0.82808   0.62672   0.00000  Uiso   1.00
H37    H     0.72733   0.50962   0.37289   0.00000  Uiso   1.00
O38    O     0.01979   0.43434   0.54598   0.00000  Uiso   1.00
O39    O     0.85623   0.93036   0.61132   0.00000  Uiso   1.00
O40    O     0.72556   0.61654   0.38229   0.00000  Uiso   1.00
N41    N     0.03923   0.51631   0.51223   0.00000  Uiso   1.00
N42    N     0.82689   0.96557   0.65459   0.00000  Uiso   1.00
N43    N     0.82958   0.64615   0.39558   0.00000  Uiso   1.00
N44    N     0.97646   0.41845   0.49704   0.00000  Uiso   1.00
N45    N     0.76412   0.86771   0.63940   0.00000  Uiso   1.00
N46    N     0.76681   0.54829   0.38039   0.00000  Uiso   1.00
C47    C     0.27970   0.12934   0.27900   0.00000  Uiso   1.00
C48    C     0.28601   0.17823   0.25537   0.00000  Uiso   1.00
C49    C     0.26069   0.16491   0.22609   0.00000  Uiso   1.00
C50    C     0.27174   0.21627   0.20796   0.00000  Uiso   1.00
C51    C     0.94284   0.61603   0.50296   0.00000  Uiso   1.00
C52    C     0.25016   0.14105   0.30721   0.00000  Uiso   1.00
C53    C     0.19470   0.09646   0.32152   0.00000  Uiso   1.00
C54    C     0.17558   0.11652   0.34703   0.00000  Uiso   1.00
C55    C     0.12439   0.12520   0.38919   0.00000  Uiso   1.00
C56    C     0.34722   0.14748   0.28804   0.00000  Uiso   1.00
C57    C     0.04003   0.44163   0.61958   0.00000  Uiso   1.00
C58    C     0.10262   0.46710   0.62896   0.00000  Uiso   1.00
C59    C     0.20212   0.48577   0.64136   0.00000  Uiso   1.00
C60    C     0.34436   0.24424   0.29886   0.00000  Uiso   1.00
C61    C     0.32113   0.24064   0.26615   0.00000  Uiso   1.00
C62    C     0.33223   0.29204   0.24806   0.00000  Uiso   1.00
C63    C     0.97359   0.61213   0.55209   0.00000  Uiso   1.00
C64    C     0.28528   0.20345   0.31799   0.00000  Uiso   1.00
C65    C     0.26624   0.22358   0.34349   0.00000  Uiso   1.00
C66    C     0.21076   0.17904   0.35783   0.00000  Uiso   1.00
C67    C     0.38234   0.20989   0.29882   0.00000  Uiso   1.00
C68    C     0.44490   0.23542   0.30821   0.00000  Uiso   1.00
C69    C     0.13780   0.52963   0.63976   0.00000  Uiso   1.00
H70    H     0.25236   0.08075   0.27061   0.00000  Uiso   1.00
H71    H     0.23351   0.11661   0.21775   0.00000  Uiso   1.00
H72    H     0.16754   0.04817   0.31317   0.00000  Uiso   1.00
H73    H     0.01284   0.39334   0.61123   0.00000  Uiso   1.00
H74    H     0.22808   0.18388   0.16392   0.00000  Uiso   1.00
H75    H     0.08899   0.03956   0.36511   0.00000  Uiso   1.00
H76    H     0.13234   0.39786   0.62407   0.00000  Uiso   1.00
H77    H     0.37170   0.29283   0.30726   0.00000  Uiso   1.00
H78    H     0.02607   0.67366   0.58975   0.00000  Uiso   1.00
H79    H     0.29343   0.27188   0.35183   0.00000  Uiso   1.00
H80    H     0.47206   0.28372   0.31656   0.00000  Uiso   1.00
H81    H     0.99693   0.69880   0.52863   0.00000  Uiso   1.00
H82    H     0.19117   0.22114   0.39649   0.00000  Uiso   1.00
H83    H     0.23452   0.57944   0.65545   0.00000  Uiso   1.00
O84    O     0.93558   0.63542   0.47883   0.00000  Uiso   1.00
O85    O     0.08644   0.11274   0.40947   0.00000  Uiso   1.00
O86    O     0.24730   0.47883   0.64521   0.00000  Uiso   1.00
N87    N     0.25383   0.22010   0.17828   0.00000  Uiso   1.00
N88    N     0.12378   0.08517   0.36638   0.00000  Uiso   1.00
N89    N     0.14261   0.44184   0.63018   0.00000  Uiso   1.00
N90    N     0.97548   0.65114   0.52849   0.00000  Uiso   1.00
N91    N     0.17876   0.18288   0.38326   0.00000  Uiso   1.00
N92    N     0.19759   0.53955   0.64707   0.00000  Uiso   1.00
C93    C     0.34851   0.27350   0.07771   0.00000  Uiso   1.00
C94    C     0.33980   0.22464   0.10189   0.00000  Uiso   1.00
C95    C     0.36743   0.23806   0.13067   0.00000  Uiso   1.00
C96    C     0.68688   0.85338   0.81611   0.00000  Uiso   1.00
C97    C     0.67946   0.78701   0.85512   0.00000  Uiso   1.00
C98    C     0.37315   0.25659   0.04925   0.00000  Uiso   1.00
C99    C     0.42883   0.29688   0.03379   0.00000  Uiso   1.00
C100   C     0.44301   0.27242   0.00825   0.00000  Uiso   1.00
C101   C     0.48736   0.25567   0.96553   0.00000  Uiso   1.00
C102   C     0.28202   0.26042   0.06974   0.00000  Uiso   1.00
C103   C     0.59442   0.97060   0.73816   0.00000  Uiso   1.00
C104   C     0.53188   0.94937   0.72986   0.00000  Uiso   1.00
C105   C     0.43474   0.93857   0.71896   0.00000  Uiso   1.00
C106   C     0.27470   0.15843   0.05984   0.00000  Uiso   1.00
C107   C     0.29971   0.16213   0.09218   0.00000  Uiso   1.00
C108   C     0.61910   0.77741   0.77758   0.00000  Uiso   1.00
C109   C     0.64671   0.79076   0.80639   0.00000  Uiso   1.00
C110   C     0.33306   0.19408   0.03955   0.00000  Uiso   1.00
C111   C     0.34716   0.16956   0.01402   0.00000  Uiso   1.00
C112   C     0.40285   0.20980   0.99853   0.00000  Uiso   1.00
C113   C     0.24193   0.19791   0.06004   0.00000  Uiso   1.00
C114   C     0.17942   0.17661   0.05173   0.00000  Uiso   1.00
C115   C     0.49172   0.88675   0.72014   0.00000  Uiso   1.00
H116   H     0.37973   0.32216   0.08526   0.00000  Uiso   1.00
H117   H     0.39846   0.28644   0.13817   0.00000  Uiso   1.00
H118   H     0.45984   0.34525   0.04130   0.00000  Uiso   1.00
H119   H     0.62545   0.01897   0.74567   0.00000  Uiso   1.00
H120   H     0.73490   0.88594   0.85922   0.00000  Uiso   1.00
H121   H     0.53098   0.34327   0.98829   0.00000  Uiso   1.00
H122   H     0.51064   0.02481   0.73445   0.00000  Uiso   1.00
H123   H     0.24349   0.10976   0.05229   0.00000  Uiso   1.00
H124   H     0.58808   0.72905   0.77006   0.00000  Uiso   1.00
H125   H     0.31613   0.12119   0.00652   0.00000  Uiso   1.00
H126   H     0.14841   0.12824   0.04422   0.00000  Uiso   1.00
H127   H     0.61826   0.70408   0.83099   0.00000  Uiso   1.00
H128   H     0.41433   0.16142   0.96006   0.00000  Uiso   1.00
H129   H     0.39400   0.84296   0.70623   0.00000  Uiso   1.00
O130   O     0.68646   0.76767   0.87932   0.00000  Uiso   1.00
O131   O     0.52290   0.26370   0.94466   0.00000  Uiso   1.00
O132   O     0.39223   0.94988   0.71563   0.00000  Uiso   1.00
N133   N     0.70589   0.84964   0.84557   0.00000  Uiso   1.00
N134   N     0.49356   0.29890   0.98792   0.00000  Uiso   1.00
N135   N     0.49625   0.97948   0.72891   0.00000  Uiso   1.00
N136   N     0.64313   0.75178   0.83038   0.00000  Uiso   1.00
N137   N     0.43079   0.20105   0.97274   0.00000  Uiso   1.00
N138   N     0.43348   0.88163   0.71372   0.00000  Uiso   1.00
C139   C     0.94637   0.46267   0.61233   0.00000  Uiso   1.00
C140   C     0.95268   0.51156   0.58870   0.00000  Uiso   1.00
C141   C     0.92736   0.49825   0.55942   0.00000  Uiso   1.00
C142   C     0.93841   0.54961   0.54129   0.00000  Uiso   1.00
C143   C     0.60951   0.94936   0.83629   0.00000  Uiso   1.00
C144   C     0.91683   0.47438   0.64054   0.00000  Uiso   1.00
C145   C     0.86137   0.42979   0.65485   0.00000  Uiso   1.00
C146   C     0.84225   0.44985   0.68036   0.00000  Uiso   1.00
C147   C     0.79105   0.45853   0.72253   0.00000  Uiso   1.00
C148   C     0.01389   0.48081   0.62137   0.00000  Uiso   1.00
C149   C     0.70670   0.77496   0.95291   0.00000  Uiso   1.00
C150   C     0.76929   0.80044   0.96229   0.00000  Uiso   1.00
C151   C     0.86879   0.81910   0.97469   0.00000  Uiso   1.00
C152   C     0.01102   0.57757   0.63219   0.00000  Uiso   1.00
C153   C     0.98780   0.57397   0.59949   0.00000  Uiso   1.00
C154   C     0.99889   0.62537   0.58139   0.00000  Uiso   1.00
C155   C     0.64026   0.94546   0.88543   0.00000  Uiso   1.00
C156   C     0.95195   0.53679   0.65133   0.00000  Uiso   1.00
C157   C     0.93291   0.55692   0.67682   0.00000  Uiso   1.00
C158   C     0.87743   0.51238   0.69117   0.00000  Uiso   1.00
C159   C     0.04901   0.54322   0.63216   0.00000  Uiso   1.00
C160   C     0.11157   0.56876   0.64154   0.00000  Uiso   1.00
C161   C     0.80447   0.86296   0.97309   0.00000  Uiso   1.00
H162   H     0.91902   0.41408   0.60394   0.00000  Uiso   1.00
H163   H     0.90018   0.44994   0.55109   0.00000  Uiso   1.00
H164   H     0.83421   0.38150   0.64650   0.00000  Uiso   1.00
H165   H     0.67951   0.72667   0.94456   0.00000  Uiso   1.00
H166   H     0.89475   0.51722   0.49725   0.00000  Uiso   1.00
H167   H     0.75566   0.37290   0.69845   0.00000  Uiso   1.00
H168   H     0.79901   0.73119   0.95740   0.00000  Uiso   1.00
H169   H     0.03837   0.62616   0.64059   0.00000  Uiso   1.00
H170   H     0.69274   0.00699   0.92308   0.00000  Uiso   1.00
H171   H     0.96010   0.60522   0.68516   0.00000  Uiso   1.00
H172   H     0.13873   0.61706   0.64989   0.00000  Uiso   1.00
H173   H     0.66359   0.03213   0.86196   0.00000  Uiso   1.00
H174   H     0.85784   0.55447   0.72983   0.00000  Uiso   1.00
H175   H     0.90119   0.91277   0.98878   0.00000  Uiso   1.00
O176   O     0.60225   0.96876   0.81217   0.00000  Uiso   1.00
O177   O     0.75311   0.44608   0.74280   0.00000  Uiso   1.00
O178   O     0.91397   0.81216   0.97855   0.00000  Uiso   1.00
N179   N     0.92050   0.55343   0.51161   0.00000  Uiso   1.00
N180   N     0.79045   0.41851   0.69971   0.00000  Uiso   1.00
N181   N     0.80928   0.77517   0.96352   0.00000  Uiso   1.00
N182   N     0.64214   0.98447   0.86183   0.00000  Uiso   1.00
N183   N     0.84543   0.51621   0.71660   0.00000  Uiso   1.00
N184   N     0.86426   0.87288   0.98040   0.00000  Uiso   1.00
C185   C     0.01518   0.60684   0.41104   0.00000  Uiso   1.00
C186   C     0.00646   0.55797   0.43522   0.00000  Uiso   1.00
C187   C     0.03410   0.57140   0.46401   0.00000  Uiso   1.00
C188   C     0.35355   0.18671   0.14944   0.00000  Uiso   1.00
C189   C     0.34613   0.12034   0.18845   0.00000  Uiso   1.00
C190   C     0.03982   0.58992   0.38259   0.00000  Uiso   1.00
C191   C     0.09549   0.63021   0.36712   0.00000  Uiso   1.00
C192   C     0.10968   0.60575   0.34158   0.00000  Uiso   1.00
C193   C     0.15402   0.58900   0.29887   0.00000  Uiso   1.00
C194   C     0.94869   0.59375   0.40307   0.00000  Uiso   1.00
C195   C     0.26108   0.30394   0.07149   0.00000  Uiso   1.00
C196   C     0.19855   0.28270   0.06319   0.00000  Uiso   1.00
C197   C     0.10141   0.27190   0.05229   0.00000  Uiso   1.00
C198   C     0.94137   0.49176   0.39318   0.00000  Uiso   1.00
C199   C     0.96637   0.49547   0.42551   0.00000  Uiso   1.00
C200   C     0.28577   0.11074   0.11091   0.00000  Uiso   1.00
C201   C     0.31338   0.12409   0.13972   0.00000  Uiso   1.00
C202   C     0.99973   0.52742   0.37288   0.00000  Uiso   1.00
C203   C     0.01383   0.50289   0.34736   0.00000  Uiso   1.00
C204   C     0.06952   0.54313   0.33186   0.00000  Uiso   1.00
C205   C     0.90860   0.53125   0.39337   0.00000  Uiso   1.00
C206   C     0.84609   0.50995   0.38506   0.00000  Uiso   1.00
C207   C     0.15839   0.22009   0.05347   0.00000  Uiso   1.00
H208   H     0.04640   0.65550   0.41859   0.00000  Uiso   1.00
H209   H     0.06513   0.61978   0.47151   0.00000  Uiso   1.00
H210   H     0.12651   0.67858   0.37463   0.00000  Uiso   1.00
H211   H     0.29212   0.35230   0.07900   0.00000  Uiso   1.00
H212   H     0.40157   0.21927   0.19255   0.00000  Uiso   1.00
H213   H     0.19764   0.67660   0.32162   0.00000  Uiso   1.00
H214   H     0.17731   0.35815   0.06779   0.00000  Uiso   1.00
H215   H     0.91016   0.44309   0.38562   0.00000  Uiso   1.00
H216   H     0.25474   0.06238   0.10339   0.00000  Uiso   1.00
H217   H     0.98279   0.45452   0.33986   0.00000  Uiso   1.00
H218   H     0.81507   0.46157   0.37756   0.00000  Uiso   1.00
H219   H     0.28492   0.03741   0.16433   0.00000  Uiso   1.00
H220   H     0.08100   0.49475   0.29339   0.00000  Uiso   1.00
H221   H     0.06067   0.17629   0.03956   0.00000  Uiso   1.00
O222   O     0.35312   0.10101   0.21265   0.00000  Uiso   1.00
O223   O     0.18956   0.59703   0.27799   0.00000  Uiso   1.00
O224   O     0.05890   0.28321   0.04896   0.00000  Uiso   1.00
N225   N     0.37256   0.18297   0.17890   0.00000  Uiso   1.00
N226   N     0.16022   0.63224   0.32126   0.00000  Uiso   1.00
N227   N     0.16291   0.31282   0.06224   0.00000  Uiso   1.00
N228   N     0.30979   0.08512   0.16371   0.00000  Uiso   1.00
N229   N     0.09746   0.53438   0.30607   0.00000  Uiso   1.00
N230   N     0.10015   0.21496   0.04705   0.00000  Uiso   1.00
C231   C     0.61303   0.79600   0.94567   0.00000  Uiso   1.00
C232   C     0.61935   0.84490   0.92203   0.00000  Uiso   1.00
C233   C     0.59402   0.83158   0.89276   0.00000  Uiso   1.00
C234   C     0.60507   0.88294   0.87462   0.00000  Uiso   1.00
C235   C     0.27618   0.28270   0.16962   0.00000  Uiso   1.00
C236   C     0.58350   0.80771   0.97387   0.00000  Uiso   1.00
C237   C     0.52804   0.76313   0.98819   0.00000  Uiso   1.00
C238   C     0.50891   0.78319   0.01370   0.00000  Uiso   1.00
C239   C     0.45772   0.79187   0.05586   0.00000  Uiso   1.00
C240   C     0.68055   0.81415   0.95471   0.00000  Uiso   1.00
C241   C     0.37337   0.10830   0.28624   0.00000  Uiso   1.00
C242   C     0.43595   0.13377   0.29562   0.00000  Uiso   1.00
C243   C     0.53545   0.15244   0.30802   0.00000  Uiso   1.00
C244   C     0.67769   0.91091   0.96552   0.00000  Uiso   1.00
C245   C     0.65447   0.90731   0.93282   0.00000  Uiso   1.00
C246   C     0.66556   0.95870   0.91473   0.00000  Uiso   1.00
C247   C     0.30692   0.27880   0.21876   0.00000  Uiso   1.00
C248   C     0.61861   0.87012   0.98466   0.00000  Uiso   1.00
C249   C     0.59957   0.89025   0.01016   0.00000  Uiso   1.00
C250   C     0.54410   0.84571   0.02450   0.00000  Uiso   1.00
C251   C     0.71568   0.87656   0.96549   0.00000  Uiso   1.00
C252   C     0.77823   0.90209   0.97488   0.00000  Uiso   1.00
C253   C     0.47114   0.19629   0.30643   0.00000  Uiso   1.00
H254   H     0.58569   0.74742   0.93727   0.00000  Uiso   1.00
H255   H     0.56684   0.78327   0.88442   0.00000  Uiso   1.00
H256   H     0.50087   0.71483   0.97984   0.00000  Uiso   1.00
H257   H     0.34617   0.06001   0.27790   0.00000  Uiso   1.00
H258   H     0.56142   0.85055   0.83058   0.00000  Uiso   1.00
H259   H     0.42233   0.70623   0.03178   0.00000  Uiso   1.00
H260   H     0.46568   0.06453   0.29073   0.00000  Uiso   1.00
H261   H     0.70503   0.95950   0.97392   0.00000  Uiso   1.00
H262   H     0.35940   0.34033   0.25641   0.00000  Uiso   1.00
H263   H     0.62676   0.93855   0.01850   0.00000  Uiso   1.00
H264   H     0.80540   0.95039   0.98322   0.00000  Uiso   1.00
H265   H     0.33026   0.36546   0.19529   0.00000  Uiso   1.00
H266   H     0.52450   0.88781   0.06316   0.00000  Uiso   1.00
H267   H     0.56785   0.24611   0.32211   0.00000  Uiso   1.00
O268   O     0.26891   0.30209   0.14550   0.00000  Uiso   1.00
O269   O     0.41977   0.77941   0.07613   0.00000  Uiso   1.00
O270   O     0.58064   0.14550   0.31188   0.00000  Uiso   1.00
N271   N     0.58716   0.88677   0.84494   0.00000  Uiso   1.00
N272   N     0.45712   0.75184   0.03305   0.00000  Uiso   1.00
N273   N     0.47594   0.10851   0.29685   0.00000  Uiso   1.00
N274   N     0.30881   0.31781   0.19516   0.00000  Uiso   1.00
N275   N     0.51210   0.84955   0.04993   0.00000  Uiso   1.00
N276   N     0.53093   0.20621   0.31373   0.00000  Uiso   1.00
C277   C     0.05983   0.74168   0.74437   0.00000  Uiso   1.00
C278   C     0.10869   0.78182   0.76855   0.00000  Uiso   1.00
C279   C     0.09527   0.79604   0.79734   0.00000  Uiso   1.00
C280   C     0.47996   0.50017   0.48277   0.00000  Uiso   1.00
C281   C     0.54632   0.55912   0.52179   0.00000  Uiso   1.00
C282   C     0.07675   0.78323   0.71592   0.00000  Uiso   1.00
C283   C     0.03646   0.79862   0.70045   0.00000  Uiso   1.00
C284   C     0.06092   0.83726   0.67491   0.00000  Uiso   1.00
C285   C     0.07767   0.89836   0.63220   0.00000  Uiso   1.00
C286   C     0.07291   0.68827   0.73641   0.00000  Uiso   1.00
C287   C     0.36273   0.29048   0.40483   0.00000  Uiso   1.00
C288   C     0.38396   0.24918   0.39653   0.00000  Uiso   1.00
C289   C     0.39476   0.16284   0.38562   0.00000  Uiso   1.00
C290   C     0.17491   0.78295   0.72651   0.00000  Uiso   1.00
C291   C     0.17120   0.80424   0.75885   0.00000  Uiso   1.00
C292   C     0.55592   0.50836   0.44424   0.00000  Uiso   1.00
C293   C     0.54258   0.52262   0.47305   0.00000  Uiso   1.00
C294   C     0.13925   0.80564   0.70622   0.00000  Uiso   1.00
C295   C     0.16377   0.84427   0.68069   0.00000  Uiso   1.00
C296   C     0.12353   0.85972   0.66519   0.00000  Uiso   1.00
C297   C     0.13542   0.71068   0.72671   0.00000  Uiso   1.00
C298   C     0.15672   0.66947   0.71840   0.00000  Uiso   1.00
C299   C     0.44658   0.27163   0.38680   0.00000  Uiso   1.00
H300   H     0.01117   0.72423   0.75193   0.00000  Uiso   1.00
H301   H     0.04689   0.77869   0.80484   0.00000  Uiso   1.00
H302   H     0.98809   0.78126   0.70797   0.00000  Uiso   1.00
H303   H     0.31437   0.27315   0.41234   0.00000  Uiso   1.00
H304   H     0.44740   0.51563   0.52589   0.00000  Uiso   1.00
H305   H     0.99006   0.85437   0.65495   0.00000  Uiso   1.00
H306   H     0.30852   0.15249   0.40112   0.00000  Uiso   1.00
H307   H     0.22357   0.80040   0.71896   0.00000  Uiso   1.00
H308   H     0.60429   0.52570   0.43673   0.00000  Uiso   1.00
H309   H     0.21215   0.86161   0.67319   0.00000  Uiso   1.00
H310   H     0.20509   0.68683   0.71089   0.00000  Uiso   1.00
H311   H     0.62925   0.58084   0.49766   0.00000  Uiso   1.00
H312   H     0.17192   0.91958   0.62672   0.00000  Uiso   1.00
H313   H     0.49038   0.21771   0.37289   0.00000  Uiso   1.00
O314   O     0.56566   0.58545   0.54598   0.00000  Uiso   1.00
O315   O     0.06964   0.92587   0.61132   0.00000  Uiso   1.00
O316   O     0.38346   0.10902   0.38229   0.00000  Uiso   1.00
N317   N     0.48369   0.52292   0.51223   0.00000  Uiso   1.00
N318   N     0.03443   0.86132   0.65459   0.00000  Uiso   1.00
N319   N     0.35385   0.18343   0.39558   0.00000  Uiso   1.00
N320   N     0.58155   0.55801   0.49704   0.00000  Uiso   1.00
N321   N     0.13229   0.89641   0.63940   0.00000  Uiso   1.00
N322   N     0.45171   0.21852   0.38039   0.00000  Uiso   1.00
C323   C     0.87066   0.15036   0.27900   0.00000  Uiso   1.00
C324   C     0.82177   0.10779   0.25537   0.00000  Uiso   1.00
C325   C     0.83509   0.09578   0.22609   0.00000  Uiso   1.00
C326   C     0.78373   0.05546   0.20796   0.00000  Uiso   1.00
C327   C     0.38397   0.32681   0.50296   0.00000  Uiso   1.00
C328   C     0.85895   0.10912   0.30721   0.00000  Uiso   1.00
C329   C     0.90354   0.09824   0.32152   0.00000  Uiso   1.00
C330   C     0.88348   0.05906   0.34703   0.00000  Uiso   1.00
C331   C     0.87480   0.99919   0.38919   0.00000  Uiso   1.00
C332   C     0.85252   0.19974   0.28804   0.00000  Uiso   1.00
C333   C     0.55837   0.59840   0.61958   0.00000  Uiso   1.00
C334   C     0.53290   0.63552   0.62896   0.00000  Uiso   1.00
C335   C     0.51423   0.71635   0.64136   0.00000  Uiso   1.00
C336   C     0.75576   0.10012   0.29886   0.00000  Uiso   1.00
C337   C     0.75936   0.08049   0.26615   0.00000  Uiso   1.00
C338   C     0.70796   0.04019   0.24806   0.00000  Uiso   1.00
C339   C     0.38787   0.36146   0.55209   0.00000  Uiso   1.00
C340   C     0.79655   0.08183   0.31799   0.00000  Uiso   1.00
C341   C     0.77642   0.04266   0.34349   0.00000  Uiso   1.00
C342   C     0.82096   0.03172   0.35783   0.00000  Uiso   1.00
C343   C     0.79011   0.17245   0.29882   0.00000  Uiso   1.00
C344   C     0.76458   0.20948   0.30821   0.00000  Uiso   1.00
C345   C     0.47037   0.60818   0.63976   0.00000  Uiso   1.00
H346   H     0.91925   0.17161   0.27061   0.00000  Uiso   1.00
H347   H     0.88339   0.11690   0.21775   0.00000  Uiso   1.00
H348   H     0.95183   0.11937   0.31317   0.00000  Uiso   1.00
H349   H     0.60666   0.61950   0.61123   0.00000  Uiso   1.00
H350   H     0.81612   0.04420   0.16392   0.00000  Uiso   1.00
H351   H     0.96044   0.04943   0.36511   0.00000  Uiso   1.00
H352   H     0.60214   0.73448   0.62407   0.00000  Uiso   1.00
H353   H     0.70717   0.07887   0.30726   0.00000  Uiso   1.00
H354   H     0.32634   0.35241   0.58975   0.00000  Uiso   1.00
H355   H     0.72812   0.02155   0.35183   0.00000  Uiso   1.00
H356   H     0.71628   0.18834   0.31656   0.00000  Uiso   1.00
H357   H     0.30120   0.29813   0.52863   0.00000  Uiso   1.00
H358   H     0.77886   0.97003   0.39649   0.00000  Uiso   1.00
H359   H     0.42056   0.65508   0.65545   0.00000  Uiso   1.00
O360   O     0.36458   0.30016   0.47883   0.00000  Uiso   1.00
O361   O     0.88726   0.97369   0.40947   0.00000  Uiso   1.00
O362   O     0.52117   0.76847   0.64521   0.00000  Uiso   1.00
N363   N     0.77990   0.03373   0.17828   0.00000  Uiso   1.00
N364   N     0.91483   0.03861   0.36638   0.00000  Uiso   1.00
N365   N     0.55816   0.70077   0.63018   0.00000  Uiso   1.00
N366   N     0.34886   0.32434   0.52849   0.00000  Uiso   1.00
N367   N     0.81712   0.99588   0.38326   0.00000  Uiso   1.00
N368   N     0.46045   0.65805   0.64707   0.00000  Uiso   1.00
C369   C     0.72650   0.07501   0.07771   0.00000  Uiso   1.00
C370   C     0.77536   0.11516   0.10189   0.00000  Uiso   1.00
C371   C     0.76194   0.12937   0.13067   0.00000  Uiso   1.00
C372   C     0.14662   0.83351   0.81611   0.00000  Uiso   1.00
C373   C     0.21299   0.89245   0.85512   0.00000  Uiso   1.00
C374   C     0.74341   0.11656   0.04925   0.00000  Uiso   1.00
C375   C     0.70312   0.13195   0.03379   0.00000  Uiso   1.00
C376   C     0.72758   0.17060   0.00825   0.00000  Uiso   1.00
C377   C     0.74433   0.23169   0.96553   0.00000  Uiso   1.00
C378   C     0.73958   0.02160   0.06974   0.00000  Uiso   1.00
C379   C     0.02940   0.62381   0.73816   0.00000  Uiso   1.00
C380   C     0.05063   0.58251   0.72986   0.00000  Uiso   1.00
C381   C     0.06143   0.49617   0.71896   0.00000  Uiso   1.00
C382   C     0.84157   0.11628   0.05984   0.00000  Uiso   1.00
C383   C     0.83787   0.13757   0.09218   0.00000  Uiso   1.00
C384   C     0.22259   0.84169   0.77758   0.00000  Uiso   1.00
C385   C     0.20924   0.85596   0.80639   0.00000  Uiso   1.00
C386   C     0.80592   0.13898   0.03955   0.00000  Uiso   1.00
C387   C     0.83044   0.17761   0.01402   0.00000  Uiso   1.00
C388   C     0.79020   0.19305   0.99853   0.00000  Uiso   1.00
C389   C     0.80209   0.04402   0.06004   0.00000  Uiso   1.00
C390   C     0.82339   0.00281   0.05173   0.00000  Uiso   1.00
C391   C     0.11325   0.60497   0.72014   0.00000  Uiso   1.00
H392   H     0.67784   0.05756   0.08526   0.00000  Uiso   1.00
H393   H     0.71356   0.11202   0.13817   0.00000  Uiso   1.00
H394   H     0.65475   0.11459   0.04130   0.00000  Uiso   1.00
H395   H     0.98103   0.60649   0.74567   0.00000  Uiso   1.00
H396   H     0.11406   0.84896   0.85922   0.00000  Uiso   1.00
H397   H     0.65673   0.18771   0.98829   0.00000  Uiso   1.00
H398   H     0.97519   0.48583   0.73445   0.00000  Uiso   1.00
H399   H     0.89024   0.13373   0.05229   0.00000  Uiso   1.00
H400   H     0.27095   0.85903   0.77006   0.00000  Uiso   1.00
H401   H     0.87881   0.19494   0.00652   0.00000  Uiso   1.00
H402   H     0.87176   0.02017   0.04422   0.00000  Uiso   1.00
H403   H     0.29592   0.91418   0.83099   0.00000  Uiso   1.00
H404   H     0.83858   0.25292   0.96006   0.00000  Uiso   1.00
H405   H     0.15704   0.55104   0.70623   0.00000  Uiso   1.00
O406   O     0.23233   0.91879   0.87932   0.00000  Uiso   1.00
O407   O     0.73630   0.25920   0.94466   0.00000  Uiso   1.00
O408   O     0.05012   0.44235   0.71563   0.00000  Uiso   1.00
N409   N     0.15036   0.85625   0.84557   0.00000  Uiso   1.00
N410   N     0.70110   0.19465   0.98792   0.00000  Uiso   1.00
N411   N     0.02052   0.51676   0.72891   0.00000  Uiso   1.00
N412   N     0.24822   0.89134   0.83038   0.00000  Uiso   1.00
N413   N     0.79895   0.22974   0.97274   0.00000  Uiso   1.00
N414   N     0.11837   0.55185   0.71372   0.00000  Uiso   1.00
C415   C     0.53733   0.48369   0.61233   0.00000  Uiso   1.00
C416   C     0.48844   0.44112   0.58870   0.00000  Uiso   1.00
C417   C     0.50175   0.42911   0.55942   0.00000  Uiso   1.00
C418   C     0.45039   0.38880   0.54129   0.00000  Uiso   1.00
C419   C     0.05064   0.66015   0.83629   0.00000  Uiso   1.00
C420   C     0.52562   0.44245   0.64054   0.00000  Uiso   1.00
C421   C     0.57021   0.43158   0.65485   0.00000  Uiso   1.00
C422   C     0.55015   0.39239   0.68036   0.00000  Uiso   1.00
C423   C     0.54147   0.33252   0.72253   0.00000  Uiso   1.00
C424   C     0.51919   0.53308   0.62137   0.00000  Uiso   1.00
C425   C     0.22504   0.93173   0.95291   0.00000  Uiso   1.00
C426   C     0.19956   0.96885   0.96229   0.00000  Uiso   1.00
C427   C     0.18090   0.04968   0.97469   0.00000  Uiso   1.00
C428   C     0.42243   0.43345   0.63219   0.00000  Uiso   1.00
C429   C     0.42603   0.41383   0.59949   0.00000  Uiso   1.00
C430   C     0.37463   0.37352   0.58139   0.00000  Uiso   1.00
C431   C     0.05454   0.69479   0.88543   0.00000  Uiso   1.00
C432   C     0.46321   0.41516   0.65133   0.00000  Uiso   1.00
C433   C     0.44308   0.37599   0.67682   0.00000  Uiso   1.00
C434   C     0.48762   0.36505   0.69117   0.00000  Uiso   1.00
C435   C     0.45678   0.50579   0.63216   0.00000  Uiso   1.00
C436   C     0.43124   0.54281   0.64154   0.00000  Uiso   1.00
C437   C     0.13704   0.94151   0.97309   0.00000  Uiso   1.00
H438   H     0.58592   0.50494   0.60394   0.00000  Uiso   1.00
H439   H     0.55006   0.45024   0.55109   0.00000  Uiso   1.00
H440   H     0.61850   0.45271   0.64650   0.00000  Uiso   1.00
H441   H     0.27333   0.95284   0.94456   0.00000  Uiso   1.00
H442   H     0.48278   0.37753   0.49725   0.00000  Uiso   1.00
H443   H     0.62710   0.38276   0.69845   0.00000  Uiso   1.00
H444   H     0.26881   0.06782   0.95740   0.00000  Uiso   1.00
H445   H     0.37384   0.41220   0.64059   0.00000  Uiso   1.00
H446   H     0.99301   0.68574   0.92308   0.00000  Uiso   1.00
H447   H     0.39478   0.35488   0.68516   0.00000  Uiso   1.00
H448   H     0.38294   0.52168   0.64989   0.00000  Uiso   1.00
H449   H     0.96787   0.63147   0.86196   0.00000  Uiso   1.00
H450   H     0.44553   0.30336   0.72983   0.00000  Uiso   1.00
H451   H     0.08723   0.98841   0.98878   0.00000  Uiso   1.00
O452   O     0.03124   0.63349   0.81217   0.00000  Uiso   1.00
O453   O     0.55392   0.30703   0.74280   0.00000  Uiso   1.00
O454   O     0.18784   0.10181   0.97855   0.00000  Uiso   1.00
N455   N     0.44657   0.36706   0.51161   0.00000  Uiso   1.00
N456   N     0.58149   0.37194   0.69971   0.00000  Uiso   1.00
N457   N     0.22483   0.03411   0.96352   0.00000  Uiso   1.00
N458   N     0.01553   0.65767   0.86183   0.00000  Uiso   1.00
N459   N     0.48379   0.32922   0.71660   0.00000  Uiso   1.00
N460   N     0.12712   0.99138   0.98040   0.00000  Uiso   1.00
C461   C     0.39316   0.40835   0.41104   0.00000  Uiso   1.00
C462   C     0.44203   0.44849   0.43522   0.00000  Uiso   1.00
C463   C     0.42860   0.46270   0.46401   0.00000  Uiso   1.00
C464   C     0.81329   0.16684   0.14944   0.00000  Uiso   1.00
C465   C     0.87966   0.22579   0.18845   0.00000  Uiso   1.00
C466   C     0.41008   0.44990   0.38259   0.00000  Uiso   1.00
C467   C     0.36979   0.46528   0.36712   0.00000  Uiso   1.00
C468   C     0.39425   0.50393   0.34158   0.00000  Uiso   1.00
C469   C     0.41100   0.56502   0.29887   0.00000  Uiso   1.00
C470   C     0.40625   0.35494   0.40307   0.00000  Uiso   1.00
C471   C     0.69606   0.95715   0.07149   0.00000  Uiso   1.00
C472   C     0.71730   0.91584   0.06319   0.00000  Uiso   1.00
C473   C     0.72810   0.82950   0.05229   0.00000  Uiso   1.00
C474   C     0.50824   0.44961   0.39318   0.00000  Uiso   1.00
C475   C     0.50453   0.47090   0.42551   0.00000  Uiso   1.00
C476   C     0.88926   0.17503   0.11091   0.00000  Uiso   1.00
C477   C     0.87591   0.18929   0.13972   0.00000  Uiso   1.00
C478   C     0.47258   0.47231   0.37288   0.00000  Uiso   1.00
C479   C     0.49711   0.51094   0.34736   0.00000  Uiso   1.00
C480   C     0.45687   0.52638   0.33186   0.00000  Uiso   1.00
C481   C     0.46875   0.37735   0.39337   0.00000  Uiso   1.00
C482   C     0.49005   0.33614   0.38506   0.00000  Uiso   1.00
C483   C     0.77991   0.93830   0.05347   0.00000  Uiso   1.00
H484   H     0.34450   0.39090   0.41859   0.00000  Uiso   1.00
H485   H     0.38022   0.44535   0.47151   0.00000  Uiso   1.00
H486   H     0.32142   0.44793   0.37463   0.00000  Uiso   1.00
H487   H     0.64770   0.93982   0.07900   0.00000  Uiso   1.00
H488   H     0.78073   0.18230   0.19255   0.00000  Uiso   1.00
H489   H     0.32340   0.52104   0.32162   0.00000  Uiso   1.00
H490   H     0.64185   0.81916   0.06779   0.00000  Uiso   1.00
H491   H     0.55691   0.46706   0.38562   0.00000  Uiso   1.00
H492   H     0.93762   0.19236   0.10339   0.00000  Uiso   1.00
H493   H     0.54548   0.52827   0.33986   0.00000  Uiso   1.00
H494   H     0.53843   0.35350   0.37756   0.00000  Uiso   1.00
H495   H     0.96259   0.24751   0.16433   0.00000  Uiso   1.00
H496   H     0.50525   0.58625   0.29339   0.00000  Uiso   1.00
H497   H     0.82371   0.88438   0.03956   0.00000  Uiso   1.00
O498   O     0.89899   0.25212   0.21265   0.00000  Uiso   1.00
O499   O     0.40297   0.59254   0.27799   0.00000  Uiso   1.00
O500   O     0.71679   0.77569   0.04896   0.00000  Uiso   1.00
N501   N     0.81703   0.18959   0.17890   0.00000  Uiso   1.00
N502   N     0.36776   0.52799   0.32126   0.00000  Uiso   1.00
N503   N     0.68718   0.85010   0.06224   0.00000  Uiso   1.00
N504   N     0.91488   0.22468   0.16371   0.00000  Uiso   1.00
N505   N     0.46562   0.56308   0.30607   0.00000  Uiso   1.00
N506   N     0.78504   0.88519   0.04705   0.00000  Uiso   1.00
C507   C     0.20400   0.81703   0.94567   0.00000  Uiso   1.00
C508   C     0.15510   0.77445   0.92203   0.00000  Uiso   1.00
C509   C     0.16842   0.76245   0.89276   0.00000  Uiso   1.00
C510   C     0.11706   0.72213   0.87462   0.00000  Uiso   1.00
C511   C     0.71730   0.99348   0.16962   0.00000  Uiso   1.00
C512   C     0.19229   0.77579   0.97387   0.00000  Uiso   1.00
C513   C     0.23687   0.76491   0.98819   0.00000  Uiso   1.00
C514   C     0.21681   0.72573   0.01370   0.00000  Uiso   1.00
C515   C     0.20813   0.66585   0.05586   0.00000  Uiso   1.00
C516   C     0.18585   0.86641   0.95471   0.00000  Uiso   1.00
C517   C     0.89170   0.26507   0.28624   0.00000  Uiso   1.00
C518   C     0.86623   0.30218   0.29562   0.00000  Uiso   1.00
C519   C     0.84756   0.38302   0.30802   0.00000  Uiso   1.00
C520   C     0.08909   0.76678   0.96552   0.00000  Uiso   1.00
C521   C     0.09269   0.74716   0.93282   0.00000  Uiso   1.00
C522   C     0.04130   0.70686   0.91473   0.00000  Uiso   1.00
C523   C     0.72120   0.02813   0.21876   0.00000  Uiso   1.00
C524   C     0.12988   0.74850   0.98466   0.00000  Uiso   1.00
C525   C     0.10975   0.70932   0.01016   0.00000  Uiso   1.00
C526   C     0.15429   0.69839   0.02450   0.00000  Uiso   1.00
C527   C     0.12344   0.83912   0.96549   0.00000  Uiso   1.00
C528   C     0.09791   0.87614   0.97488   0.00000  Uiso   1.00
C529   C     0.80371   0.27484   0.30643   0.00000  Uiso   1.00
H530   H     0.25258   0.83827   0.93727   0.00000  Uiso   1.00
H531   H     0.21673   0.78357   0.88442   0.00000  Uiso   1.00
H532   H     0.28517   0.78604   0.97984   0.00000  Uiso   1.00
H533   H     0.93999   0.28617   0.27790   0.00000  Uiso   1.00
H534   H     0.14945   0.71087   0.83058   0.00000  Uiso   1.00
H535   H     0.29377   0.71609   0.03178   0.00000  Uiso   1.00
H536   H     0.93547   0.40115   0.29073   0.00000  Uiso   1.00
H537   H     0.04050   0.74554   0.97392   0.00000  Uiso   1.00
H538   H     0.65967   0.01908   0.25641   0.00000  Uiso   1.00
H539   H     0.06145   0.68821   0.01850   0.00000  Uiso   1.00
H540   H     0.04961   0.85501   0.98322   0.00000  Uiso   1.00
H541   H     0.63454   0.96480   0.19529   0.00000  Uiso   1.00
H542   H     0.11219   0.63670   0.06316   0.00000  Uiso   1.00
H543   H     0.75389   0.32175   0.32211   0.00000  Uiso   1.00
O544   O     0.69791   0.96682   0.14550   0.00000  Uiso   1.00
O545   O     0.22059   0.64036   0.07613   0.00000  Uiso   1.00
O546   O     0.85450   0.43514   0.31188   0.00000  Uiso   1.00
N547   N     0.11323   0.70040   0.84494   0.00000  Uiso   1.00
N548   N     0.24816   0.70528   0.03305   0.00000  Uiso   1.00
N549   N     0.89149   0.36744   0.29685   0.00000  Uiso   1.00
N550   N     0.68219   0.99100   0.19516   0.00000  Uiso   1.00
N551   N     0.15045   0.66255   0.04993   0.00000  Uiso   1.00
N552   N     0.79379   0.32471   0.31373   0.00000  Uiso   1.00
C553   C     0.25832   0.31815   0.74437   0.00000  Uiso   1.00
C554   C     0.21818   0.32687   0.76855   0.00000  Uiso   1.00
C555   C     0.20396   0.29923   0.79734   0.00000  Uiso   1.00
C556   C     0.49983   0.97979   0.48277   0.00000  Uiso   1.00
C557   C     0.44088   0.98720   0.52179   0.00000  Uiso   1.00
C558   C     0.21677   0.29352   0.71592   0.00000  Uiso   1.00
C559   C     0.20138   0.23784   0.70045   0.00000  Uiso   1.00
C560   C     0.16274   0.22365   0.67491   0.00000  Uiso   1.00
C561   C     0.10164   0.17931   0.63220   0.00000  Uiso   1.00
C562   C     0.31173   0.38464   0.73641   0.00000  Uiso   1.00
C563   C     0.70952   0.07225   0.40483   0.00000  Uiso   1.00
C564   C     0.75082   0.13479   0.39653   0.00000  Uiso   1.00
C565   C     0.83716   0.23193   0.38562   0.00000  Uiso   1.00
C566   C     0.21705   0.39196   0.72651   0.00000  Uiso   1.00
C567   C     0.19576   0.36696   0.75885   0.00000  Uiso   1.00
C568   C     0.49164   0.04756   0.44424   0.00000  Uiso   1.00
C569   C     0.47738   0.01995   0.47305   0.00000  Uiso   1.00
C570   C     0.19436   0.33361   0.70622   0.00000  Uiso   1.00
C571   C     0.15573   0.31950   0.68069   0.00000  Uiso   1.00
C572   C     0.14028   0.26382   0.66519   0.00000  Uiso   1.00
C573   C     0.28932   0.42474   0.72671   0.00000  Uiso   1.00
C574   C     0.33053   0.48725   0.71840   0.00000  Uiso   1.00
C575   C     0.72837   0.17495   0.38680   0.00000  Uiso   1.00
H576   H     0.27577   0.28694   0.75193   0.00000  Uiso   1.00
H577   H     0.22131   0.26820   0.80484   0.00000  Uiso   1.00
H578   H     0.21874   0.20683   0.70797   0.00000  Uiso   1.00
H579   H     0.72685   0.04121   0.41234   0.00000  Uiso   1.00
H580   H     0.48437   0.93177   0.52589   0.00000  Uiso   1.00
H581   H     0.14563   0.13569   0.65495   0.00000  Uiso   1.00
H582   H     0.84751   0.15602   0.40112   0.00000  Uiso   1.00
H583   H     0.19960   0.42318   0.71896   0.00000  Uiso   1.00
H584   H     0.47430   0.07859   0.43673   0.00000  Uiso   1.00
H585   H     0.13839   0.35054   0.67319   0.00000  Uiso   1.00
H586   H     0.31317   0.51826   0.71089   0.00000  Uiso   1.00
H587   H     0.41916   0.04841   0.49766   0.00000  Uiso   1.00
H588   H     0.08042   0.25233   0.62672   0.00000  Uiso   1.00
H589   H     0.78229   0.27267   0.37289   0.00000  Uiso   1.00
O590   O     0.41455   0.98021   0.54598   0.00000  Uiso   1.00
O591   O     0.07413   0.14377   0.61132   0.00000  Uiso   1.00
O592   O     0.89098   0.27444   0.38229   0.00000  Uiso   1.00
N593   N     0.47708   0.96077   0.51223   0.00000  Uiso   1.00
N594   N     0.13868   0.17311   0.65459   0.00000  Uiso   1.00
N595   N     0.81657   0.17042   0.39558   0.00000  Uiso   1.00
N596   N     0.44199   0.02354   0.49704   0.00000  Uiso   1.00
N597   N     0.10359   0.23588   0.63940   0.00000  Uiso   1.00
N598   N     0.78148   0.23319   0.38039   0.00000  Uiso   1.00
C599   C     0.84964   0.72030   0.27900   0.00000  Uiso   1.00
C600   C     0.89221   0.71399   0.25537   0.00000  Uiso   1.00
C601   C     0.90422   0.73931   0.22609   0.00000  Uiso   1.00
C602   C     0.94454   0.72826   0.20796   0.00000  Uiso   1.00
C603   C     0.67319   0.05716   0.50296   0.00000  Uiso   1.00
C604   C     0.89088   0.74984   0.30721   0.00000  Uiso   1.00
C605   C     0.90176   0.80530   0.32152   0.00000  Uiso   1.00
C606   C     0.94094   0.82442   0.34703   0.00000  Uiso   1.00
C607   C     0.00081   0.87561   0.38919   0.00000  Uiso   1.00
C608   C     0.80026   0.65278   0.28804   0.00000  Uiso   1.00
C609   C     0.40160   0.95997   0.61958   0.00000  Uiso   1.00
C610   C     0.36448   0.89738   0.62896   0.00000  Uiso   1.00
C611   C     0.28365   0.79788   0.64136   0.00000  Uiso   1.00
C612   C     0.89988   0.65564   0.29886   0.00000  Uiso   1.00
C613   C     0.91951   0.67887   0.26615   0.00000  Uiso   1.00
C614   C     0.95981   0.66777   0.24806   0.00000  Uiso   1.00
C615   C     0.63854   0.02641   0.55209   0.00000  Uiso   1.00
C616   C     0.91817   0.71472   0.31799   0.00000  Uiso   1.00
C617   C     0.95734   0.73376   0.34349   0.00000  Uiso   1.00
C618   C     0.96828   0.78924   0.35783   0.00000  Uiso   1.00
C619   C     0.82755   0.61766   0.29882   0.00000  Uiso   1.00
C620   C     0.79052   0.55510   0.30821   0.00000  Uiso   1.00
C621   C     0.39182   0.86220   0.63976   0.00000  Uiso   1.00
H622   H     0.82839   0.74764   0.27061   0.00000  Uiso   1.00
H623   H     0.88310   0.76649   0.21775   0.00000  Uiso   1.00
H624   H     0.88063   0.83246   0.31317   0.00000  Uiso   1.00
H625   H     0.38050   0.98716   0.61123   0.00000  Uiso   1.00
H626   H     0.95580   0.77192   0.16392   0.00000  Uiso   1.00
H627   H     0.95057   0.91101   0.36511   0.00000  Uiso   1.00
H628   H     0.26552   0.86766   0.62407   0.00000  Uiso   1.00
H629   H     0.92113   0.62830   0.30726   0.00000  Uiso   1.00
H630   H     0.64759   0.97393   0.58975   0.00000  Uiso   1.00
H631   H     0.97845   0.70657   0.35183   0.00000  Uiso   1.00
H632   H     0.81166   0.52794   0.31656   0.00000  Uiso   1.00
H633   H     0.70187   0.00307   0.52863   0.00000  Uiso   1.00
H634   H     0.02997   0.80883   0.39649   0.00000  Uiso   1.00
H635   H     0.34492   0.76548   0.65545   0.00000  Uiso   1.00
O636   O     0.69984   0.06442   0.47883   0.00000  Uiso   1.00
O637   O     0.02631   0.91356   0.40947   0.00000  Uiso   1.00
O638   O     0.23153   0.75270   0.64521   0.00000  Uiso   1.00
N639   N     0.96627   0.74617   0.17828   0.00000  Uiso   1.00
N640   N     0.96139   0.87622   0.36638   0.00000  Uiso   1.00
N641   N     0.29923   0.85739   0.63018   0.00000  Uiso   1.00
N642   N     0.67566   0.02452   0.52849   0.00000  Uiso   1.00
N643   N     0.00412   0.82124   0.38326   0.00000  Uiso   1.00
N644   N     0.34195   0.80241   0.64707   0.00000  Uiso   1.00
C645   C     0.92499   0.65149   0.07771   0.00000  Uiso   1.00
C646   C     0.88484   0.66020   0.10189   0.00000  Uiso   1.00
C647   C     0.87063   0.63257   0.13067   0.00000  Uiso   1.00
C648   C     0.16649   0.31312   0.81611   0.00000  Uiso   1.00
C649   C     0.10755   0.32054   0.85512   0.00000  Uiso   1.00
C650   C     0.88344   0.62685   0.04925   0.00000  Uiso   1.00
C651   C     0.86805   0.57117   0.03379   0.00000  Uiso   1.00
C652   C     0.82940   0.55699   0.00825   0.00000  Uiso   1.00
C653   C     0.76831   0.51264   0.96553   0.00000  Uiso   1.00
C654   C     0.97840   0.71798   0.06974   0.00000  Uiso   1.00
C655   C     0.37619   0.40558   0.73816   0.00000  Uiso   1.00
C656   C     0.41749   0.46812   0.72986   0.00000  Uiso   1.00
C657   C     0.50383   0.56526   0.71896   0.00000  Uiso   1.00
C658   C     0.88372   0.72530   0.05984   0.00000  Uiso   1.00
C659   C     0.86243   0.70029   0.09218   0.00000  Uiso   1.00
C660   C     0.15831   0.38090   0.77758   0.00000  Uiso   1.00
C661   C     0.14404   0.35329   0.80639   0.00000  Uiso   1.00
C662   C     0.86102   0.66694   0.03955   0.00000  Uiso   1.00
C663   C     0.82239   0.65284   0.01402   0.00000  Uiso   1.00
C664   C     0.80695   0.59715   0.99853   0.00000  Uiso   1.00
C665   C     0.95598   0.75807   0.06004   0.00000  Uiso   1.00
C666   C     0.99719   0.82058   0.05173   0.00000  Uiso   1.00
C667   C     0.39503   0.50828   0.72014   0.00000  Uiso   1.00
H668   H     0.94244   0.62027   0.08526   0.00000  Uiso   1.00
H669   H     0.88798   0.60154   0.13817   0.00000  Uiso   1.00
H670   H     0.88541   0.54016   0.04130   0.00000  Uiso   1.00
H671   H     0.39351   0.37455   0.74567   0.00000  Uiso   1.00
H672   H     0.15104   0.26510   0.85922   0.00000  Uiso   1.00
H673   H     0.81229   0.46902   0.98829   0.00000  Uiso   1.00
H674   H     0.51417   0.48936   0.73445   0.00000  Uiso   1.00
H675   H     0.86627   0.75651   0.05229   0.00000  Uiso   1.00
H676   H     0.14097   0.41192   0.77006   0.00000  Uiso   1.00
H677   H     0.80506   0.68387   0.00652   0.00000  Uiso   1.00
H678   H     0.97983   0.85159   0.04422   0.00000  Uiso   1.00
H679   H     0.08582   0.38174   0.83099   0.00000  Uiso   1.00
H680   H     0.74708   0.58567   0.96006   0.00000  Uiso   1.00
H681   H     0.44896   0.60600   0.70623   0.00000  Uiso   1.00
O682   O     0.08121   0.31354   0.87932   0.00000  Uiso   1.00
O683   O     0.74080   0.47710   0.94466   0.00000  Uiso   1.00
O684   O     0.55765   0.60777   0.71563   0.00000  Uiso   1.00
N685   N     0.14375   0.29411   0.84557   0.00000  Uiso   1.00
N686   N     0.80535   0.50644   0.98792   0.00000  Uiso   1.00
N687   N     0.48324   0.50375   0.72891   0.00000  Uiso   1.00
N688   N     0.10866   0.35687   0.83038   0.00000  Uiso   1.00
N689   N     0.77026   0.56921   0.97274   0.00000  Uiso   1.00
N690   N     0.44815   0.56652   0.71372   0.00000  Uiso   1.00
C691   C     0.51631   0.05363   0.61233   0.00000  Uiso   1.00
C692   C     0.55888   0.04732   0.58870   0.00000  Uiso   1.00
C693   C     0.57089   0.07264   0.55942   0.00000  Uiso   1.00
C694   C     0.61120   0.06159   0.54129   0.00000  Uiso   1.00
C695   C     0.33985   0.39049   0.83629   0.00000  Uiso   1.00
C696   C     0.55755   0.08317   0.64054   0.00000  Uiso   1.00
C697   C     0.56842   0.13863   0.65485   0.00000  Uiso   1.00
C698   C     0.60761   0.15775   0.68036   0.00000  Uiso   1.00
C699   C     0.66748   0.20895   0.72253   0.00000  Uiso   1.00
C700   C     0.46692   0.98611   0.62137   0.00000  Uiso   1.00
C701   C     0.06827   0.29330   0.95291   0.00000  Uiso   1.00
C702   C     0.03115   0.23071   0.96229   0.00000  Uiso   1.00
C703   C     0.95032   0.13121   0.97469   0.00000  Uiso   1.00
C704   C     0.56655   0.98898   0.63219   0.00000  Uiso   1.00
C705   C     0.58617   0.01220   0.59949   0.00000  Uiso   1.00
C706   C     0.62648   0.00111   0.58139   0.00000  Uiso   1.00
C707   C     0.30521   0.35974   0.88543   0.00000  Uiso   1.00
C708   C     0.58484   0.04805   0.65133   0.00000  Uiso   1.00
C709   C     0.62401   0.06709   0.67682   0.00000  Uiso   1.00
C710   C     0.63495   0.12257   0.69117   0.00000  Uiso   1.00
C711   C     0.49421   0.95099   0.63216   0.00000  Uiso   1.00
C712   C     0.45719   0.88843   0.64154   0.00000  Uiso   1.00
C713   C     0.05849   0.19553   0.97309   0.00000  Uiso   1.00
H714   H     0.49506   0.08098   0.60394   0.00000  Uiso   1.00
H715   H     0.54976   0.09982   0.55109   0.00000  Uiso   1.00
H716   H     0.54729   0.16579   0.64650   0.00000  Uiso   1.00
H717   H     0.04716   0.32049   0.94456   0.00000  Uiso   1.00
H718   H     0.62247   0.10525   0.49725   0.00000  Uiso   1.00
H719   H     0.61724   0.24434   0.69845   0.00000  Uiso   1.00
H720   H     0.93218   0.20099   0.95740   0.00000  Uiso   1.00
H721   H     0.58780   0.96163   0.64059   0.00000  Uiso   1.00
H722   H     0.31426   0.30726   0.92308   0.00000  Uiso   1.00
H723   H     0.64512   0.03990   0.68516   0.00000  Uiso   1.00
H724   H     0.47832   0.86127   0.64989   0.00000  Uiso   1.00
H725   H     0.36853   0.33641   0.86196   0.00000  Uiso   1.00
H726   H     0.69664   0.14216   0.72983   0.00000  Uiso   1.00
H727   H     0.01159   0.09881   0.98878   0.00000  Uiso   1.00
O728   O     0.36651   0.39775   0.81217   0.00000  Uiso   1.00
O729   O     0.69297   0.24689   0.74280   0.00000  Uiso   1.00
O730   O     0.89819   0.08603   0.97855   0.00000  Uiso   1.00
N731   N     0.63294   0.07950   0.51161   0.00000  Uiso   1.00
N732   N     0.62806   0.20955   0.69971   0.00000  Uiso   1.00
N733   N     0.96589   0.19072   0.96352   0.00000  Uiso   1.00
N734   N     0.34233   0.35786   0.86183   0.00000  Uiso   1.00
N735   N     0.67078   0.15457   0.71660   0.00000  Uiso   1.00
N736   N     0.00862   0.13574   0.98040   0.00000  Uiso   1.00
C737   C     0.59165   0.98482   0.41104   0.00000  Uiso   1.00
C738   C     0.55151   0.99354   0.43522   0.00000  Uiso   1.00
C739   C     0.53730   0.96590   0.46401   0.00000  Uiso   1.00
C740   C     0.83316   0.64645   0.14944   0.00000  Uiso   1.00
C741   C     0.77421   0.65387   0.18845   0.00000  Uiso   1.00
C742   C     0.55010   0.96018   0.38259   0.00000  Uiso   1.00
C743   C     0.53472   0.90451   0.36712   0.00000  Uiso   1.00
C744   C     0.49607   0.89032   0.34158   0.00000  Uiso   1.00
C745   C     0.43498   0.84598   0.29887   0.00000  Uiso   1.00
C746   C     0.64506   0.05131   0.40307   0.00000  Uiso   1.00
C747   C     0.04285   0.73892   0.07149   0.00000  Uiso   1.00
C748   C     0.08416   0.80145   0.06319   0.00000  Uiso   1.00
C749   C     0.17050   0.89859   0.05229   0.00000  Uiso   1.00
C750   C     0.55039   0.05863   0.39318   0.00000  Uiso   1.00
C751   C     0.52910   0.03363   0.42551   0.00000  Uiso   1.00
C752   C     0.82497   0.71423   0.11091   0.00000  Uiso   1.00
C753   C     0.81071   0.68662   0.13972   0.00000  Uiso   1.00
C754   C     0.52769   0.00027   0.37288   0.00000  Uiso   1.00
C755   C     0.48906   0.98617   0.34736   0.00000  Uiso   1.00
C756   C     0.47362   0.93048   0.33186   0.00000  Uiso   1.00
C757   C     0.62265   0.09140   0.39337   0.00000  Uiso   1.00
C758   C     0.66386   0.15391   0.38506   0.00000  Uiso   1.00
C759   C     0.06170   0.84161   0.05347   0.00000  Uiso   1.00
H760   H     0.60910   0.95360   0.41859   0.00000  Uiso   1.00
H761   H     0.55465   0.93487   0.47151   0.00000  Uiso   1.00
H762   H     0.55207   0.87349   0.37463   0.00000  Uiso   1.00
H763   H     0.06018   0.70788   0.07900   0.00000  Uiso   1.00
H764   H     0.81770   0.59843   0.19255   0.00000  Uiso   1.00
H765   H     0.47896   0.80236   0.32162   0.00000  Uiso   1.00
H766   H     0.18084   0.82269   0.06779   0.00000  Uiso   1.00
H767   H     0.53294   0.08984   0.38562   0.00000  Uiso   1.00
H768   H     0.80764   0.74526   0.10339   0.00000  Uiso   1.00
H769   H     0.47173   0.01721   0.33986   0.00000  Uiso   1.00
H770   H     0.64650   0.18493   0.37756   0.00000  Uiso   1.00
H771   H     0.75249   0.71508   0.16433   0.00000  Uiso   1.00
H772   H     0.41375   0.91900   0.29339   0.00000  Uiso   1.00
H773   H     0.11562   0.93933   0.03956   0.00000  Uiso   1.00
O774   O     0.74788   0.64688   0.21265   0.00000  Uiso   1.00
O775   O     0.40746   0.81044   0.27799   0.00000  Uiso   1.00
O776   O     0.22431   0.94110   0.04896   0.00000  Uiso   1.00
N777   N     0.81041   0.62744   0.17890   0.00000  Uiso   1.00
N778   N     0.47201   0.83978   0.32126   0.00000  Uiso   1.00
N779   N     0.14990   0.83709   0.06224   0.00000  Uiso   1.00
N780   N     0.77532   0.69021   0.16371   0.00000  Uiso   1.00
N781   N     0.43692   0.90254   0.30607   0.00000  Uiso   1.00
N782   N     0.11481   0.89985   0.04705   0.00000  Uiso   1.00
C783   C     0.18297   0.38697   0.94567   0.00000  Uiso   1.00
C784   C     0.22555   0.38065   0.92203   0.00000  Uiso   1.00
C785   C     0.23755   0.40598   0.89276   0.00000  Uiso   1.00
C786   C     0.27787   0.39493   0.87462   0.00000  Uiso   1.00
C787   C     0.00652   0.72382   0.16962   0.00000  Uiso   1.00
C788   C     0.22421   0.41650   0.97387   0.00000  Uiso   1.00
C789   C     0.23509   0.47196   0.98819   0.00000  Uiso   1.00
C790   C     0.27427   0.49109   0.01370   0.00000  Uiso   1.00
C791   C     0.33415   0.54228   0.05586   0.00000  Uiso   1.00
C792   C     0.13359   0.31945   0.95471   0.00000  Uiso   1.00
C793   C     0.73493   0.62663   0.28624   0.00000  Uiso   1.00
C794   C     0.69782   0.56405   0.29562   0.00000  Uiso   1.00
C795   C     0.61698   0.46455   0.30802   0.00000  Uiso   1.00
C796   C     0.23322   0.32231   0.96552   0.00000  Uiso   1.00
C797   C     0.25284   0.34553   0.93282   0.00000  Uiso   1.00
C798   C     0.29314   0.33444   0.91473   0.00000  Uiso   1.00
C799   C     0.97187   0.69308   0.21876   0.00000  Uiso   1.00
C800   C     0.25150   0.38139   0.98466   0.00000  Uiso   1.00
C801   C     0.29068   0.40043   0.01016   0.00000  Uiso   1.00
C802   C     0.30161   0.45590   0.02450   0.00000  Uiso   1.00
C803   C     0.16088   0.28432   0.96549   0.00000  Uiso   1.00
C804   C     0.12386   0.22177   0.97488   0.00000  Uiso   1.00
C805   C     0.72516   0.52886   0.30643   0.00000  Uiso   1.00
H806   H     0.16173   0.41431   0.93727   0.00000  Uiso   1.00
H807   H     0.21643   0.43316   0.88442   0.00000  Uiso   1.00
H808   H     0.21396   0.49913   0.97984   0.00000  Uiso   1.00
H809   H     0.71383   0.65383   0.27790   0.00000  Uiso   1.00
H810   H     0.28913   0.43858   0.83058   0.00000  Uiso   1.00
H811   H     0.28391   0.57767   0.03178   0.00000  Uiso   1.00
H812   H     0.59885   0.53432   0.29073   0.00000  Uiso   1.00
H813   H     0.25446   0.29497   0.97392   0.00000  Uiso   1.00
H814   H     0.98092   0.64060   0.25641   0.00000  Uiso   1.00
H815   H     0.31179   0.37324   0.01850   0.00000  Uiso   1.00
H816   H     0.14499   0.19460   0.98322   0.00000  Uiso   1.00
H817   H     0.03520   0.66974   0.19529   0.00000  Uiso   1.00
H818   H     0.36330   0.47550   0.06316   0.00000  Uiso   1.00
H819   H     0.67825   0.43215   0.32211   0.00000  Uiso   1.00
O820   O     0.03318   0.73109   0.14550   0.00000  Uiso   1.00
O821   O     0.35964   0.58023   0.07613   0.00000  Uiso   1.00
O822   O     0.56486   0.41936   0.31188   0.00000  Uiso   1.00
N823   N     0.29960   0.41284   0.84494   0.00000  Uiso   1.00
N824   N     0.29472   0.54288   0.03305   0.00000  Uiso   1.00
N825   N     0.63256   0.52406   0.29685   0.00000  Uiso   1.00
N826   N     0.00900   0.69119   0.19516   0.00000  Uiso   1.00
N827   N     0.33745   0.48790   0.04993   0.00000  Uiso   1.00
N828   N     0.67529   0.46907   0.31373   0.00000  Uiso   1.00
C829   C     0.05983   0.31815   0.24437   0.00000  Uiso   1.00
C830   C     0.10869   0.32687   0.26855   0.00000  Uiso   1.00
C831   C     0.09527   0.29923   0.29734   0.00000  Uiso   1.00
C832   C     0.47996   0.97979   0.98277   0.00000  Uiso   1.00
C833   C     0.54632   0.98720   0.02179   0.00000  Uiso   1.00
C834   C     0.07675   0.29352   0.21592   0.00000  Uiso   1.00
C835   C     0.03646   0.23784   0.20045   0.00000  Uiso   1.00
C836   C     0.06092   0.22365   0.17491   0.00000  Uiso   1.00
C837   C     0.07767   0.17931   0.13220   0.00000  Uiso   1.00
C838   C     0.07291   0.38464   0.23641   0.00000  Uiso   1.00
C839   C     0.36273   0.07225   0.90483   0.00000  Uiso   1.00
C840   C     0.38396   0.13479   0.89653   0.00000  Uiso   1.00
C841   C     0.39476   0.23193   0.88562   0.00000  Uiso   1.00
C842   C     0.17491   0.39196   0.22651   0.00000  Uiso   1.00
C843   C     0.17120   0.36696   0.25885   0.00000  Uiso   1.00
C844   C     0.55592   0.04756   0.94424   0.00000  Uiso   1.00
C845   C     0.54258   0.01995   0.97305   0.00000  Uiso   1.00
C846   C     0.13925   0.33361   0.20622   0.00000  Uiso   1.00
C847   C     0.16377   0.31950   0.18069   0.00000  Uiso   1.00
C848   C     0.12353   0.26382   0.16519   0.00000  Uiso   1.00
C849   C     0.13542   0.42474   0.22671   0.00000  Uiso   1.00
C850   C     0.15672   0.48725   0.21840   0.00000  Uiso   1.00
C851   C     0.44658   0.17495   0.88680   0.00000  Uiso   1.00
H852   H     0.01117   0.28694   0.25193   0.00000  Uiso   1.00
H853   H     0.04689   0.26820   0.30484   0.00000  Uiso   1.00
H854   H     0.98809   0.20683   0.20797   0.00000  Uiso   1.00
H855   H     0.31437   0.04121   0.91234   0.00000  Uiso   1.00
H856   H     0.44740   0.93177   0.02589   0.00000  Uiso   1.00
H857   H     0.99006   0.13569   0.15495   0.00000  Uiso   1.00
H858   H     0.30852   0.15602   0.90112   0.00000  Uiso   1.00
H859   H     0.22357   0.42318   0.21896   0.00000  Uiso   1.00
H860   H     0.60429   0.07859   0.93673   0.00000  Uiso   1.00
H861   H     0.21215   0.35054   0.17319   0.00000  Uiso   1.00
H862   H     0.20509   0.51826   0.21089   0.00000  Uiso   1.00
H863   H     0.62925   0.04841   0.99766   0.00000  Uiso   1.00
H864   H     0.17192   0.25233   0.12672   0.00000  Uiso   1.00
H865   H     0.49038   0.27267   0.87289   0.00000  Uiso   1.00
O866   O     0.56566   0.98021   0.04598   0.00000  Uiso   1.00
O867   O     0.06964   0.14377   0.11132   0.00000  Uiso   1.00
O868   O     0.38346   0.27444   0.88229   0.00000  Uiso   1.00
N869   N     0.48369   0.96077   0.01223   0.00000  Uiso   1.00
N870   N     0.03443   0.17311   0.15459   0.00000  Uiso   1.00
N871   N     0.35385   0.17042   0.89558   0.00000  Uiso   1.00
N872   N     0.58155   0.02354   0.99704   0.00000  Uiso   1.00
N873   N     0.13229   0.23588   0.13940   0.00000  Uiso   1.00
N874   N     0.45171   0.23319   0.88039   0.00000  Uiso   1.00
C875   C     0.87066   0.72030   0.77900   0.00000  Uiso   1.00
C876   C     0.82177   0.71399   0.75537   0.00000  Uiso   1.00
C877   C     0.83509   0.73931   0.72609   0.00000  Uiso   1.00
C878   C     0.78373   0.72826   0.70796   0.00000  Uiso   1.00
C879   C     0.38397   0.05716   0.00296   0.00000  Uiso   1.00
C880   C     0.85895   0.74984   0.80721   0.00000  Uiso   1.00
C881   C     0.90354   0.80530   0.82152   0.00000  Uiso   1.00
C882   C     0.88348   0.82442   0.84703   0.00000  Uiso   1.00
C883   C     0.87480   0.87561   0.88919   0.00000  Uiso   1.00
C884   C     0.85252   0.65278   0.78804   0.00000  Uiso   1.00
C885   C     0.55837   0.95997   0.11958   0.00000  Uiso   1.00
C886   C     0.53290   0.89738   0.12896   0.00000  Uiso   1.00
C887   C     0.51423   0.79788   0.14136   0.00000  Uiso   1.00
C888   C     0.75576   0.65564   0.79886   0.00000  Uiso   1.00
C889   C     0.75936   0.67887   0.76615   0.00000  Uiso   1.00
C890   C     0.70796   0.66777   0.74806   0.00000  Uiso   1.00
C891   C     0.38787   0.02641   0.05209   0.00000  Uiso   1.00
C892   C     0.79655   0.71472   0.81799   0.00000  Uiso   1.00
C893   C     0.77642   0.73376   0.84349   0.00000  Uiso   1.00
C894   C     0.82096   0.78924   0.85783   0.00000  Uiso   1.00
C895   C     0.79011   0.61766   0.79882   0.00000  Uiso   1.00
C896   C     0.76458   0.55510   0.80821   0.00000  Uiso   1.00
C897   C     0.47037   0.86220   0.13976   0.00000  Uiso   1.00
H898   H     0.91925   0.74764   0.77061   0.00000  Uiso   1.00
H899   H     0.88339   0.76649   0.71775   0.00000  Uiso   1.00
H900   H     0.95183   0.83246   0.81317   0.00000  Uiso   1.00
H901   H     0.60666   0.98716   0.11123   0.00000  Uiso   1.00
H902   H     0.81612   0.77192   0.66392   0.00000  Uiso   1.00
H903   H     0.96044   0.91101   0.86511   0.00000  Uiso   1.00
H904   H     0.60214   0.86766   0.12407   0.00000  Uiso   1.00
H905   H     0.70717   0.62830   0.80726   0.00000  Uiso   1.00
H906   H     0.32634   0.97393   0.08975   0.00000  Uiso   1.00
H907   H     0.72812   0.70657   0.85183   0.00000  Uiso   1.00
H908   H     0.71628   0.52794   0.81656   0.00000  Uiso   1.00
H909   H     0.30120   0.00307   0.02863   0.00000  Uiso   1.00
H910   H     0.77886   0.80883   0.89649   0.00000  Uiso   1.00
H911   H     0.42056   0.76548   0.15545   0.00000  Uiso   1.00
O912   O     0.36458   0.06442   0.97883   0.00000  Uiso   1.00
O913   O     0.88726   0.91356   0.90947   0.00000  Uiso   1.00
O914   O     0.52117   0.75270   0.14521   0.00000  Uiso   1.00
N915   N     0.77990   0.74617   0.67828   0.00000  Uiso   1.00
N916   N     0.91483   0.87622   0.86638   0.00000  Uiso   1.00
N917   N     0.55816   0.85739   0.13018   0.00000  Uiso   1.00
N918   N     0.34886   0.02452   0.02849   0.00000  Uiso   1.00
N919   N     0.81712   0.82124   0.88326   0.00000  Uiso   1.00
N920   N     0.46045   0.80241   0.14707   0.00000  Uiso   1.00
C921   C     0.72650   0.65149   0.57771   0.00000  Uiso   1.00
C922   C     0.77536   0.66020   0.60189   0.00000  Uiso   1.00
C923   C     0.76194   0.63257   0.63067   0.00000  Uiso   1.00
C924   C     0.14662   0.31312   0.31611   0.00000  Uiso   1.00
C925   C     0.21299   0.32054   0.35512   0.00000  Uiso   1.00
C926   C     0.74341   0.62685   0.54925   0.00000  Uiso   1.00
C927   C     0.70312   0.57117   0.53379   0.00000  Uiso   1.00
C928   C     0.72758   0.55699   0.50825   0.00000  Uiso   1.00
C929   C     0.74433   0.51264   0.46553   0.00000  Uiso   1.00
C930   C     0.73958   0.71798   0.56974   0.00000  Uiso   1.00
C931   C     0.02940   0.40558   0.23816   0.00000  Uiso   1.00
C932   C     0.05063   0.46812   0.22986   0.00000  Uiso   1.00
C933   C     0.06143   0.56526   0.21896   0.00000  Uiso   1.00
C934   C     0.84157   0.72530   0.55984   0.00000  Uiso   1.00
C935   C     0.83787   0.70029   0.59218   0.00000  Uiso   1.00
C936   C     0.22259   0.38090   0.27758   0.00000  Uiso   1.00
C937   C     0.20924   0.35329   0.30639   0.00000  Uiso   1.00
C938   C     0.80592   0.66694   0.53955   0.00000  Uiso   1.00
C939   C     0.83044   0.65284   0.51402   0.00000  Uiso   1.00
C940   C     0.79020   0.59715   0.49853   0.00000  Uiso   1.00
C941   C     0.80209   0.75807   0.56004   0.00000  Uiso   1.00
C942   C     0.82339   0.82058   0.55173   0.00000  Uiso   1.00
C943   C     0.11325   0.50828   0.22014   0.00000  Uiso   1.00
H944   H     0.67784   0.62027   0.58526   0.00000  Uiso   1.00
H945   H     0.71356   0.60154   0.63817   0.00000  Uiso   1.00
H946   H     0.65475   0.54016   0.54130   0.00000  Uiso   1.00
H947   H     0.98103   0.37455   0.24567   0.00000  Uiso   1.00
H948   H     0.11406   0.26510   0.35922   0.00000  Uiso   1.00
H949   H     0.65673   0.46902   0.48829   0.00000  Uiso   1.00
H950   H     0.97519   0.48936   0.23445   0.00000  Uiso   1.00
H951   H     0.89024   0.75651   0.55229   0.00000  Uiso   1.00
H952   H     0.27095   0.41192   0.27006   0.00000  Uiso   1.00
H953   H     0.87881   0.68387   0.50652   0.00000  Uiso   1.00
H954   H     0.87176   0.85159   0.54422   0.00000  Uiso   1.00
H955   H     0.29592   0.38174   0.33099   0.00000  Uiso   1.00
H956   H     0.83858   0.58567   0.46006   0.00000  Uiso   1.00
H957   H     0.15704   0.60600   0.20623   0.00000  Uiso   1.00
O958   O     0.23233   0.31354   0.37932   0.00000  Uiso   1.00
O959   O     0.73630   0.47710   0.44466   0.00000  Uiso   1.00
O960   O     0.05012   0.60777   0.21563   0.00000  Uiso   1.00
N961   N     0.15036   0.29411   0.34557   0.00000  Uiso   1.00
N962   N     0.70110   0.50644   0.48792   0.00000  Uiso   1.00
N963   N     0.02052   0.50375   0.22891   0.00000  Uiso   1.00
N964   N     0.24822   0.35687   0.33038   0.00000  Uiso   1.00
N965   N     0.79895   0.56921   0.47274   0.00000  Uiso   1.00
N966   N     0.11837   0.56652   0.21372   0.00000  Uiso   1.00
C967   C     0.53733   0.05363   0.11233   0.00000  Uiso   1.00
C968   C     0.48844   0.04732   0.08870   0.00000  Uiso   1.00
C969   C     0.50175   0.07264   0.05942   0.00000  Uiso   1.00
C970   C     0.45039   0.06159   0.04129   0.00000  Uiso   1.00
C971   C     0.05064   0.39049   0.33629   0.00000  Uiso   1.00
C972   C     0.52562   0.08317   0.14054   0.00000  Uiso   1.00
C973   C     0.57021   0.13863   0.15485   0.00000  Uiso   1.00
C974   C     0.55015   0.15775   0.18036   0.00000  Uiso   1.00
C975   C     0.54147   0.20895   0.22253   0.00000  Uiso   1.00
C976   C     0.51919   0.98611   0.12137   0.00000  Uiso   1.00
C977   C     0.22504   0.29330   0.45291   0.00000  Uiso   1.00
C978   C     0.19956   0.23071   0.46229   0.00000  Uiso   1.00
C979   C     0.18090   0.13121   0.47469   0.00000  Uiso   1.00
C980   C     0.42243   0.98898   0.13219   0.00000  Uiso   1.00
C981   C     0.42603   0.01220   0.09949   0.00000  Uiso   1.00
C982   C     0.37463   0.00111   0.08139   0.00000  Uiso   1.00
C983   C     0.05454   0.35974   0.38543   0.00000  Uiso   1.00
C984   C     0.46321   0.04805   0.15133   0.00000  Uiso   1.00
C985   C     0.44308   0.06709   0.17682   0.00000  Uiso   1.00
C986   C     0.48762   0.12257   0.19117   0.00000  Uiso   1.00
C987   C     0.45678   0.95099   0.13216   0.00000  Uiso   1.00
C988   C     0.43124   0.88843   0.14154   0.00000  Uiso   1.00
C989   C     0.13704   0.19553   0.47309   0.00000  Uiso   1.00
H990   H     0.58592   0.08098   0.10394   0.00000  Uiso   1.00
H991   H     0.55006   0.09982   0.05109   0.00000  Uiso   1.00
H992   H     0.61850   0.16579   0.14650   0.00000  Uiso   1.00
H993   H     0.27333   0.32049   0.44456   0.00000  Uiso   1.00
H994   H     0.48278   0.10525   0.99725   0.00000  Uiso   1.00
H995   H     0.62710   0.24434   0.19845   0.00000  Uiso   1.00
H996   H     0.26881   0.20099   0.45740   0.00000  Uiso   1.00
H997   H     0.37384   0.96163   0.14059   0.00000  Uiso   1.00
H998   H     0.99301   0.30726   0.42308   0.00000  Uiso   1.00
H999   H     0.39478   0.03990   0.18516   0.00000  Uiso   1.00
H1000  H     0.38294   0.86127   0.14989   0.00000  Uiso   1.00
H1001  H     0.96787   0.33641   0.36196   0.00000  Uiso   1.00
H1002  H     0.44553   0.14216   0.22983   0.00000  Uiso   1.00
H1003  H     0.08723   0.09881   0.48878   0.00000  Uiso   1.00
O1004  O     0.03124   0.39775   0.31217   0.00000  Uiso   1.00
O1005  O     0.55392   0.24689   0.24280   0.00000  Uiso   1.00
O1006  O     0.18784   0.08603   0.47855   0.00000  Uiso   1.00
N1007  N     0.44657   0.07950   0.01161   0.00000  Uiso   1.00
N1008  N     0.58149   0.20955   0.19971   0.00000  Uiso   1.00
N1009  N     0.22483   0.19072   0.46352   0.00000  Uiso   1.00
N1010  N     0.01553   0.35786   0.36183   0.00000  Uiso   1.00
N1011  N     0.48379   0.15457   0.21660   0.00000  Uiso   1.00
N1012  N     0.12712   0.13574   0.48040   0.00000  Uiso   1.00
C1013  C     0.39316   0.98482   0.91104   0.00000  Uiso   1.00
C1014  C     0.44203   0.99354   0.93522   0.00000  Uiso   1.00
C1015  C     0.42860   0.96590   0.96401   0.00000  Uiso   1.00
C1016  C     0.81329   0.64645   0.64944   0.00000  Uiso   1.00
C1017  C     0.87966   0.65387   0.68845   0.00000  Uiso   1.00
C1018  C     0.41008   0.96018   0.88259   0.00000  Uiso   1.00
C1019  C     0.36979   0.90451   0.86712   0.00000  Uiso   1.00
C1020  C     0.39425   0.89032   0.84158   0.00000  Uiso   1.00
C1021  C     0.41100   0.84598   0.79887   0.00000  Uiso   1.00
C1022  C     0.40625   0.05131   0.90307   0.00000  Uiso   1.00
C1023  C     0.69606   0.73892   0.57149   0.00000  Uiso   1.00
C1024  C     0.71730   0.80145   0.56319   0.00000  Uiso   1.00
C1025  C     0.72810   0.89859   0.55229   0.00000  Uiso   1.00
C1026  C     0.50824   0.05863   0.89318   0.00000  Uiso   1.00
C1027  C     0.50453   0.03363   0.92551   0.00000  Uiso   1.00
C1028  C     0.88926   0.71423   0.61091   0.00000  Uiso   1.00
C1029  C     0.87591   0.68662   0.63972   0.00000  Uiso   1.00
C1030  C     0.47258   0.00027   0.87288   0.00000  Uiso   1.00
C1031  C     0.49711   0.98617   0.84736   0.00000  Uiso   1.00
C1032  C     0.45687   0.93048   0.83186   0.00000  Uiso   1.00
C1033  C     0.46875   0.09140   0.89337   0.00000  Uiso   1.00
C1034  C     0.49005   0.15391   0.88506   0.00000  Uiso   1.00
C1035  C     0.77991   0.84161   0.55347   0.00000  Uiso   1.00
H1036  H     0.34450   0.95360   0.91859   0.00000  Uiso   1.00
H1037  H     0.38022   0.93487   0.97151   0.00000  Uiso   1.00
H1038  H     0.32142   0.87349   0.87463   0.00000  Uiso   1.00
H1039  H     0.64770   0.70788   0.57900   0.00000  Uiso   1.00
H1040  H     0.78073   0.59843   0.69255   0.00000  Uiso   1.00
H1041  H     0.32340   0.80236   0.82162   0.00000  Uiso   1.00
H1042  H     0.64185   0.82269   0.56779   0.00000  Uiso   1.00
H1043  H     0.55691   0.08984   0.88562   0.00000  Uiso   1.00
H1044  H     0.93762   0.74526   0.60339   0.00000  Uiso   1.00
H1045  H     0.54548   0.01721   0.83986   0.00000  Uiso   1.00
H1046  H     0.53843   0.18493   0.87756   0.00000  Uiso   1.00
H1047  H     0.96259   0.71508   0.66433   0.00000  Uiso   1.00
H1048  H     0.50525   0.91900   0.79339   0.00000  Uiso   1.00
H1049  H     0.82371   0.93933   0.53956   0.00000  Uiso   1.00
O1050  O     0.89899   0.64688   0.71265   0.00000  Uiso   1.00
O1051  O     0.40297   0.81044   0.77799   0.00000  Uiso   1.00
O1052  O     0.71679   0.94110   0.54896   0.00000  Uiso   1.00
N1053  N     0.81703   0.62744   0.67890   0.00000  Uiso   1.00
N1054  N     0.36776   0.83978   0.82126   0.00000  Uiso   1.00
N1055  N     0.68718   0.83709   0.56224   0.00000  Uiso   1.00
N1056  N     0.91488   0.69021   0.66371   0.00000  Uiso   1.00
N1057  N     0.46562   0.90254   0.80607   0.00000  Uiso   1.00
N1058  N     0.78504   0.89985   0.54705   0.00000  Uiso   1.00
C1059  C     0.20400   0.38697   0.44567   0.00000  Uiso   1.00
C1060  C     0.15510   0.38065   0.42203   0.00000  Uiso   1.00
C1061  C     0.16842   0.40598   0.39276   0.00000  Uiso   1.00
C1062  C     0.11706   0.39493   0.37462   0.00000  Uiso   1.00
C1063  C     0.71730   0.72382   0.66962   0.00000  Uiso   1.00
C1064  C     0.19229   0.41650   0.47387   0.00000  Uiso   1.00
C1065  C     0.23687   0.47196   0.48819   0.00000  Uiso   1.00
C1066  C     0.21681   0.49109   0.51370   0.00000  Uiso   1.00
C1067  C     0.20813   0.54228   0.55586   0.00000  Uiso   1.00
C1068  C     0.18585   0.31945   0.45471   0.00000  Uiso   1.00
C1069  C     0.89170   0.62663   0.78624   0.00000  Uiso   1.00
C1070  C     0.86623   0.56405   0.79562   0.00000  Uiso   1.00
C1071  C     0.84756   0.46455   0.80802   0.00000  Uiso   1.00
C1072  C     0.08909   0.32231   0.46552   0.00000  Uiso   1.00
C1073  C     0.09269   0.34553   0.43282   0.00000  Uiso   1.00
C1074  C     0.04130   0.33444   0.41473   0.00000  Uiso   1.00
C1075  C     0.72120   0.69308   0.71876   0.00000  Uiso   1.00
C1076  C     0.12988   0.38139   0.48466   0.00000  Uiso   1.00
C1077  C     0.10975   0.40043   0.51016   0.00000  Uiso   1.00
C1078  C     0.15429   0.45590   0.52450   0.00000  Uiso   1.00
C1079  C     0.12344   0.28432   0.46549   0.00000  Uiso   1.00
C1080  C     0.09791   0.22177   0.47488   0.00000  Uiso   1.00
C1081  C     0.80371   0.52886   0.80643   0.00000  Uiso   1.00
H1082  H     0.25258   0.41431   0.43727   0.00000  Uiso   1.00
H1083  H     0.21673   0.43316   0.38442   0.00000  Uiso   1.00
H1084  H     0.28517   0.49913   0.47984   0.00000  Uiso   1.00
H1085  H     0.93999   0.65383   0.77790   0.00000  Uiso   1.00
H1086  H     0.14945   0.43858   0.33058   0.00000  Uiso   1.00
H1087  H     0.29377   0.57767   0.53178   0.00000  Uiso   1.00
H1088  H     0.93547   0.53432   0.79073   0.00000  Uiso   1.00
H1089  H     0.04050   0.29497   0.47392   0.00000  Uiso   1.00
H1090  H     0.65967   0.64060   0.75641   0.00000  Uiso   1.00
H1091  H     0.06145   0.37324   0.51850   0.00000  Uiso   1.00
H1092  H     0.04961   0.19460   0.48322   0.00000  Uiso   1.00
H1093  H     0.63454   0.66974   0.69529   0.00000  Uiso   1.00
H1094  H     0.11219   0.47550   0.56316   0.00000  Uiso   1.00
H1095  H     0.75389   0.43215   0.82211   0.00000  Uiso   1.00
O1096  O     0.69791   0.73109   0.64550   0.00000  Uiso   1.00
O1097  O     0.22059   0.58023   0.57613   0.00000  Uiso   1.00
O1098  O     0.85450   0.41936   0.81188   0.00000  Uiso   1.00
N1099  N     0.11323   0.41284   0.34494   0.00000  Uiso   1.00
N1100  N     0.24816   0.54288   0.53305   0.00000  Uiso   1.00
N1101  N     0.89149   0.52406   0.79685   0.00000  Uiso   1.00
N1102  N     0.68219   0.69119   0.69516   0.00000  Uiso   1.00
N1103  N     0.15045   0.48790   0.54993   0.00000  Uiso   1.00
N1104  N     0.79379   0.46907   0.81373   0.00000  Uiso   1.00
C1105  C     0.25832   0.94017   0.24437   0.00000  Uiso   1.00
C1106  C     0.21818   0.89131   0.26855   0.00000  Uiso   1.00
C1107  C     0.20396   0.90473   0.29734   0.00000  Uiso   1.00
C1108  C     0.49983   0.52004   0.98277   0.00000  Uiso   1.00
C1109  C     0.44088   0.45368   0.02179   0.00000  Uiso   1.00
C1110  C     0.21677   0.92325   0.21592   0.00000  Uiso   1.00
C1111  C     0.20138   0.96354   0.20045   0.00000  Uiso   1.00
C1112  C     0.16274   0.93908   0.17491   0.00000  Uiso   1.00
C1113  C     0.10164   0.92233   0.13220   0.00000  Uiso   1.00
C1114  C     0.31173   0.92709   0.23641   0.00000  Uiso   1.00
C1115  C     0.70952   0.63727   0.90483   0.00000  Uiso   1.00
C1116  C     0.75082   0.61604   0.89653   0.00000  Uiso   1.00
C1117  C     0.83716   0.60524   0.88562   0.00000  Uiso   1.00
C1118  C     0.21705   0.82509   0.22651   0.00000  Uiso   1.00
C1119  C     0.19576   0.82880   0.25885   0.00000  Uiso   1.00
C1120  C     0.49164   0.44408   0.94424   0.00000  Uiso   1.00
C1121  C     0.47738   0.45742   0.97305   0.00000  Uiso   1.00
C1122  C     0.19436   0.86075   0.20622   0.00000  Uiso   1.00
C1123  C     0.15573   0.83623   0.18069   0.00000  Uiso   1.00
C1124  C     0.14028   0.87647   0.16519   0.00000  Uiso   1.00
C1125  C     0.28932   0.86458   0.22671   0.00000  Uiso   1.00
C1126  C     0.33053   0.84328   0.21840   0.00000  Uiso   1.00
C1127  C     0.72837   0.55342   0.88680   0.00000  Uiso   1.00
H1128  H     0.27577   0.98883   0.25193   0.00000  Uiso   1.00
H1129  H     0.22131   0.95311   0.30484   0.00000  Uiso   1.00
H1130  H     0.21874   0.01191   0.20797   0.00000  Uiso   1.00
H1131  H     0.72685   0.68563   0.91234   0.00000  Uiso   1.00
H1132  H     0.48437   0.55260   0.02589   0.00000  Uiso   1.00
H1133  H     0.14563   0.00994   0.15495   0.00000  Uiso   1.00
H1134  H     0.84751   0.69148   0.90112   0.00000  Uiso   1.00
H1135  H     0.19960   0.77643   0.21896   0.00000  Uiso   1.00
H1136  H     0.47430   0.39571   0.93673   0.00000  Uiso   1.00
H1137  H     0.13839   0.78785   0.17319   0.00000  Uiso   1.00
H1138  H     0.31317   0.79491   0.21089   0.00000  Uiso   1.00
H1139  H     0.41916   0.37075   0.99766   0.00000  Uiso   1.00
H1140  H     0.08042   0.82808   0.12672   0.00000  Uiso   1.00
H1141  H     0.78229   0.50962   0.87289   0.00000  Uiso   1.00
O1142  O     0.41455   0.43434   0.04598   0.00000  Uiso   1.00
O1143  O     0.07413   0.93036   0.11132   0.00000  Uiso   1.00
O1144  O     0.89098   0.61654   0.88229   0.00000  Uiso   1.00
N1145  N     0.47708   0.51631   0.01223   0.00000  Uiso   1.00
N1146  N     0.13868   0.96557   0.15459   0.00000  Uiso   1.00
N1147  N     0.81657   0.64615   0.89558   0.00000  Uiso   1.00
N1148  N     0.44199   0.41845   0.99704   0.00000  Uiso   1.00
N1149  N     0.10359   0.86771   0.13940   0.00000  Uiso   1.00
N1150  N     0.78148   0.54829   0.88039   0.00000  Uiso   1.00
C1151  C     0.84964   0.12934   0.77900   0.00000  Uiso   1.00
C1152  C     0.89221   0.17823   0.75537   0.00000  Uiso   1.00
C1153  C     0.90422   0.16491   0.72609   0.00000  Uiso   1.00
C1154  C     0.94454   0.21627   0.70796   0.00000  Uiso   1.00
C1155  C     0.67319   0.61603   0.00296   0.00000  Uiso   1.00
C1156  C     0.89088   0.14105   0.80721   0.00000  Uiso   1.00
C1157  C     0.90176   0.09646   0.82152   0.00000  Uiso   1.00
C1158  C     0.94094   0.11652   0.84703   0.00000  Uiso   1.00
C1159  C     0.00081   0.12520   0.88919   0.00000  Uiso   1.00
C1160  C     0.80026   0.14748   0.78804   0.00000  Uiso   1.00
C1161  C     0.40160   0.44163   0.11958   0.00000  Uiso   1.00
C1162  C     0.36448   0.46710   0.12896   0.00000  Uiso   1.00
C1163  C     0.28365   0.48577   0.14136   0.00000  Uiso   1.00
C1164  C     0.89988   0.24424   0.79886   0.00000  Uiso   1.00
C1165  C     0.91951   0.24064   0.76615   0.00000  Uiso   1.00
C1166  C     0.95981   0.29204   0.74806   0.00000  Uiso   1.00
C1167  C     0.63854   0.61213   0.05209   0.00000  Uiso   1.00
C1168  C     0.91817   0.20345   0.81799   0.00000  Uiso   1.00
C1169  C     0.95734   0.22358   0.84349   0.00000  Uiso   1.00
C1170  C     0.96828   0.17904   0.85783   0.00000  Uiso   1.00
C1171  C     0.82755   0.20989   0.79882   0.00000  Uiso   1.00
C1172  C     0.79052   0.23542   0.80821   0.00000  Uiso   1.00
C1173  C     0.39182   0.52963   0.13976   0.00000  Uiso   1.00
H1174  H     0.82839   0.08075   0.77061   0.00000  Uiso   1.00
H1175  H     0.88310   0.11661   0.71775   0.00000  Uiso   1.00
H1176  H     0.88063   0.04817   0.81317   0.00000  Uiso   1.00
H1177  H     0.38050   0.39334   0.11123   0.00000  Uiso   1.00
H1178  H     0.95580   0.18388   0.66392   0.00000  Uiso   1.00
H1179  H     0.95057   0.03956   0.86511   0.00000  Uiso   1.00
H1180  H     0.26552   0.39786   0.12407   0.00000  Uiso   1.00
H1181  H     0.92113   0.29283   0.80726   0.00000  Uiso   1.00
H1182  H     0.64759   0.67366   0.08975   0.00000  Uiso   1.00
H1183  H     0.97845   0.27188   0.85183   0.00000  Uiso   1.00
H1184  H     0.81166   0.28372   0.81656   0.00000  Uiso   1.00
H1185  H     0.70187   0.69880   0.02863   0.00000  Uiso   1.00
H1186  H     0.02997   0.22114   0.89649   0.00000  Uiso   1.00
H1187  H     0.34492   0.57944   0.15545   0.00000  Uiso   1.00
O1188  O     0.69984   0.63542   0.97883   0.00000  Uiso   1.00
O1189  O     0.02631   0.11274   0.90947   0.00000  Uiso   1.00
O1190  O     0.23153   0.47883   0.14521   0.00000  Uiso   1.00
N1191  N     0.96627   0.22010   0.67828   0.00000  Uiso   1.00
N1192  N     0.96139   0.08517   0.86638   0.00000  Uiso   1.00
N1193  N     0.29923   0.44184   0.13018   0.00000  Uiso   1.00
N1194  N     0.67566   0.65114   0.02849   0.00000  Uiso   1.00
N1195  N     0.00412   0.18288   0.88326   0.00000  Uiso   1.00
N1196  N     0.34195   0.53955   0.14707   0.00000  Uiso   1.00
C1197  C     0.92499   0.27350   0.57771   0.00000  Uiso   1.00
C1198  C     0.88484   0.22464   0.60189   0.00000  Uiso   1.00
C1199  C     0.87063   0.23806   0.63067   0.00000  Uiso   1.00
C1200  C     0.16649   0.85338   0.31611   0.00000  Uiso   1.00
C1201  C     0.10755   0.78701   0.35512   0.00000  Uiso   1.00
C1202  C     0.88344   0.25659   0.54925   0.00000  Uiso   1.00
C1203  C     0.86805   0.29688   0.53379   0.00000  Uiso   1.00
C1204  C     0.82940   0.27242   0.50825   0.00000  Uiso   1.00
C1205  C     0.76831   0.25567   0.46553   0.00000  Uiso   1.00
C1206  C     0.97840   0.26042   0.56974   0.00000  Uiso   1.00
C1207  C     0.37619   0.97060   0.23816   0.00000  Uiso   1.00
C1208  C     0.41749   0.94937   0.22986   0.00000  Uiso   1.00
C1209  C     0.50383   0.93857   0.21896   0.00000  Uiso   1.00
C1210  C     0.88372   0.15843   0.55984   0.00000  Uiso   1.00
C1211  C     0.86243   0.16213   0.59218   0.00000  Uiso   1.00
C1212  C     0.15831   0.77741   0.27758   0.00000  Uiso   1.00
C1213  C     0.14404   0.79076   0.30639   0.00000  Uiso   1.00
C1214  C     0.86102   0.19408   0.53955   0.00000  Uiso   1.00
C1215  C     0.82239   0.16956   0.51402   0.00000  Uiso   1.00
C1216  C     0.80695   0.20980   0.49853   0.00000  Uiso   1.00
C1217  C     0.95598   0.19791   0.56004   0.00000  Uiso   1.00
C1218  C     0.99719   0.17661   0.55173   0.00000  Uiso   1.00
C1219  C     0.39503   0.88675   0.22014   0.00000  Uiso   1.00
H1220  H     0.94244   0.32216   0.58526   0.00000  Uiso   1.00
H1221  H     0.88798   0.28644   0.63817   0.00000  Uiso   1.00
H1222  H     0.88541   0.34525   0.54130   0.00000  Uiso   1.00
H1223  H     0.39351   0.01897   0.24567   0.00000  Uiso   1.00
H1224  H     0.15104   0.88594   0.35922   0.00000  Uiso   1.00
H1225  H     0.81229   0.34327   0.48829   0.00000  Uiso   1.00
H1226  H     0.51417   0.02481   0.23445   0.00000  Uiso   1.00
H1227  H     0.86627   0.10976   0.55229   0.00000  Uiso   1.00
H1228  H     0.14097   0.72905   0.27006   0.00000  Uiso   1.00
H1229  H     0.80506   0.12119   0.50652   0.00000  Uiso   1.00
H1230  H     0.97983   0.12824   0.54422   0.00000  Uiso   1.00
H1231  H     0.08582   0.70408   0.33099   0.00000  Uiso   1.00
H1232  H     0.74708   0.16142   0.46006   0.00000  Uiso   1.00
H1233  H     0.44896   0.84296   0.20623   0.00000  Uiso   1.00
O1234  O     0.08121   0.76767   0.37932   0.00000  Uiso   1.00
O1235  O     0.74080   0.26370   0.44466   0.00000  Uiso   1.00
O1236  O     0.55765   0.94988   0.21563   0.00000  Uiso   1.00
N1237  N     0.14375   0.84964   0.34557   0.00000  Uiso   1.00
N1238  N     0.80535   0.29890   0.48792   0.00000  Uiso   1.00
N1239  N     0.48324   0.97948   0.22891   0.00000  Uiso   1.00
N1240  N     0.10866   0.75178   0.33038   0.00000  Uiso   1.00
N1241  N     0.77026   0.20105   0.47274   0.00000  Uiso   1.00
N1242  N     0.44815   0.88163   0.21372   0.00000  Uiso   1.00
C1243  C     0.51631   0.46267   0.11233   0.00000  Uiso   1.00
C1244  C     0.55888   0.51156   0.08870   0.00000  Uiso   1.00
C1245  C     0.57089   0.49825   0.05942   0.00000  Uiso   1.00
C1246  C     0.61120   0.54961   0.04129   0.00000  Uiso   1.00
C1247  C     0.33985   0.94936   0.33629   0.00000  Uiso   1.00
C1248  C     0.55755   0.47438   0.14054   0.00000  Uiso   1.00
C1249  C     0.56842   0.42979   0.15485   0.00000  Uiso   1.00
C1250  C     0.60761   0.44985   0.18036   0.00000  Uiso   1.00
C1251  C     0.66748   0.45853   0.22253   0.00000  Uiso   1.00
C1252  C     0.46692   0.48081   0.12137   0.00000  Uiso   1.00
C1253  C     0.06827   0.77496   0.45291   0.00000  Uiso   1.00
C1254  C     0.03115   0.80044   0.46229   0.00000  Uiso   1.00
C1255  C     0.95032   0.81910   0.47469   0.00000  Uiso   1.00
C1256  C     0.56655   0.57757   0.13219   0.00000  Uiso   1.00
C1257  C     0.58617   0.57397   0.09949   0.00000  Uiso   1.00
C1258  C     0.62648   0.62537   0.08139   0.00000  Uiso   1.00
C1259  C     0.30521   0.94546   0.38543   0.00000  Uiso   1.00
C1260  C     0.58484   0.53679   0.15133   0.00000  Uiso   1.00
C1261  C     0.62401   0.55692   0.17682   0.00000  Uiso   1.00
C1262  C     0.63495   0.51238   0.19117   0.00000  Uiso   1.00
C1263  C     0.49421   0.54322   0.13216   0.00000  Uiso   1.00
C1264  C     0.45719   0.56876   0.14154   0.00000  Uiso   1.00
C1265  C     0.05849   0.86296   0.47309   0.00000  Uiso   1.00
H1266  H     0.49506   0.41408   0.10394   0.00000  Uiso   1.00
H1267  H     0.54976   0.44994   0.05109   0.00000  Uiso   1.00
H1268  H     0.54729   0.38150   0.14650   0.00000  Uiso   1.00
H1269  H     0.04716   0.72667   0.44456   0.00000  Uiso   1.00
H1270  H     0.62247   0.51722   0.99725   0.00000  Uiso   1.00
H1271  H     0.61724   0.37290   0.19845   0.00000  Uiso   1.00
H1272  H     0.93218   0.73119   0.45740   0.00000  Uiso   1.00
H1273  H     0.58780   0.62616   0.14059   0.00000  Uiso   1.00
H1274  H     0.31426   0.00699   0.42308   0.00000  Uiso   1.00
H1275  H     0.64512   0.60522   0.18516   0.00000  Uiso   1.00
H1276  H     0.47832   0.61706   0.14989   0.00000  Uiso   1.00
H1277  H     0.36853   0.03213   0.36196   0.00000  Uiso   1.00
H1278  H     0.69664   0.55447   0.22983   0.00000  Uiso   1.00
H1279  H     0.01159   0.91277   0.48878   0.00000  Uiso   1.00
O1280  O     0.36651   0.96876   0.31217   0.00000  Uiso   1.00
O1281  O     0.69297   0.44608   0.24280   0.00000  Uiso   1.00
O1282  O     0.89819   0.81216   0.47855   0.00000  Uiso   1.00
N1283  N     0.63294   0.55343   0.01161   0.00000  Uiso   1.00
N1284  N     0.62806   0.41851   0.19971   0.00000  Uiso   1.00
N1285  N     0.96589   0.77517   0.46352   0.00000  Uiso   1.00
N1286  N     0.34233   0.98447   0.36183   0.00000  Uiso   1.00
N1287  N     0.67078   0.51621   0.21660   0.00000  Uiso   1.00
N1288  N     0.00862   0.87288   0.48040   0.00000  Uiso   1.00
C1289  C     0.59165   0.60684   0.91104   0.00000  Uiso   1.00
C1290  C     0.55151   0.55797   0.93522   0.00000  Uiso   1.00
C1291  C     0.53730   0.57140   0.96401   0.00000  Uiso   1.00
C1292  C     0.83316   0.18671   0.64944   0.00000  Uiso   1.00
C1293  C     0.77421   0.12034   0.68845   0.00000  Uiso   1.00
C1294  C     0.55010   0.58992   0.88259   0.00000  Uiso   1.00
C1295  C     0.53472   0.63021   0.86712   0.00000  Uiso   1.00
C1296  C     0.49607   0.60575   0.84158   0.00000  Uiso   1.00
C1297  C     0.43498   0.58900   0.79887   0.00000  Uiso   1.00
C1298  C     0.64506   0.59375   0.90307   0.00000  Uiso   1.00
C1299  C     0.04285   0.30394   0.57149   0.00000  Uiso   1.00
C1300  C     0.08416   0.28270   0.56319   0.00000  Uiso   1.00
C1301  C     0.17050   0.27190   0.55229   0.00000  Uiso   1.00
C1302  C     0.55039   0.49176   0.89318   0.00000  Uiso   1.00
C1303  C     0.52910   0.49547   0.92551   0.00000  Uiso   1.00
C1304  C     0.82497   0.11074   0.61091   0.00000  Uiso   1.00
C1305  C     0.81071   0.12409   0.63972   0.00000  Uiso   1.00
C1306  C     0.52769   0.52742   0.87288   0.00000  Uiso   1.00
C1307  C     0.48906   0.50289   0.84736   0.00000  Uiso   1.00
C1308  C     0.47362   0.54313   0.83186   0.00000  Uiso   1.00
C1309  C     0.62265   0.53125   0.89337   0.00000  Uiso   1.00
C1310  C     0.66386   0.50995   0.88506   0.00000  Uiso   1.00
C1311  C     0.06170   0.22009   0.55347   0.00000  Uiso   1.00
H1312  H     0.60910   0.65550   0.91859   0.00000  Uiso   1.00
H1313  H     0.55465   0.61978   0.97151   0.00000  Uiso   1.00
H1314  H     0.55207   0.67858   0.87463   0.00000  Uiso   1.00
H1315  H     0.06018   0.35230   0.57900   0.00000  Uiso   1.00
H1316  H     0.81770   0.21927   0.69255   0.00000  Uiso   1.00
H1317  H     0.47896   0.67660   0.82162   0.00000  Uiso   1.00
H1318  H     0.18084   0.35815   0.56779   0.00000  Uiso   1.00
H1319  H     0.53294   0.44309   0.88562   0.00000  Uiso   1.00
H1320  H     0.80764   0.06238   0.60339   0.00000  Uiso   1.00
H1321  H     0.47173   0.45452   0.83986   0.00000  Uiso   1.00
H1322  H     0.64650   0.46157   0.87756   0.00000  Uiso   1.00
H1323  H     0.75249   0.03741   0.66433   0.00000  Uiso   1.00
H1324  H     0.41375   0.49475   0.79339   0.00000  Uiso   1.00
H1325  H     0.11562   0.17629   0.53956   0.00000  Uiso   1.00
O1326  O     0.74788   0.10101   0.71265   0.00000  Uiso   1.00
O1327  O     0.40746   0.59703   0.77799   0.00000  Uiso   1.00
O1328  O     0.22431   0.28321   0.54896   0.00000  Uiso   1.00
N1329  N     0.81041   0.18297   0.67890   0.00000  Uiso   1.00
N1330  N     0.47201   0.63224   0.82126   0.00000  Uiso   1.00
N1331  N     0.14990   0.31282   0.56224   0.00000  Uiso   1.00
N1332  N     0.77532   0.08512   0.66371   0.00000  Uiso   1.00
N1333  N     0.43692   0.53438   0.80607   0.00000  Uiso   1.00
N1334  N     0.11481   0.21496   0.54705   0.00000  Uiso   1.00
C1335  C     0.18297   0.79600   0.44567   0.00000  Uiso   1.00
C1336  C     0.22555   0.84490   0.42203   0.00000  Uiso   1.00
C1337  C     0.23755   0.83158   0.39276   0.00000  Uiso   1.00
C1338  C     0.27787   0.88294   0.37462   0.00000  Uiso   1.00
C1339  C     0.00652   0.28270   0.66962   0.00000  Uiso   1.00
C1340  C     0.22421   0.80771   0.47387   0.00000  Uiso   1.00
C1341  C     0.23509   0.76313   0.48819   0.00000  Uiso   1.00
C1342  C     0.27427   0.78319   0.51370   0.00000  Uiso   1.00
C1343  C     0.33415   0.79187   0.55586   0.00000  Uiso   1.00
C1344  C     0.13359   0.81415   0.45471   0.00000  Uiso   1.00
C1345  C     0.73493   0.10830   0.78624   0.00000  Uiso   1.00
C1346  C     0.69782   0.13377   0.79562   0.00000  Uiso   1.00
C1347  C     0.61698   0.15244   0.80802   0.00000  Uiso   1.00
C1348  C     0.23322   0.91091   0.46552   0.00000  Uiso   1.00
C1349  C     0.25284   0.90731   0.43282   0.00000  Uiso   1.00
C1350  C     0.29314   0.95870   0.41473   0.00000  Uiso   1.00
C1351  C     0.97187   0.27880   0.71876   0.00000  Uiso   1.00
C1352  C     0.25150   0.87012   0.48466   0.00000  Uiso   1.00
C1353  C     0.29068   0.89025   0.51016   0.00000  Uiso   1.00
C1354  C     0.30161   0.84571   0.52450   0.00000  Uiso   1.00
C1355  C     0.16088   0.87656   0.46549   0.00000  Uiso   1.00
C1356  C     0.12386   0.90209   0.47488   0.00000  Uiso   1.00
C1357  C     0.72516   0.19629   0.80643   0.00000  Uiso   1.00
H1358  H     0.16173   0.74742   0.43727   0.00000  Uiso   1.00
H1359  H     0.21643   0.78327   0.38442   0.00000  Uiso   1.00
H1360  H     0.21396   0.71483   0.47984   0.00000  Uiso   1.00
H1361  H     0.71383   0.06001   0.77790   0.00000  Uiso   1.00
H1362  H     0.28913   0.85055   0.33058   0.00000  Uiso   1.00
H1363  H     0.28391   0.70623   0.53178   0.00000  Uiso   1.00
H1364  H     0.59885   0.06453   0.79073   0.00000  Uiso   1.00
H1365  H     0.25446   0.95950   0.47392   0.00000  Uiso   1.00
H1366  H     0.98092   0.34033   0.75641   0.00000  Uiso   1.00
H1367  H     0.31179   0.93855   0.51850   0.00000  Uiso   1.00
H1368  H     0.14499   0.95039   0.48322   0.00000  Uiso   1.00
H1369  H     0.03520   0.36546   0.69529   0.00000  Uiso   1.00
H1370  H     0.36330   0.88781   0.56316   0.00000  Uiso   1.00
H1371  H     0.67825   0.24611   0.82211   0.00000  Uiso   1.00
O1372  O     0.03318   0.30209   0.64550   0.00000  Uiso   1.00
O1373  O     0.35964   0.77941   0.57613   0.00000  Uiso   1.00
O1374  O     0.56486   0.14550   0.81188   0.00000  Uiso   1.00
N1375  N     0.29960   0.88677   0.34494   0.00000  Uiso   1.00
N1376  N     0.29472   0.75184   0.53305   0.00000  Uiso   1.00
N1377  N     0.63256   0.10851   0.79685   0.00000  Uiso   1.00
N1378  N     0.00900   0.31781   0.69516   0.00000  Uiso   1.00
N1379  N     0.33745   0.84955   0.54993   0.00000  Uiso   1.00
N1380  N     0.67529   0.20621   0.81373   0.00000  Uiso   1.00
C1381  C     0.68185   0.74168   0.24437   0.00000  Uiso   1.00
C1382  C     0.67313   0.78182   0.26855   0.00000  Uiso   1.00
C1383  C     0.70077   0.79604   0.29734   0.00000  Uiso   1.00
C1384  C     0.02021   0.50017   0.98277   0.00000  Uiso   1.00
C1385  C     0.01280   0.55912   0.02179   0.00000  Uiso   1.00
C1386  C     0.70648   0.78323   0.21592   0.00000  Uiso   1.00
C1387  C     0.76216   0.79862   0.20045   0.00000  Uiso   1.00
C1388  C     0.77635   0.83726   0.17491   0.00000  Uiso   1.00
C1389  C     0.82069   0.89836   0.13220   0.00000  Uiso   1.00
C1390  C     0.61536   0.68827   0.23641   0.00000  Uiso   1.00
C1391  C     0.92775   0.29048   0.90483   0.00000  Uiso   1.00
C1392  C     0.86521   0.24918   0.89653   0.00000  Uiso   1.00
C1393  C     0.76807   0.16284   0.88562   0.00000  Uiso   1.00
C1394  C     0.60804   0.78295   0.22651   0.00000  Uiso   1.00
C1395  C     0.63304   0.80424   0.25885   0.00000  Uiso   1.00
C1396  C     0.95244   0.50836   0.94424   0.00000  Uiso   1.00
C1397  C     0.98005   0.52262   0.97305   0.00000  Uiso   1.00
C1398  C     0.66639   0.80564   0.20622   0.00000  Uiso   1.00
C1399  C     0.68050   0.84427   0.18069   0.00000  Uiso   1.00
C1400  C     0.73618   0.85972   0.16519   0.00000  Uiso   1.00
C1401  C     0.57526   0.71068   0.22671   0.00000  Uiso   1.00
C1402  C     0.51275   0.66947   0.21840   0.00000  Uiso   1.00
C1403  C     0.82505   0.27163   0.88680   0.00000  Uiso   1.00
H1404  H     0.71306   0.72423   0.25193   0.00000  Uiso   1.00
H1405  H     0.73180   0.77869   0.30484   0.00000  Uiso   1.00
H1406  H     0.79317   0.78126   0.20797   0.00000  Uiso   1.00
H1407  H     0.95879   0.27315   0.91234   0.00000  Uiso   1.00
H1408  H     0.06823   0.51563   0.02589   0.00000  Uiso   1.00
H1409  H     0.86431   0.85437   0.15495   0.00000  Uiso   1.00
H1410  H     0.84398   0.15249   0.90112   0.00000  Uiso   1.00
H1411  H     0.57682   0.80040   0.21896   0.00000  Uiso   1.00
H1412  H     0.92141   0.52570   0.93673   0.00000  Uiso   1.00
H1413  H     0.64946   0.86161   0.17319   0.00000  Uiso   1.00
H1414  H     0.48174   0.68683   0.21089   0.00000  Uiso   1.00
H1415  H     0.95159   0.58084   0.99766   0.00000  Uiso   1.00
H1416  H     0.74767   0.91958   0.12672   0.00000  Uiso   1.00
H1417  H     0.72733   0.21771   0.87289   0.00000  Uiso   1.00
O1418  O     0.01979   0.58545   0.04598   0.00000  Uiso   1.00
O1419  O     0.85623   0.92587   0.11132   0.00000  Uiso   1.00
O1420  O     0.72556   0.10902   0.88229   0.00000  Uiso   1.00
N1421  N     0.03923   0.52292   0.01223   0.00000  Uiso   1.00
N1422  N     0.82689   0.86132   0.15459   0.00000  Uiso   1.00
N1423  N     0.82958   0.18343   0.89558   0.00000  Uiso   1.00
N1424  N     0.97646   0.55801   0.99704   0.00000  Uiso   1.00
N1425  N     0.76412   0.89641   0.13940   0.00000  Uiso   1.00
N1426  N     0.76681   0.21852   0.88039   0.00000  Uiso   1.00
C1427  C     0.27970   0.15036   0.77900   0.00000  Uiso   1.00
C1428  C     0.28601   0.10779   0.75537   0.00000  Uiso   1.00
C1429  C     0.26069   0.09578   0.72609   0.00000  Uiso   1.00
C1430  C     0.27174   0.05546   0.70796   0.00000  Uiso   1.00
C1431  C     0.94284   0.32681   0.00296   0.00000  Uiso   1.00
C1432  C     0.25016   0.10912   0.80721   0.00000  Uiso   1.00
C1433  C     0.19470   0.09824   0.82152   0.00000  Uiso   1.00
C1434  C     0.17558   0.05906   0.84703   0.00000  Uiso   1.00
C1435  C     0.12439   0.99919   0.88919   0.00000  Uiso   1.00
C1436  C     0.34722   0.19974   0.78804   0.00000  Uiso   1.00
C1437  C     0.04003   0.59840   0.11958   0.00000  Uiso   1.00
C1438  C     0.10262   0.63552   0.12896   0.00000  Uiso   1.00
C1439  C     0.20212   0.71635   0.14136   0.00000  Uiso   1.00
C1440  C     0.34436   0.10012   0.79886   0.00000  Uiso   1.00
C1441  C     0.32113   0.08049   0.76615   0.00000  Uiso   1.00
C1442  C     0.33223   0.04019   0.74806   0.00000  Uiso   1.00
C1443  C     0.97359   0.36146   0.05209   0.00000  Uiso   1.00
C1444  C     0.28528   0.08183   0.81799   0.00000  Uiso   1.00
C1445  C     0.26624   0.04266   0.84349   0.00000  Uiso   1.00
C1446  C     0.21076   0.03172   0.85783   0.00000  Uiso   1.00
C1447  C     0.38234   0.17245   0.79882   0.00000  Uiso   1.00
C1448  C     0.44490   0.20948   0.80821   0.00000  Uiso   1.00
C1449  C     0.13780   0.60818   0.13976   0.00000  Uiso   1.00
H1450  H     0.25236   0.17161   0.77061   0.00000  Uiso   1.00
H1451  H     0.23351   0.11690   0.71775   0.00000  Uiso   1.00
H1452  H     0.16754   0.11937   0.81317   0.00000  Uiso   1.00
H1453  H     0.01284   0.61950   0.11123   0.00000  Uiso   1.00
H1454  H     0.22808   0.04420   0.66392   0.00000  Uiso   1.00
H1455  H     0.08899   0.04943   0.86511   0.00000  Uiso   1.00
H1456  H     0.13234   0.73448   0.12407   0.00000  Uiso   1.00
H1457  H     0.37170   0.07887   0.80726   0.00000  Uiso   1.00
H1458  H     0.02607   0.35241   0.08975   0.00000  Uiso   1.00
H1459  H     0.29343   0.02155   0.85183   0.00000  Uiso   1.00
H1460  H     0.47206   0.18834   0.81656   0.00000  Uiso   1.00
H1461  H     0.99693   0.29813   0.02863   0.00000  Uiso   1.00
H1462  H     0.19117   0.97003   0.89649   0.00000  Uiso   1.00
H1463  H     0.23452   0.65508   0.15545   0.00000  Uiso   1.00
O1464  O     0.93558   0.30016   0.97883   0.00000  Uiso   1.00
O1465  O     0.08644   0.97369   0.90947   0.00000  Uiso   1.00
O1466  O     0.24730   0.76847   0.14521   0.00000  Uiso   1.00
N1467  N     0.25383   0.03373   0.67828   0.00000  Uiso   1.00
N1468  N     0.12378   0.03861   0.86638   0.00000  Uiso   1.00
N1469  N     0.14261   0.70077   0.13018   0.00000  Uiso   1.00
N1470  N     0.97548   0.32434   0.02849   0.00000  Uiso   1.00
N1471  N     0.17876   0.99588   0.88326   0.00000  Uiso   1.00
N1472  N     0.19759   0.65805   0.14707   0.00000  Uiso   1.00
C1473  C     0.34851   0.07501   0.57771   0.00000  Uiso   1.00
C1474  C     0.33980   0.11516   0.60189   0.00000  Uiso   1.00
C1475  C     0.36743   0.12937   0.63067   0.00000  Uiso   1.00
C1476  C     0.68688   0.83351   0.31611   0.00000  Uiso   1.00
C1477  C     0.67946   0.89245   0.35512   0.00000  Uiso   1.00
C1478  C     0.37315   0.11656   0.54925   0.00000  Uiso   1.00
C1479  C     0.42883   0.13195   0.53379   0.00000  Uiso   1.00
C1480  C     0.44301   0.17060   0.50825   0.00000  Uiso   1.00
C1481  C     0.48736   0.23169   0.46553   0.00000  Uiso   1.00
C1482  C     0.28202   0.02160   0.56974   0.00000  Uiso   1.00
C1483  C     0.59442   0.62381   0.23816   0.00000  Uiso   1.00
C1484  C     0.53188   0.58251   0.22986   0.00000  Uiso   1.00
C1485  C     0.43474   0.49617   0.21896   0.00000  Uiso   1.00
C1486  C     0.27470   0.11628   0.55984   0.00000  Uiso   1.00
C1487  C     0.29971   0.13757   0.59218   0.00000  Uiso   1.00
C1488  C     0.61910   0.84169   0.27758   0.00000  Uiso   1.00
C1489  C     0.64671   0.85596   0.30639   0.00000  Uiso   1.00
C1490  C     0.33306   0.13898   0.53955   0.00000  Uiso   1.00
C1491  C     0.34716   0.17761   0.51402   0.00000  Uiso   1.00
C1492  C     0.40285   0.19305   0.49853   0.00000  Uiso   1.00
C1493  C     0.24193   0.04402   0.56004   0.00000  Uiso   1.00
C1494  C     0.17942   0.00281   0.55173   0.00000  Uiso   1.00
C1495  C     0.49172   0.60497   0.22014   0.00000  Uiso   1.00
H1496  H     0.37973   0.05756   0.58526   0.00000  Uiso   1.00
H1497  H     0.39846   0.11202   0.63817   0.00000  Uiso   1.00
H1498  H     0.45984   0.11459   0.54130   0.00000  Uiso   1.00
H1499  H     0.62545   0.60649   0.24567   0.00000  Uiso   1.00
H1500  H     0.73490   0.84896   0.35922   0.00000  Uiso   1.00
H1501  H     0.53098   0.18771   0.48829   0.00000  Uiso   1.00
H1502  H     0.51064   0.48583   0.23445   0.00000  Uiso   1.00
H1503  H     0.24349   0.13373   0.55229   0.00000  Uiso   1.00
H1504  H     0.58808   0.85903   0.27006   0.00000  Uiso   1.00
H1505  H     0.31613   0.19494   0.50652   0.00000  Uiso   1.00
H1506  H     0.14841   0.02017   0.54422   0.00000  Uiso   1.00
H1507  H     0.61826   0.91418   0.33099   0.00000  Uiso   1.00
H1508  H     0.41433   0.25292   0.46006   0.00000  Uiso   1.00
H1509  H     0.39400   0.55104   0.20623   0.00000  Uiso   1.00
O1510  O     0.68646   0.91879   0.37932   0.00000  Uiso   1.00
O1511  O     0.52290   0.25920   0.44466   0.00000  Uiso   1.00
O1512  O     0.39223   0.44235   0.21563   0.00000  Uiso   1.00
N1513  N     0.70589   0.85625   0.34557   0.00000  Uiso   1.00
N1514  N     0.49356   0.19465   0.48792   0.00000  Uiso   1.00
N1515  N     0.49625   0.51676   0.22891   0.00000  Uiso   1.00
N1516  N     0.64313   0.89134   0.33038   0.00000  Uiso   1.00
N1517  N     0.43079   0.22974   0.47274   0.00000  Uiso   1.00
N1518  N     0.43348   0.55185   0.21372   0.00000  Uiso   1.00
C1519  C     0.94637   0.48369   0.11233   0.00000  Uiso   1.00
C1520  C     0.95268   0.44112   0.08870   0.00000  Uiso   1.00
C1521  C     0.92736   0.42911   0.05942   0.00000  Uiso   1.00
C1522  C     0.93841   0.38880   0.04129   0.00000  Uiso   1.00
C1523  C     0.60951   0.66015   0.33629   0.00000  Uiso   1.00
C1524  C     0.91683   0.44245   0.14054   0.00000  Uiso   1.00
C1525  C     0.86137   0.43158   0.15485   0.00000  Uiso   1.00
C1526  C     0.84225   0.39239   0.18036   0.00000  Uiso   1.00
C1527  C     0.79105   0.33252   0.22253   0.00000  Uiso   1.00
C1528  C     0.01389   0.53308   0.12137   0.00000  Uiso   1.00
C1529  C     0.70670   0.93173   0.45291   0.00000  Uiso   1.00
C1530  C     0.76929   0.96885   0.46229   0.00000  Uiso   1.00
C1531  C     0.86879   0.04968   0.47469   0.00000  Uiso   1.00
C1532  C     0.01102   0.43345   0.13219   0.00000  Uiso   1.00
C1533  C     0.98780   0.41383   0.09949   0.00000  Uiso   1.00
C1534  C     0.99889   0.37352   0.08139   0.00000  Uiso   1.00
C1535  C     0.64026   0.69479   0.38543   0.00000  Uiso   1.00
C1536  C     0.95195   0.41516   0.15133   0.00000  Uiso   1.00
C1537  C     0.93291   0.37599   0.17682   0.00000  Uiso   1.00
C1538  C     0.87743   0.36505   0.19117   0.00000  Uiso   1.00
C1539  C     0.04901   0.50579   0.13216   0.00000  Uiso   1.00
C1540  C     0.11157   0.54281   0.14154   0.00000  Uiso   1.00
C1541  C     0.80447   0.94151   0.47309   0.00000  Uiso   1.00
H1542  H     0.91902   0.50494   0.10394   0.00000  Uiso   1.00
H1543  H     0.90018   0.45024   0.05109   0.00000  Uiso   1.00
H1544  H     0.83421   0.45271   0.14650   0.00000  Uiso   1.00
H1545  H     0.67951   0.95284   0.44456   0.00000  Uiso   1.00
H1546  H     0.89475   0.37753   0.99725   0.00000  Uiso   1.00
H1547  H     0.75566   0.38276   0.19845   0.00000  Uiso   1.00
H1548  H     0.79901   0.06782   0.45740   0.00000  Uiso   1.00
H1549  H     0.03837   0.41220   0.14059   0.00000  Uiso   1.00
H1550  H     0.69274   0.68574   0.42308   0.00000  Uiso   1.00
H1551  H     0.96010   0.35488   0.18516   0.00000  Uiso   1.00
H1552  H     0.13873   0.52168   0.14989   0.00000  Uiso   1.00
H1553  H     0.66359   0.63147   0.36196   0.00000  Uiso   1.00
H1554  H     0.85784   0.30336   0.22983   0.00000  Uiso   1.00
H1555  H     0.90119   0.98841   0.48878   0.00000  Uiso   1.00
O1556  O     0.60225   0.63349   0.31217   0.00000  Uiso   1.00
O1557  O     0.75311   0.30703   0.24280   0.00000  Uiso   1.00
O1558  O     0.91397   0.10181   0.47855   0.00000  Uiso   1.00
N1559  N     0.92050   0.36706   0.01161   0.00000  Uiso   1.00
N1560  N     0.79045   0.37194   0.19971   0.00000  Uiso   1.00
N1561  N     0.80928   0.03411   0.46352   0.00000  Uiso   1.00
N1562  N     0.64214   0.65767   0.36183   0.00000  Uiso   1.00
N1563  N     0.84543   0.32922   0.21660   0.00000  Uiso   1.00
N1564  N     0.86426   0.99138   0.48040   0.00000  Uiso   1.00
C1565  C     0.01518   0.40835   0.91104   0.00000  Uiso   1.00
C1566  C     0.00646   0.44849   0.93522   0.00000  Uiso   1.00
C1567  C     0.03410   0.46270   0.96401   0.00000  Uiso   1.00
C1568  C     0.35355   0.16684   0.64944   0.00000  Uiso   1.00
C1569  C     0.34613   0.22579   0.68845   0.00000  Uiso   1.00
C1570  C     0.03982   0.44990   0.88259   0.00000  Uiso   1.00
C1571  C     0.09549   0.46528   0.86712   0.00000  Uiso   1.00
C1572  C     0.10968   0.50393   0.84158   0.00000  Uiso   1.00
C1573  C     0.15402   0.56502   0.79887   0.00000  Uiso   1.00
C1574  C     0.94869   0.35494   0.90307   0.00000  Uiso   1.00
C1575  C     0.26108   0.95715   0.57149   0.00000  Uiso   1.00
C1576  C     0.19855   0.91584   0.56319   0.00000  Uiso   1.00
C1577  C     0.10141   0.82950   0.55229   0.00000  Uiso   1.00
C1578  C     0.94137   0.44961   0.89318   0.00000  Uiso   1.00
C1579  C     0.96637   0.47090   0.92551   0.00000  Uiso   1.00
C1580  C     0.28577   0.17503   0.61091   0.00000  Uiso   1.00
C1581  C     0.31338   0.18929   0.63972   0.00000  Uiso   1.00
C1582  C     0.99973   0.47231   0.87288   0.00000  Uiso   1.00
C1583  C     0.01383   0.51094   0.84736   0.00000  Uiso   1.00
C1584  C     0.06952   0.52638   0.83186   0.00000  Uiso   1.00
C1585  C     0.90860   0.37735   0.89337   0.00000  Uiso   1.00
C1586  C     0.84609   0.33614   0.88506   0.00000  Uiso   1.00
C1587  C     0.15839   0.93830   0.55347   0.00000  Uiso   1.00
H1588  H     0.04640   0.39090   0.91859   0.00000  Uiso   1.00
H1589  H     0.06513   0.44535   0.97151   0.00000  Uiso   1.00
H1590  H     0.12651   0.44793   0.87463   0.00000  Uiso   1.00
H1591  H     0.29212   0.93982   0.57900   0.00000  Uiso   1.00
H1592  H     0.40157   0.18230   0.69255   0.00000  Uiso   1.00
H1593  H     0.19764   0.52104   0.82162   0.00000  Uiso   1.00
H1594  H     0.17731   0.81916   0.56779   0.00000  Uiso   1.00
H1595  H     0.91016   0.46706   0.88562   0.00000  Uiso   1.00
H1596  H     0.25474   0.19236   0.60339   0.00000  Uiso   1.00
H1597  H     0.98279   0.52827   0.83986   0.00000  Uiso   1.00
H1598  H     0.81507   0.35350   0.87756   0.00000  Uiso   1.00
H1599  H     0.28492   0.24751   0.66433   0.00000  Uiso   1.00
H1600  H     0.08100   0.58625   0.79339   0.00000  Uiso   1.00
H1601  H     0.06067   0.88438   0.53956   0.00000  Uiso   1.00
O1602  O     0.35312   0.25212   0.71265   0.00000  Uiso   1.00
O1603  O     0.18956   0.59254   0.77799   0.00000  Uiso   1.00
O1604  O     0.05890   0.77569   0.54896   0.00000  Uiso   1.00
N1605  N     0.37256   0.18959   0.67890   0.00000  Uiso   1.00
N1606  N     0.16022   0.52799   0.82126   0.00000  Uiso   1.00
N1607  N     0.16291   0.85010   0.56224   0.00000  Uiso   1.00
N1608  N     0.30979   0.22468   0.66371   0.00000  Uiso   1.00
N1609  N     0.09746   0.56308   0.80607   0.00000  Uiso   1.00
N1610  N     0.10015   0.88519   0.54705   0.00000  Uiso   1.00
C1611  C     0.61303   0.81703   0.44567   0.00000  Uiso   1.00
C1612  C     0.61935   0.77445   0.42203   0.00000  Uiso   1.00
C1613  C     0.59402   0.76245   0.39276   0.00000  Uiso   1.00
C1614  C     0.60507   0.72213   0.37462   0.00000  Uiso   1.00
C1615  C     0.27618   0.99348   0.66962   0.00000  Uiso   1.00
C1616  C     0.58350   0.77579   0.47387   0.00000  Uiso   1.00
C1617  C     0.52804   0.76491   0.48819   0.00000  Uiso   1.00
C1618  C     0.50891   0.72573   0.51370   0.00000  Uiso   1.00
C1619  C     0.45772   0.66585   0.55586   0.00000  Uiso   1.00
C1620  C     0.68055   0.86641   0.45471   0.00000  Uiso   1.00
C1621  C     0.37337   0.26507   0.78624   0.00000  Uiso   1.00
C1622  C     0.43595   0.30218   0.79562   0.00000  Uiso   1.00
C1623  C     0.53545   0.38302   0.80802   0.00000  Uiso   1.00
C1624  C     0.67769   0.76678   0.46552   0.00000  Uiso   1.00
C1625  C     0.65447   0.74716   0.43282   0.00000  Uiso   1.00
C1626  C     0.66556   0.70686   0.41473   0.00000  Uiso   1.00
C1627  C     0.30692   0.02813   0.71876   0.00000  Uiso   1.00
C1628  C     0.61861   0.74850   0.48466   0.00000  Uiso   1.00
C1629  C     0.59957   0.70932   0.51016   0.00000  Uiso   1.00
C1630  C     0.54410   0.69839   0.52450   0.00000  Uiso   1.00
C1631  C     0.71568   0.83912   0.46549   0.00000  Uiso   1.00
C1632  C     0.77823   0.87614   0.47488   0.00000  Uiso   1.00
C1633  C     0.47114   0.27484   0.80643   0.00000  Uiso   1.00
H1634  H     0.58569   0.83827   0.43727   0.00000  Uiso   1.00
H1635  H     0.56684   0.78357   0.38442   0.00000  Uiso   1.00
H1636  H     0.50087   0.78604   0.47984   0.00000  Uiso   1.00
H1637  H     0.34617   0.28617   0.77790   0.00000  Uiso   1.00
H1638  H     0.56142   0.71087   0.33058   0.00000  Uiso   1.00
H1639  H     0.42233   0.71609   0.53178   0.00000  Uiso   1.00
H1640  H     0.46568   0.40115   0.79073   0.00000  Uiso   1.00
H1641  H     0.70503   0.74554   0.47392   0.00000  Uiso   1.00
H1642  H     0.35940   0.01908   0.75641   0.00000  Uiso   1.00
H1643  H     0.62676   0.68821   0.51850   0.00000  Uiso   1.00
H1644  H     0.80540   0.85501   0.48322   0.00000  Uiso   1.00
H1645  H     0.33026   0.96480   0.69529   0.00000  Uiso   1.00
H1646  H     0.52450   0.63670   0.56316   0.00000  Uiso   1.00
H1647  H     0.56785   0.32175   0.82211   0.00000  Uiso   1.00
O1648  O     0.26891   0.96682   0.64550   0.00000  Uiso   1.00
O1649  O     0.41977   0.64036   0.57613   0.00000  Uiso   1.00
O1650  O     0.58064   0.43514   0.81188   0.00000  Uiso   1.00
N1651  N     0.58716   0.70040   0.34494   0.00000  Uiso   1.00
N1652  N     0.45712   0.70528   0.53305   0.00000  Uiso   1.00
N1653  N     0.47594   0.36744   0.79685   0.00000  Uiso   1.00
N1654  N     0.30881   0.99100   0.69516   0.00000  Uiso   1.00
N1655  N     0.51210   0.66255   0.54993   0.00000  Uiso   1.00
N1656  N     0.53093   0.32471   0.81373   0.00000  Uiso   1.00
