data_job_03737
_audit_creation_date              2018-12-19
_audit_creation_method            'Materials Studio'
_symmetry_space_group_name_H-M    'P1'
_symmetry_Int_Tables_number       1
_symmetry_cell_setting            triclinic
loop_
_symmetry_equiv_pos_as_xyz
  x,y,z
_cell_length_a                    19.0767
_cell_length_b                    19.0767
_cell_length_c                    32.1197
_cell_angle_alpha                 90.0000
_cell_angle_beta                  90.0000
_cell_angle_gamma                 90.0000
loop_
_atom_site_label
_atom_site_type_symbol
_atom_site_fract_x
_atom_site_fract_y
_atom_site_fract_z
_atom_site_U_iso_or_equiv
_atom_site_adp_type
_atom_site_occupancy
C1     C     0.63087   0.30397   0.25093   0.00000  Uiso   1.00
C2     C     0.69332   0.35377   0.24906   0.00000  Uiso   1.00
C3     C     0.72337   0.38045   0.21304   0.00000  Uiso   1.00
C4     C     0.78016   0.42521   0.21792   0.00000  Uiso   1.00
C5     C     0.87323   0.49986   0.20901   0.00000  Uiso   1.00
C6     C     0.65562   0.24011   0.27541   0.00000  Uiso   1.00
C7     C     0.65395   0.17122   0.26155   0.00000  Uiso   1.00
C8     C     0.67900   0.12030   0.28862   0.00000  Uiso   1.00
C9     C     0.71349   0.01848   0.32063   0.00000  Uiso   1.00
C10    C     0.57619   0.34000   0.27816   0.00000  Uiso   1.00
C11    C     0.50772   0.35508   0.26661   0.00000  Uiso   1.00
C12    C     0.46589   0.38825   0.29599   0.00000  Uiso   1.00
C13    C     0.37705   0.44152   0.33226   0.00000  Uiso   1.00
C14    C     0.67831   0.33603   0.32365   0.00000  Uiso   1.00
C15    C     0.71909   0.37118   0.28856   0.00000  Uiso   1.00
C16    C     0.77585   0.41591   0.29349   0.00000  Uiso   1.00
C17    C     0.80597   0.44266   0.25749   0.00000  Uiso   1.00
C18    C     0.68138   0.25751   0.31491   0.00000  Uiso   1.00
C19    C     0.70643   0.20668   0.34200   0.00000  Uiso   1.00
C20    C     0.70481   0.13774   0.32819   0.00000  Uiso   1.00
C21    C     0.60195   0.35741   0.31765   0.00000  Uiso   1.00
C22    C     0.56021   0.39055   0.34706   0.00000  Uiso   1.00
C23    C     0.49170   0.40569   0.33556   0.00000  Uiso   1.00
H24    H     0.61081   0.29041   0.22019   0.00000  Uiso   1.00
H25    H     0.70342   0.36696   0.18248   0.00000  Uiso   1.00
H26    H     0.63400   0.15776   0.23099   0.00000  Uiso   1.00
H27    H     0.48780   0.34160   0.23605   0.00000  Uiso   1.00
H28    H     0.81746   0.45948   0.15810   0.00000  Uiso   1.00
H29    H     0.67108   0.01838   0.26038   0.00000  Uiso   1.00
H30    H     0.36279   0.40604   0.27104   0.00000  Uiso   1.00
H31    H     0.69837   0.34958   0.35440   0.00000  Uiso   1.00
H32    H     0.79578   0.42938   0.32406   0.00000  Uiso   1.00
H33    H     0.72636   0.22018   0.37257   0.00000  Uiso   1.00
H34    H     0.58016   0.40402   0.37762   0.00000  Uiso   1.00
H35    H     0.89243   0.51014   0.27301   0.00000  Uiso   1.00
H36    H     0.74604   0.06903   0.37529   0.00000  Uiso   1.00
H37    H     0.43775   0.45669   0.38595   0.00000  Uiso   1.00
O38    O     0.91746   0.53622   0.19318   0.00000  Uiso   1.00
O39    O     0.72540   0.95751   0.32737   0.00000  Uiso   1.00
O40    O     0.32093   0.46611   0.34135   0.00000  Uiso   1.00
N41    N     0.82173   0.46046   0.18931   0.00000  Uiso   1.00
N42    N     0.68488   0.04806   0.28493   0.00000  Uiso   1.00
N43    N     0.39665   0.41047   0.29490   0.00000  Uiso   1.00
N44    N     0.86207   0.48772   0.25114   0.00000  Uiso   1.00
N45    N     0.72522   0.07532   0.34676   0.00000  Uiso   1.00
N46    N     0.43698   0.43773   0.35674   0.00000  Uiso   1.00
C47    C     0.13087   0.80397   0.75093   0.00000  Uiso   1.00
C48    C     0.19332   0.85377   0.74906   0.00000  Uiso   1.00
C49    C     0.22337   0.88045   0.71304   0.00000  Uiso   1.00
C50    C     0.28016   0.92521   0.71792   0.00000  Uiso   1.00
C51    C     0.37323   0.99986   0.70901   0.00000  Uiso   1.00
C52    C     0.15562   0.74011   0.77541   0.00000  Uiso   1.00
C53    C     0.15395   0.67122   0.76155   0.00000  Uiso   1.00
C54    C     0.17900   0.62030   0.78862   0.00000  Uiso   1.00
C55    C     0.21349   0.51848   0.82063   0.00000  Uiso   1.00
C56    C     0.07619   0.84000   0.77816   0.00000  Uiso   1.00
C57    C     0.00772   0.85508   0.76661   0.00000  Uiso   1.00
C58    C     0.96589   0.88825   0.79599   0.00000  Uiso   1.00
C59    C     0.87705   0.94152   0.83226   0.00000  Uiso   1.00
C60    C     0.17831   0.83603   0.82365   0.00000  Uiso   1.00
C61    C     0.21909   0.87118   0.78856   0.00000  Uiso   1.00
C62    C     0.27585   0.91591   0.79349   0.00000  Uiso   1.00
C63    C     0.30597   0.94266   0.75749   0.00000  Uiso   1.00
C64    C     0.18138   0.75751   0.81491   0.00000  Uiso   1.00
C65    C     0.20643   0.70668   0.84200   0.00000  Uiso   1.00
C66    C     0.20481   0.63774   0.82819   0.00000  Uiso   1.00
C67    C     0.10195   0.85741   0.81765   0.00000  Uiso   1.00
C68    C     0.06021   0.89055   0.84706   0.00000  Uiso   1.00
C69    C     0.99170   0.90569   0.83556   0.00000  Uiso   1.00
H70    H     0.11081   0.79041   0.72019   0.00000  Uiso   1.00
H71    H     0.20342   0.86696   0.68248   0.00000  Uiso   1.00
H72    H     0.13400   0.65776   0.73099   0.00000  Uiso   1.00
H73    H     0.98780   0.84160   0.73605   0.00000  Uiso   1.00
H74    H     0.31746   0.95948   0.65810   0.00000  Uiso   1.00
H75    H     0.17108   0.51838   0.76038   0.00000  Uiso   1.00
H76    H     0.86279   0.90604   0.77104   0.00000  Uiso   1.00
H77    H     0.19837   0.84958   0.85440   0.00000  Uiso   1.00
H78    H     0.29578   0.92938   0.82406   0.00000  Uiso   1.00
H79    H     0.22636   0.72018   0.87257   0.00000  Uiso   1.00
H80    H     0.08016   0.90402   0.87762   0.00000  Uiso   1.00
H81    H     0.39243   0.01014   0.77301   0.00000  Uiso   1.00
H82    H     0.24604   0.56903   0.87529   0.00000  Uiso   1.00
H83    H     0.93775   0.95669   0.88595   0.00000  Uiso   1.00
O84    O     0.41746   0.03622   0.69318   0.00000  Uiso   1.00
O85    O     0.22540   0.45751   0.82737   0.00000  Uiso   1.00
O86    O     0.82093   0.96611   0.84135   0.00000  Uiso   1.00
N87    N     0.32173   0.96046   0.68931   0.00000  Uiso   1.00
N88    N     0.18488   0.54806   0.78493   0.00000  Uiso   1.00
N89    N     0.89665   0.91047   0.79490   0.00000  Uiso   1.00
N90    N     0.36207   0.98772   0.75114   0.00000  Uiso   1.00
N91    N     0.22522   0.57532   0.84676   0.00000  Uiso   1.00
N92    N     0.93698   0.93773   0.85674   0.00000  Uiso   1.00
C93    C     0.86913   0.19603   0.75093   0.00000  Uiso   1.00
C94    C     0.80668   0.14623   0.74906   0.00000  Uiso   1.00
C95    C     0.77663   0.11955   0.71304   0.00000  Uiso   1.00
C96    C     0.71984   0.07479   0.71792   0.00000  Uiso   1.00
C97    C     0.62677   0.00014   0.70901   0.00000  Uiso   1.00
C98    C     0.84438   0.25989   0.77541   0.00000  Uiso   1.00
C99    C     0.84605   0.32878   0.76155   0.00000  Uiso   1.00
C100   C     0.82100   0.37970   0.78862   0.00000  Uiso   1.00
C101   C     0.78651   0.48152   0.82063   0.00000  Uiso   1.00
C102   C     0.92381   0.16000   0.77816   0.00000  Uiso   1.00
C103   C     0.99228   0.14492   0.76661   0.00000  Uiso   1.00
C104   C     0.03411   0.11175   0.79599   0.00000  Uiso   1.00
C105   C     0.12295   0.05848   0.83226   0.00000  Uiso   1.00
C106   C     0.82169   0.16397   0.82365   0.00000  Uiso   1.00
C107   C     0.78091   0.12882   0.78856   0.00000  Uiso   1.00
C108   C     0.72415   0.08409   0.79349   0.00000  Uiso   1.00
C109   C     0.69403   0.05734   0.75749   0.00000  Uiso   1.00
C110   C     0.81862   0.24249   0.81491   0.00000  Uiso   1.00
C111   C     0.79357   0.29332   0.84200   0.00000  Uiso   1.00
C112   C     0.79519   0.36226   0.82819   0.00000  Uiso   1.00
C113   C     0.89805   0.14259   0.81765   0.00000  Uiso   1.00
C114   C     0.93979   0.10945   0.84706   0.00000  Uiso   1.00
C115   C     0.00830   0.09431   0.83556   0.00000  Uiso   1.00
H116   H     0.88919   0.20959   0.72019   0.00000  Uiso   1.00
H117   H     0.79658   0.13304   0.68248   0.00000  Uiso   1.00
H118   H     0.86600   0.34224   0.73099   0.00000  Uiso   1.00
H119   H     0.01220   0.15840   0.73605   0.00000  Uiso   1.00
H120   H     0.68254   0.04052   0.65810   0.00000  Uiso   1.00
H121   H     0.82892   0.48162   0.76038   0.00000  Uiso   1.00
H122   H     0.13721   0.09396   0.77104   0.00000  Uiso   1.00
H123   H     0.80163   0.15042   0.85440   0.00000  Uiso   1.00
H124   H     0.70422   0.07062   0.82406   0.00000  Uiso   1.00
H125   H     0.77364   0.27982   0.87257   0.00000  Uiso   1.00
H126   H     0.91984   0.09598   0.87762   0.00000  Uiso   1.00
H127   H     0.60757   0.98986   0.77301   0.00000  Uiso   1.00
H128   H     0.75396   0.43097   0.87529   0.00000  Uiso   1.00
H129   H     0.06225   0.04331   0.88595   0.00000  Uiso   1.00
O130   O     0.58254   0.96378   0.69318   0.00000  Uiso   1.00
O131   O     0.77460   0.54249   0.82737   0.00000  Uiso   1.00
O132   O     0.17907   0.03389   0.84135   0.00000  Uiso   1.00
N133   N     0.67827   0.03954   0.68931   0.00000  Uiso   1.00
N134   N     0.81512   0.45194   0.78493   0.00000  Uiso   1.00
N135   N     0.10335   0.08953   0.79490   0.00000  Uiso   1.00
N136   N     0.63793   0.01228   0.75114   0.00000  Uiso   1.00
N137   N     0.77478   0.42468   0.84676   0.00000  Uiso   1.00
N138   N     0.06302   0.06227   0.85674   0.00000  Uiso   1.00
C139   C     0.36913   0.69603   0.25093   0.00000  Uiso   1.00
C140   C     0.30668   0.64623   0.24906   0.00000  Uiso   1.00
C141   C     0.27663   0.61955   0.21304   0.00000  Uiso   1.00
C142   C     0.21984   0.57479   0.21792   0.00000  Uiso   1.00
C143   C     0.12677   0.50014   0.20901   0.00000  Uiso   1.00
C144   C     0.34438   0.75989   0.27541   0.00000  Uiso   1.00
C145   C     0.34605   0.82878   0.26155   0.00000  Uiso   1.00
C146   C     0.32100   0.87970   0.28862   0.00000  Uiso   1.00
C147   C     0.28651   0.98152   0.32063   0.00000  Uiso   1.00
C148   C     0.42381   0.66000   0.27816   0.00000  Uiso   1.00
C149   C     0.49228   0.64492   0.26661   0.00000  Uiso   1.00
C150   C     0.53411   0.61175   0.29599   0.00000  Uiso   1.00
C151   C     0.62295   0.55848   0.33226   0.00000  Uiso   1.00
C152   C     0.32169   0.66397   0.32365   0.00000  Uiso   1.00
C153   C     0.28091   0.62882   0.28856   0.00000  Uiso   1.00
C154   C     0.22415   0.58409   0.29349   0.00000  Uiso   1.00
C155   C     0.19403   0.55734   0.25749   0.00000  Uiso   1.00
C156   C     0.31862   0.74249   0.31491   0.00000  Uiso   1.00
C157   C     0.29357   0.79332   0.34200   0.00000  Uiso   1.00
C158   C     0.29519   0.86226   0.32819   0.00000  Uiso   1.00
C159   C     0.39805   0.64259   0.31765   0.00000  Uiso   1.00
C160   C     0.43979   0.60945   0.34706   0.00000  Uiso   1.00
C161   C     0.50830   0.59431   0.33556   0.00000  Uiso   1.00
H162   H     0.38919   0.70959   0.22019   0.00000  Uiso   1.00
H163   H     0.29658   0.63304   0.18248   0.00000  Uiso   1.00
H164   H     0.36600   0.84224   0.23099   0.00000  Uiso   1.00
H165   H     0.51220   0.65840   0.23605   0.00000  Uiso   1.00
H166   H     0.18254   0.54052   0.15810   0.00000  Uiso   1.00
H167   H     0.32892   0.98162   0.26038   0.00000  Uiso   1.00
H168   H     0.63721   0.59396   0.27104   0.00000  Uiso   1.00
H169   H     0.30163   0.65042   0.35440   0.00000  Uiso   1.00
H170   H     0.20422   0.57062   0.32406   0.00000  Uiso   1.00
H171   H     0.27364   0.77982   0.37257   0.00000  Uiso   1.00
H172   H     0.41984   0.59598   0.37762   0.00000  Uiso   1.00
H173   H     0.10757   0.48986   0.27301   0.00000  Uiso   1.00
H174   H     0.25396   0.93097   0.37529   0.00000  Uiso   1.00
H175   H     0.56225   0.54331   0.38595   0.00000  Uiso   1.00
O176   O     0.08254   0.46378   0.19318   0.00000  Uiso   1.00
O177   O     0.27460   0.04249   0.32737   0.00000  Uiso   1.00
O178   O     0.67907   0.53389   0.34135   0.00000  Uiso   1.00
N179   N     0.17827   0.53954   0.18931   0.00000  Uiso   1.00
N180   N     0.31512   0.95194   0.28493   0.00000  Uiso   1.00
N181   N     0.60335   0.58953   0.29490   0.00000  Uiso   1.00
N182   N     0.13793   0.51228   0.25114   0.00000  Uiso   1.00
N183   N     0.27478   0.92468   0.34676   0.00000  Uiso   1.00
N184   N     0.56302   0.56227   0.35674   0.00000  Uiso   1.00
C185   C     0.69603   0.13087   0.50093   0.00000  Uiso   1.00
C186   C     0.64623   0.19332   0.49906   0.00000  Uiso   1.00
C187   C     0.61955   0.22337   0.46304   0.00000  Uiso   1.00
C188   C     0.57479   0.28016   0.46792   0.00000  Uiso   1.00
C189   C     0.50014   0.37323   0.45901   0.00000  Uiso   1.00
C190   C     0.75989   0.15562   0.52541   0.00000  Uiso   1.00
C191   C     0.82878   0.15395   0.51155   0.00000  Uiso   1.00
C192   C     0.87970   0.17900   0.53862   0.00000  Uiso   1.00
C193   C     0.98152   0.21349   0.57063   0.00000  Uiso   1.00
C194   C     0.66000   0.07619   0.52816   0.00000  Uiso   1.00
C195   C     0.64492   0.00772   0.51661   0.00000  Uiso   1.00
C196   C     0.61175   0.96589   0.54599   0.00000  Uiso   1.00
C197   C     0.55848   0.87705   0.58226   0.00000  Uiso   1.00
C198   C     0.66397   0.17831   0.57365   0.00000  Uiso   1.00
C199   C     0.62882   0.21909   0.53856   0.00000  Uiso   1.00
C200   C     0.58409   0.27585   0.54349   0.00000  Uiso   1.00
C201   C     0.55734   0.30597   0.50749   0.00000  Uiso   1.00
C202   C     0.74249   0.18138   0.56491   0.00000  Uiso   1.00
C203   C     0.79332   0.20643   0.59200   0.00000  Uiso   1.00
C204   C     0.86226   0.20481   0.57819   0.00000  Uiso   1.00
C205   C     0.64259   0.10195   0.56765   0.00000  Uiso   1.00
C206   C     0.60945   0.06021   0.59706   0.00000  Uiso   1.00
C207   C     0.59431   0.99170   0.58556   0.00000  Uiso   1.00
H208   H     0.70959   0.11081   0.47019   0.00000  Uiso   1.00
H209   H     0.63304   0.20342   0.43248   0.00000  Uiso   1.00
H210   H     0.84224   0.13400   0.48099   0.00000  Uiso   1.00
H211   H     0.65840   0.98780   0.48605   0.00000  Uiso   1.00
H212   H     0.54052   0.31746   0.40810   0.00000  Uiso   1.00
H213   H     0.98162   0.17108   0.51038   0.00000  Uiso   1.00
H214   H     0.59396   0.86279   0.52104   0.00000  Uiso   1.00
H215   H     0.65042   0.19837   0.60440   0.00000  Uiso   1.00
H216   H     0.57062   0.29578   0.57406   0.00000  Uiso   1.00
H217   H     0.77982   0.22636   0.62257   0.00000  Uiso   1.00
H218   H     0.59598   0.08016   0.62762   0.00000  Uiso   1.00
H219   H     0.48986   0.39243   0.52301   0.00000  Uiso   1.00
H220   H     0.93097   0.24604   0.62529   0.00000  Uiso   1.00
H221   H     0.54331   0.93775   0.63595   0.00000  Uiso   1.00
O222   O     0.46378   0.41746   0.44318   0.00000  Uiso   1.00
O223   O     0.04249   0.22540   0.57737   0.00000  Uiso   1.00
O224   O     0.53389   0.82093   0.59135   0.00000  Uiso   1.00
N225   N     0.53954   0.32173   0.43931   0.00000  Uiso   1.00
N226   N     0.95194   0.18488   0.53493   0.00000  Uiso   1.00
N227   N     0.58953   0.89665   0.54490   0.00000  Uiso   1.00
N228   N     0.51228   0.36207   0.50114   0.00000  Uiso   1.00
N229   N     0.92468   0.22522   0.59676   0.00000  Uiso   1.00
N230   N     0.56227   0.93698   0.60674   0.00000  Uiso   1.00
C231   C     0.19603   0.63087   0.00093   0.00000  Uiso   1.00
C232   C     0.14623   0.69332   0.99906   0.00000  Uiso   1.00
C233   C     0.11955   0.72337   0.96304   0.00000  Uiso   1.00
C234   C     0.07479   0.78016   0.96792   0.00000  Uiso   1.00
C235   C     0.00014   0.87323   0.95901   0.00000  Uiso   1.00
C236   C     0.25989   0.65562   0.02541   0.00000  Uiso   1.00
C237   C     0.32878   0.65395   0.01155   0.00000  Uiso   1.00
C238   C     0.37970   0.67900   0.03862   0.00000  Uiso   1.00
C239   C     0.48152   0.71349   0.07063   0.00000  Uiso   1.00
C240   C     0.16000   0.57619   0.02816   0.00000  Uiso   1.00
C241   C     0.14492   0.50772   0.01661   0.00000  Uiso   1.00
C242   C     0.11175   0.46589   0.04599   0.00000  Uiso   1.00
C243   C     0.05848   0.37705   0.08226   0.00000  Uiso   1.00
C244   C     0.16397   0.67831   0.07365   0.00000  Uiso   1.00
C245   C     0.12882   0.71909   0.03856   0.00000  Uiso   1.00
C246   C     0.08409   0.77585   0.04349   0.00000  Uiso   1.00
C247   C     0.05734   0.80597   0.00749   0.00000  Uiso   1.00
C248   C     0.24249   0.68138   0.06491   0.00000  Uiso   1.00
C249   C     0.29332   0.70643   0.09200   0.00000  Uiso   1.00
C250   C     0.36226   0.70481   0.07819   0.00000  Uiso   1.00
C251   C     0.14259   0.60195   0.06765   0.00000  Uiso   1.00
C252   C     0.10945   0.56021   0.09706   0.00000  Uiso   1.00
C253   C     0.09431   0.49170   0.08556   0.00000  Uiso   1.00
H254   H     0.20959   0.61081   0.97019   0.00000  Uiso   1.00
H255   H     0.13304   0.70342   0.93248   0.00000  Uiso   1.00
H256   H     0.34224   0.63400   0.98099   0.00000  Uiso   1.00
H257   H     0.15840   0.48780   0.98605   0.00000  Uiso   1.00
H258   H     0.04052   0.81746   0.90810   0.00000  Uiso   1.00
H259   H     0.48162   0.67108   0.01038   0.00000  Uiso   1.00
H260   H     0.09396   0.36279   0.02104   0.00000  Uiso   1.00
H261   H     0.15042   0.69837   0.10440   0.00000  Uiso   1.00
H262   H     0.07062   0.79578   0.07406   0.00000  Uiso   1.00
H263   H     0.27982   0.72636   0.12257   0.00000  Uiso   1.00
H264   H     0.09598   0.58016   0.12762   0.00000  Uiso   1.00
H265   H     0.98986   0.89243   0.02301   0.00000  Uiso   1.00
H266   H     0.43097   0.74604   0.12529   0.00000  Uiso   1.00
H267   H     0.04331   0.43775   0.13595   0.00000  Uiso   1.00
O268   O     0.96378   0.91746   0.94318   0.00000  Uiso   1.00
O269   O     0.54249   0.72540   0.07737   0.00000  Uiso   1.00
O270   O     0.03389   0.32093   0.09135   0.00000  Uiso   1.00
N271   N     0.03954   0.82173   0.93931   0.00000  Uiso   1.00
N272   N     0.45194   0.68488   0.03493   0.00000  Uiso   1.00
N273   N     0.08953   0.39665   0.04490   0.00000  Uiso   1.00
N274   N     0.01228   0.86207   0.00114   0.00000  Uiso   1.00
N275   N     0.42468   0.72522   0.09676   0.00000  Uiso   1.00
N276   N     0.06227   0.43698   0.10674   0.00000  Uiso   1.00
C277   C     0.80397   0.36913   0.00093   0.00000  Uiso   1.00
C278   C     0.85377   0.30668   0.99906   0.00000  Uiso   1.00
C279   C     0.88045   0.27663   0.96304   0.00000  Uiso   1.00
C280   C     0.92521   0.21984   0.96792   0.00000  Uiso   1.00
C281   C     0.99986   0.12677   0.95901   0.00000  Uiso   1.00
C282   C     0.74011   0.34438   0.02541   0.00000  Uiso   1.00
C283   C     0.67122   0.34605   0.01155   0.00000  Uiso   1.00
C284   C     0.62030   0.32100   0.03862   0.00000  Uiso   1.00
C285   C     0.51848   0.28651   0.07063   0.00000  Uiso   1.00
C286   C     0.84000   0.42381   0.02816   0.00000  Uiso   1.00
C287   C     0.85508   0.49228   0.01661   0.00000  Uiso   1.00
C288   C     0.88825   0.53411   0.04599   0.00000  Uiso   1.00
C289   C     0.94152   0.62295   0.08226   0.00000  Uiso   1.00
C290   C     0.83603   0.32169   0.07365   0.00000  Uiso   1.00
C291   C     0.87118   0.28091   0.03856   0.00000  Uiso   1.00
C292   C     0.91591   0.22415   0.04349   0.00000  Uiso   1.00
C293   C     0.94266   0.19403   0.00749   0.00000  Uiso   1.00
C294   C     0.75751   0.31862   0.06491   0.00000  Uiso   1.00
C295   C     0.70668   0.29357   0.09200   0.00000  Uiso   1.00
C296   C     0.63774   0.29519   0.07819   0.00000  Uiso   1.00
C297   C     0.85741   0.39805   0.06765   0.00000  Uiso   1.00
C298   C     0.89055   0.43979   0.09706   0.00000  Uiso   1.00
C299   C     0.90569   0.50830   0.08556   0.00000  Uiso   1.00
H300   H     0.79041   0.38919   0.97019   0.00000  Uiso   1.00
H301   H     0.86696   0.29658   0.93248   0.00000  Uiso   1.00
H302   H     0.65776   0.36600   0.98099   0.00000  Uiso   1.00
H303   H     0.84160   0.51220   0.98605   0.00000  Uiso   1.00
H304   H     0.95948   0.18254   0.90810   0.00000  Uiso   1.00
H305   H     0.51838   0.32892   0.01038   0.00000  Uiso   1.00
H306   H     0.90604   0.63721   0.02104   0.00000  Uiso   1.00
H307   H     0.84958   0.30163   0.10440   0.00000  Uiso   1.00
H308   H     0.92938   0.20422   0.07406   0.00000  Uiso   1.00
H309   H     0.72018   0.27364   0.12257   0.00000  Uiso   1.00
H310   H     0.90402   0.41984   0.12762   0.00000  Uiso   1.00
H311   H     0.01014   0.10757   0.02301   0.00000  Uiso   1.00
H312   H     0.56903   0.25396   0.12529   0.00000  Uiso   1.00
H313   H     0.95669   0.56225   0.13595   0.00000  Uiso   1.00
O314   O     0.03622   0.08254   0.94318   0.00000  Uiso   1.00
O315   O     0.45751   0.27460   0.07737   0.00000  Uiso   1.00
O316   O     0.96611   0.67907   0.09135   0.00000  Uiso   1.00
N317   N     0.96046   0.17827   0.93931   0.00000  Uiso   1.00
N318   N     0.54806   0.31512   0.03493   0.00000  Uiso   1.00
N319   N     0.91047   0.60335   0.04490   0.00000  Uiso   1.00
N320   N     0.98772   0.13793   0.00114   0.00000  Uiso   1.00
N321   N     0.57532   0.27478   0.09676   0.00000  Uiso   1.00
N322   N     0.93773   0.56302   0.10674   0.00000  Uiso   1.00
C323   C     0.30397   0.86913   0.50093   0.00000  Uiso   1.00
C324   C     0.35377   0.80668   0.49906   0.00000  Uiso   1.00
C325   C     0.38045   0.77663   0.46304   0.00000  Uiso   1.00
C326   C     0.42521   0.71984   0.46792   0.00000  Uiso   1.00
C327   C     0.49986   0.62677   0.45901   0.00000  Uiso   1.00
C328   C     0.24011   0.84438   0.52541   0.00000  Uiso   1.00
C329   C     0.17122   0.84605   0.51155   0.00000  Uiso   1.00
C330   C     0.12030   0.82100   0.53862   0.00000  Uiso   1.00
C331   C     0.01848   0.78651   0.57063   0.00000  Uiso   1.00
C332   C     0.34000   0.92381   0.52816   0.00000  Uiso   1.00
C333   C     0.35508   0.99228   0.51661   0.00000  Uiso   1.00
C334   C     0.38825   0.03411   0.54599   0.00000  Uiso   1.00
C335   C     0.44152   0.12295   0.58226   0.00000  Uiso   1.00
C336   C     0.33603   0.82169   0.57365   0.00000  Uiso   1.00
C337   C     0.37118   0.78091   0.53856   0.00000  Uiso   1.00
C338   C     0.41591   0.72415   0.54349   0.00000  Uiso   1.00
C339   C     0.44266   0.69403   0.50749   0.00000  Uiso   1.00
C340   C     0.25751   0.81862   0.56491   0.00000  Uiso   1.00
C341   C     0.20668   0.79357   0.59200   0.00000  Uiso   1.00
C342   C     0.13774   0.79519   0.57819   0.00000  Uiso   1.00
C343   C     0.35741   0.89805   0.56765   0.00000  Uiso   1.00
C344   C     0.39055   0.93979   0.59706   0.00000  Uiso   1.00
C345   C     0.40569   0.00830   0.58556   0.00000  Uiso   1.00
H346   H     0.29041   0.88919   0.47019   0.00000  Uiso   1.00
H347   H     0.36696   0.79658   0.43248   0.00000  Uiso   1.00
H348   H     0.15776   0.86600   0.48099   0.00000  Uiso   1.00
H349   H     0.34160   0.01220   0.48605   0.00000  Uiso   1.00
H350   H     0.45948   0.68254   0.40810   0.00000  Uiso   1.00
H351   H     0.01838   0.82892   0.51038   0.00000  Uiso   1.00
H352   H     0.40604   0.13721   0.52104   0.00000  Uiso   1.00
H353   H     0.34958   0.80163   0.60440   0.00000  Uiso   1.00
H354   H     0.42938   0.70422   0.57406   0.00000  Uiso   1.00
H355   H     0.22018   0.77364   0.62257   0.00000  Uiso   1.00
H356   H     0.40402   0.91984   0.62762   0.00000  Uiso   1.00
H357   H     0.51014   0.60757   0.52301   0.00000  Uiso   1.00
H358   H     0.06903   0.75396   0.62529   0.00000  Uiso   1.00
H359   H     0.45669   0.06225   0.63595   0.00000  Uiso   1.00
O360   O     0.53622   0.58254   0.44318   0.00000  Uiso   1.00
O361   O     0.95751   0.77460   0.57737   0.00000  Uiso   1.00
O362   O     0.46611   0.17907   0.59135   0.00000  Uiso   1.00
N363   N     0.46046   0.67827   0.43931   0.00000  Uiso   1.00
N364   N     0.04806   0.81512   0.53493   0.00000  Uiso   1.00
N365   N     0.41047   0.10335   0.54490   0.00000  Uiso   1.00
N366   N     0.48772   0.63793   0.50114   0.00000  Uiso   1.00
N367   N     0.07532   0.77478   0.59676   0.00000  Uiso   1.00
N368   N     0.43773   0.06302   0.60674   0.00000  Uiso   1.00
C369   C     0.36913   0.19603   0.99907   0.00000  Uiso   1.00
C370   C     0.30668   0.14623   0.00094   0.00000  Uiso   1.00
C371   C     0.27663   0.11955   0.03696   0.00000  Uiso   1.00
C372   C     0.21984   0.07479   0.03208   0.00000  Uiso   1.00
C373   C     0.12677   0.00014   0.04099   0.00000  Uiso   1.00
C374   C     0.34438   0.25989   0.97459   0.00000  Uiso   1.00
C375   C     0.34605   0.32878   0.98845   0.00000  Uiso   1.00
C376   C     0.32100   0.37970   0.96138   0.00000  Uiso   1.00
C377   C     0.28651   0.48152   0.92937   0.00000  Uiso   1.00
C378   C     0.42381   0.16000   0.97184   0.00000  Uiso   1.00
C379   C     0.49228   0.14492   0.98339   0.00000  Uiso   1.00
C380   C     0.53411   0.11175   0.95401   0.00000  Uiso   1.00
C381   C     0.62295   0.05848   0.91774   0.00000  Uiso   1.00
C382   C     0.32169   0.16397   0.92635   0.00000  Uiso   1.00
C383   C     0.28091   0.12882   0.96144   0.00000  Uiso   1.00
C384   C     0.22415   0.08409   0.95651   0.00000  Uiso   1.00
C385   C     0.19403   0.05734   0.99251   0.00000  Uiso   1.00
C386   C     0.31862   0.24249   0.93509   0.00000  Uiso   1.00
C387   C     0.29357   0.29332   0.90800   0.00000  Uiso   1.00
C388   C     0.29519   0.36226   0.92181   0.00000  Uiso   1.00
C389   C     0.39805   0.14259   0.93235   0.00000  Uiso   1.00
C390   C     0.43979   0.10945   0.90294   0.00000  Uiso   1.00
C391   C     0.50830   0.09431   0.91444   0.00000  Uiso   1.00
H392   H     0.38919   0.20959   0.02981   0.00000  Uiso   1.00
H393   H     0.29658   0.13304   0.06752   0.00000  Uiso   1.00
H394   H     0.36600   0.34224   0.01901   0.00000  Uiso   1.00
H395   H     0.51220   0.15840   0.01395   0.00000  Uiso   1.00
H396   H     0.18254   0.04052   0.09190   0.00000  Uiso   1.00
H397   H     0.32892   0.48162   0.98962   0.00000  Uiso   1.00
H398   H     0.63721   0.09396   0.97896   0.00000  Uiso   1.00
H399   H     0.30163   0.15042   0.89560   0.00000  Uiso   1.00
H400   H     0.20422   0.07062   0.92594   0.00000  Uiso   1.00
H401   H     0.27364   0.27982   0.87743   0.00000  Uiso   1.00
H402   H     0.41984   0.09598   0.87238   0.00000  Uiso   1.00
H403   H     0.10757   0.98986   0.97699   0.00000  Uiso   1.00
H404   H     0.25396   0.43097   0.87471   0.00000  Uiso   1.00
H405   H     0.56225   0.04331   0.86405   0.00000  Uiso   1.00
O406   O     0.08254   0.96378   0.05682   0.00000  Uiso   1.00
O407   O     0.27460   0.54249   0.92263   0.00000  Uiso   1.00
O408   O     0.67907   0.03389   0.90865   0.00000  Uiso   1.00
N409   N     0.17827   0.03954   0.06069   0.00000  Uiso   1.00
N410   N     0.31512   0.45194   0.96507   0.00000  Uiso   1.00
N411   N     0.60335   0.08953   0.95510   0.00000  Uiso   1.00
N412   N     0.13793   0.01228   0.99886   0.00000  Uiso   1.00
N413   N     0.27478   0.42468   0.90324   0.00000  Uiso   1.00
N414   N     0.56302   0.06227   0.89326   0.00000  Uiso   1.00
C415   C     0.86913   0.69603   0.49907   0.00000  Uiso   1.00
C416   C     0.80668   0.64623   0.50094   0.00000  Uiso   1.00
C417   C     0.77663   0.61955   0.53696   0.00000  Uiso   1.00
C418   C     0.71984   0.57479   0.53208   0.00000  Uiso   1.00
C419   C     0.62677   0.50014   0.54099   0.00000  Uiso   1.00
C420   C     0.84438   0.75989   0.47459   0.00000  Uiso   1.00
C421   C     0.84605   0.82878   0.48845   0.00000  Uiso   1.00
C422   C     0.82100   0.87970   0.46138   0.00000  Uiso   1.00
C423   C     0.78651   0.98152   0.42937   0.00000  Uiso   1.00
C424   C     0.92381   0.66000   0.47184   0.00000  Uiso   1.00
C425   C     0.99228   0.64492   0.48339   0.00000  Uiso   1.00
C426   C     0.03411   0.61175   0.45401   0.00000  Uiso   1.00
C427   C     0.12295   0.55848   0.41774   0.00000  Uiso   1.00
C428   C     0.82169   0.66397   0.42635   0.00000  Uiso   1.00
C429   C     0.78091   0.62882   0.46144   0.00000  Uiso   1.00
C430   C     0.72415   0.58409   0.45651   0.00000  Uiso   1.00
C431   C     0.69403   0.55734   0.49251   0.00000  Uiso   1.00
C432   C     0.81862   0.74249   0.43509   0.00000  Uiso   1.00
C433   C     0.79357   0.79332   0.40800   0.00000  Uiso   1.00
C434   C     0.79519   0.86226   0.42181   0.00000  Uiso   1.00
C435   C     0.89805   0.64259   0.43235   0.00000  Uiso   1.00
C436   C     0.93979   0.60945   0.40294   0.00000  Uiso   1.00
C437   C     0.00830   0.59431   0.41444   0.00000  Uiso   1.00
H438   H     0.88919   0.70959   0.52981   0.00000  Uiso   1.00
H439   H     0.79658   0.63304   0.56752   0.00000  Uiso   1.00
H440   H     0.86600   0.84224   0.51901   0.00000  Uiso   1.00
H441   H     0.01220   0.65840   0.51395   0.00000  Uiso   1.00
H442   H     0.68254   0.54052   0.59190   0.00000  Uiso   1.00
H443   H     0.82892   0.98162   0.48962   0.00000  Uiso   1.00
H444   H     0.13721   0.59396   0.47896   0.00000  Uiso   1.00
H445   H     0.80163   0.65042   0.39560   0.00000  Uiso   1.00
H446   H     0.70422   0.57062   0.42594   0.00000  Uiso   1.00
H447   H     0.77364   0.77982   0.37743   0.00000  Uiso   1.00
H448   H     0.91984   0.59598   0.37238   0.00000  Uiso   1.00
H449   H     0.60757   0.48986   0.47699   0.00000  Uiso   1.00
H450   H     0.75396   0.93097   0.37471   0.00000  Uiso   1.00
H451   H     0.06225   0.54331   0.36405   0.00000  Uiso   1.00
O452   O     0.58254   0.46378   0.55682   0.00000  Uiso   1.00
O453   O     0.77460   0.04249   0.42263   0.00000  Uiso   1.00
O454   O     0.17907   0.53389   0.40865   0.00000  Uiso   1.00
N455   N     0.67827   0.53954   0.56069   0.00000  Uiso   1.00
N456   N     0.81512   0.95194   0.46507   0.00000  Uiso   1.00
N457   N     0.10335   0.58953   0.45510   0.00000  Uiso   1.00
N458   N     0.63793   0.51228   0.49886   0.00000  Uiso   1.00
N459   N     0.77478   0.92468   0.40324   0.00000  Uiso   1.00
N460   N     0.06302   0.56227   0.39326   0.00000  Uiso   1.00
C461   C     0.13087   0.30397   0.49907   0.00000  Uiso   1.00
C462   C     0.19332   0.35377   0.50094   0.00000  Uiso   1.00
C463   C     0.22337   0.38045   0.53696   0.00000  Uiso   1.00
C464   C     0.28016   0.42521   0.53208   0.00000  Uiso   1.00
C465   C     0.37323   0.49986   0.54099   0.00000  Uiso   1.00
C466   C     0.15562   0.24011   0.47459   0.00000  Uiso   1.00
C467   C     0.15395   0.17122   0.48845   0.00000  Uiso   1.00
C468   C     0.17900   0.12030   0.46138   0.00000  Uiso   1.00
C469   C     0.21349   0.01848   0.42937   0.00000  Uiso   1.00
C470   C     0.07619   0.34000   0.47184   0.00000  Uiso   1.00
C471   C     0.00772   0.35508   0.48339   0.00000  Uiso   1.00
C472   C     0.96589   0.38825   0.45401   0.00000  Uiso   1.00
C473   C     0.87705   0.44152   0.41774   0.00000  Uiso   1.00
C474   C     0.17831   0.33603   0.42635   0.00000  Uiso   1.00
C475   C     0.21909   0.37118   0.46144   0.00000  Uiso   1.00
C476   C     0.27585   0.41591   0.45651   0.00000  Uiso   1.00
C477   C     0.30597   0.44266   0.49251   0.00000  Uiso   1.00
C478   C     0.18138   0.25751   0.43509   0.00000  Uiso   1.00
C479   C     0.20643   0.20668   0.40800   0.00000  Uiso   1.00
C480   C     0.20481   0.13774   0.42181   0.00000  Uiso   1.00
C481   C     0.10195   0.35741   0.43235   0.00000  Uiso   1.00
C482   C     0.06021   0.39055   0.40294   0.00000  Uiso   1.00
C483   C     0.99170   0.40569   0.41444   0.00000  Uiso   1.00
H484   H     0.11081   0.29041   0.52981   0.00000  Uiso   1.00
H485   H     0.20342   0.36696   0.56752   0.00000  Uiso   1.00
H486   H     0.13400   0.15776   0.51901   0.00000  Uiso   1.00
H487   H     0.98780   0.34160   0.51395   0.00000  Uiso   1.00
H488   H     0.31746   0.45948   0.59190   0.00000  Uiso   1.00
H489   H     0.17108   0.01838   0.48962   0.00000  Uiso   1.00
H490   H     0.86279   0.40604   0.47896   0.00000  Uiso   1.00
H491   H     0.19837   0.34958   0.39560   0.00000  Uiso   1.00
H492   H     0.29578   0.42938   0.42594   0.00000  Uiso   1.00
H493   H     0.22636   0.22018   0.37743   0.00000  Uiso   1.00
H494   H     0.08016   0.40402   0.37238   0.00000  Uiso   1.00
H495   H     0.39243   0.51014   0.47699   0.00000  Uiso   1.00
H496   H     0.24604   0.06903   0.37471   0.00000  Uiso   1.00
H497   H     0.93775   0.45669   0.36405   0.00000  Uiso   1.00
O498   O     0.41746   0.53622   0.55682   0.00000  Uiso   1.00
O499   O     0.22540   0.95751   0.42263   0.00000  Uiso   1.00
O500   O     0.82093   0.46611   0.40865   0.00000  Uiso   1.00
N501   N     0.32173   0.46046   0.56069   0.00000  Uiso   1.00
N502   N     0.18488   0.04806   0.46507   0.00000  Uiso   1.00
N503   N     0.89665   0.41047   0.45510   0.00000  Uiso   1.00
N504   N     0.36207   0.48772   0.49886   0.00000  Uiso   1.00
N505   N     0.22522   0.07532   0.40324   0.00000  Uiso   1.00
N506   N     0.93698   0.43773   0.39326   0.00000  Uiso   1.00
C507   C     0.63087   0.80397   0.99907   0.00000  Uiso   1.00
C508   C     0.69332   0.85377   0.00094   0.00000  Uiso   1.00
C509   C     0.72337   0.88045   0.03696   0.00000  Uiso   1.00
C510   C     0.78016   0.92521   0.03208   0.00000  Uiso   1.00
C511   C     0.87323   0.99986   0.04099   0.00000  Uiso   1.00
C512   C     0.65562   0.74011   0.97459   0.00000  Uiso   1.00
C513   C     0.65395   0.67122   0.98845   0.00000  Uiso   1.00
C514   C     0.67900   0.62030   0.96138   0.00000  Uiso   1.00
C515   C     0.71349   0.51848   0.92937   0.00000  Uiso   1.00
C516   C     0.57619   0.84000   0.97184   0.00000  Uiso   1.00
C517   C     0.50772   0.85508   0.98339   0.00000  Uiso   1.00
C518   C     0.46589   0.88825   0.95401   0.00000  Uiso   1.00
C519   C     0.37705   0.94152   0.91774   0.00000  Uiso   1.00
C520   C     0.67831   0.83603   0.92635   0.00000  Uiso   1.00
C521   C     0.71909   0.87118   0.96144   0.00000  Uiso   1.00
C522   C     0.77585   0.91591   0.95651   0.00000  Uiso   1.00
C523   C     0.80597   0.94266   0.99251   0.00000  Uiso   1.00
C524   C     0.68138   0.75751   0.93509   0.00000  Uiso   1.00
C525   C     0.70643   0.70668   0.90800   0.00000  Uiso   1.00
C526   C     0.70481   0.63774   0.92181   0.00000  Uiso   1.00
C527   C     0.60195   0.85741   0.93235   0.00000  Uiso   1.00
C528   C     0.56021   0.89055   0.90294   0.00000  Uiso   1.00
C529   C     0.49170   0.90569   0.91444   0.00000  Uiso   1.00
H530   H     0.61081   0.79041   0.02981   0.00000  Uiso   1.00
H531   H     0.70342   0.86696   0.06752   0.00000  Uiso   1.00
H532   H     0.63400   0.65776   0.01901   0.00000  Uiso   1.00
H533   H     0.48780   0.84160   0.01395   0.00000  Uiso   1.00
H534   H     0.81746   0.95948   0.09190   0.00000  Uiso   1.00
H535   H     0.67108   0.51838   0.98962   0.00000  Uiso   1.00
H536   H     0.36279   0.90604   0.97896   0.00000  Uiso   1.00
H537   H     0.69837   0.84958   0.89560   0.00000  Uiso   1.00
H538   H     0.79578   0.92938   0.92594   0.00000  Uiso   1.00
H539   H     0.72636   0.72018   0.87743   0.00000  Uiso   1.00
H540   H     0.58016   0.90402   0.87238   0.00000  Uiso   1.00
H541   H     0.89243   0.01014   0.97699   0.00000  Uiso   1.00
H542   H     0.74604   0.56903   0.87471   0.00000  Uiso   1.00
H543   H     0.43775   0.95669   0.86405   0.00000  Uiso   1.00
O544   O     0.91746   0.03622   0.05682   0.00000  Uiso   1.00
O545   O     0.72540   0.45751   0.92263   0.00000  Uiso   1.00
O546   O     0.32093   0.96611   0.90865   0.00000  Uiso   1.00
N547   N     0.82173   0.96046   0.06069   0.00000  Uiso   1.00
N548   N     0.68488   0.54806   0.96507   0.00000  Uiso   1.00
N549   N     0.39665   0.91047   0.95510   0.00000  Uiso   1.00
N550   N     0.86207   0.98772   0.99886   0.00000  Uiso   1.00
N551   N     0.72522   0.57532   0.90324   0.00000  Uiso   1.00
N552   N     0.43698   0.93773   0.89326   0.00000  Uiso   1.00
C553   C     0.30397   0.36913   0.74907   0.00000  Uiso   1.00
C554   C     0.35377   0.30668   0.75094   0.00000  Uiso   1.00
C555   C     0.38045   0.27663   0.78696   0.00000  Uiso   1.00
C556   C     0.42521   0.21984   0.78208   0.00000  Uiso   1.00
C557   C     0.49986   0.12677   0.79099   0.00000  Uiso   1.00
C558   C     0.24011   0.34438   0.72459   0.00000  Uiso   1.00
C559   C     0.17122   0.34605   0.73845   0.00000  Uiso   1.00
C560   C     0.12030   0.32100   0.71138   0.00000  Uiso   1.00
C561   C     0.01848   0.28651   0.67937   0.00000  Uiso   1.00
C562   C     0.34000   0.42381   0.72184   0.00000  Uiso   1.00
C563   C     0.35508   0.49228   0.73339   0.00000  Uiso   1.00
C564   C     0.38825   0.53411   0.70401   0.00000  Uiso   1.00
C565   C     0.44152   0.62295   0.66774   0.00000  Uiso   1.00
C566   C     0.33603   0.32169   0.67635   0.00000  Uiso   1.00
C567   C     0.37118   0.28091   0.71144   0.00000  Uiso   1.00
C568   C     0.41591   0.22415   0.70651   0.00000  Uiso   1.00
C569   C     0.44266   0.19403   0.74251   0.00000  Uiso   1.00
C570   C     0.25751   0.31862   0.68509   0.00000  Uiso   1.00
C571   C     0.20668   0.29357   0.65800   0.00000  Uiso   1.00
C572   C     0.13774   0.29519   0.67181   0.00000  Uiso   1.00
C573   C     0.35741   0.39805   0.68235   0.00000  Uiso   1.00
C574   C     0.39055   0.43979   0.65294   0.00000  Uiso   1.00
C575   C     0.40569   0.50830   0.66444   0.00000  Uiso   1.00
H576   H     0.29041   0.38919   0.77981   0.00000  Uiso   1.00
H577   H     0.36696   0.29658   0.81752   0.00000  Uiso   1.00
H578   H     0.15776   0.36600   0.76901   0.00000  Uiso   1.00
H579   H     0.34160   0.51220   0.76395   0.00000  Uiso   1.00
H580   H     0.45948   0.18254   0.84190   0.00000  Uiso   1.00
H581   H     0.01838   0.32892   0.73962   0.00000  Uiso   1.00
H582   H     0.40604   0.63721   0.72896   0.00000  Uiso   1.00
H583   H     0.34958   0.30163   0.64560   0.00000  Uiso   1.00
H584   H     0.42938   0.20422   0.67594   0.00000  Uiso   1.00
H585   H     0.22018   0.27364   0.62743   0.00000  Uiso   1.00
H586   H     0.40402   0.41984   0.62238   0.00000  Uiso   1.00
H587   H     0.51014   0.10757   0.72699   0.00000  Uiso   1.00
H588   H     0.06903   0.25396   0.62471   0.00000  Uiso   1.00
H589   H     0.45669   0.56225   0.61405   0.00000  Uiso   1.00
O590   O     0.53622   0.08254   0.80682   0.00000  Uiso   1.00
O591   O     0.95751   0.27460   0.67263   0.00000  Uiso   1.00
O592   O     0.46611   0.67907   0.65865   0.00000  Uiso   1.00
N593   N     0.46046   0.17827   0.81069   0.00000  Uiso   1.00
N594   N     0.04806   0.31512   0.71507   0.00000  Uiso   1.00
N595   N     0.41047   0.60335   0.70510   0.00000  Uiso   1.00
N596   N     0.48772   0.13793   0.74886   0.00000  Uiso   1.00
N597   N     0.07532   0.27478   0.65324   0.00000  Uiso   1.00
N598   N     0.43773   0.56302   0.64326   0.00000  Uiso   1.00
C599   C     0.80397   0.86913   0.24907   0.00000  Uiso   1.00
C600   C     0.85377   0.80668   0.25094   0.00000  Uiso   1.00
C601   C     0.88045   0.77663   0.28696   0.00000  Uiso   1.00
C602   C     0.92521   0.71984   0.28208   0.00000  Uiso   1.00
C603   C     0.99986   0.62677   0.29099   0.00000  Uiso   1.00
C604   C     0.74011   0.84438   0.22459   0.00000  Uiso   1.00
C605   C     0.67122   0.84605   0.23845   0.00000  Uiso   1.00
C606   C     0.62030   0.82100   0.21138   0.00000  Uiso   1.00
C607   C     0.51848   0.78651   0.17937   0.00000  Uiso   1.00
C608   C     0.84000   0.92381   0.22184   0.00000  Uiso   1.00
C609   C     0.85508   0.99228   0.23339   0.00000  Uiso   1.00
C610   C     0.88825   0.03411   0.20401   0.00000  Uiso   1.00
C611   C     0.94152   0.12295   0.16774   0.00000  Uiso   1.00
C612   C     0.83603   0.82169   0.17635   0.00000  Uiso   1.00
C613   C     0.87118   0.78091   0.21144   0.00000  Uiso   1.00
C614   C     0.91591   0.72415   0.20651   0.00000  Uiso   1.00
C615   C     0.94266   0.69403   0.24251   0.00000  Uiso   1.00
C616   C     0.75751   0.81862   0.18509   0.00000  Uiso   1.00
C617   C     0.70668   0.79357   0.15800   0.00000  Uiso   1.00
C618   C     0.63774   0.79519   0.17181   0.00000  Uiso   1.00
C619   C     0.85741   0.89805   0.18235   0.00000  Uiso   1.00
C620   C     0.89055   0.93979   0.15294   0.00000  Uiso   1.00
C621   C     0.90569   0.00830   0.16444   0.00000  Uiso   1.00
H622   H     0.79041   0.88919   0.27981   0.00000  Uiso   1.00
H623   H     0.86696   0.79658   0.31752   0.00000  Uiso   1.00
H624   H     0.65776   0.86600   0.26901   0.00000  Uiso   1.00
H625   H     0.84160   0.01220   0.26395   0.00000  Uiso   1.00
H626   H     0.95948   0.68254   0.34190   0.00000  Uiso   1.00
H627   H     0.51838   0.82892   0.23962   0.00000  Uiso   1.00
H628   H     0.90604   0.13721   0.22896   0.00000  Uiso   1.00
H629   H     0.84958   0.80163   0.14560   0.00000  Uiso   1.00
H630   H     0.92938   0.70422   0.17594   0.00000  Uiso   1.00
H631   H     0.72018   0.77364   0.12743   0.00000  Uiso   1.00
H632   H     0.90402   0.91984   0.12238   0.00000  Uiso   1.00
H633   H     0.01014   0.60757   0.22699   0.00000  Uiso   1.00
H634   H     0.56903   0.75396   0.12471   0.00000  Uiso   1.00
H635   H     0.95669   0.06225   0.11405   0.00000  Uiso   1.00
O636   O     0.03622   0.58254   0.30682   0.00000  Uiso   1.00
O637   O     0.45751   0.77460   0.17263   0.00000  Uiso   1.00
O638   O     0.96611   0.17907   0.15865   0.00000  Uiso   1.00
N639   N     0.96046   0.67827   0.31069   0.00000  Uiso   1.00
N640   N     0.54806   0.81512   0.21507   0.00000  Uiso   1.00
N641   N     0.91047   0.10335   0.20510   0.00000  Uiso   1.00
N642   N     0.98772   0.63793   0.24886   0.00000  Uiso   1.00
N643   N     0.57532   0.77478   0.15324   0.00000  Uiso   1.00
N644   N     0.93773   0.06302   0.14326   0.00000  Uiso   1.00
C645   C     0.19603   0.13087   0.24907   0.00000  Uiso   1.00
C646   C     0.14623   0.19332   0.25094   0.00000  Uiso   1.00
C647   C     0.11955   0.22337   0.28696   0.00000  Uiso   1.00
C648   C     0.07479   0.28016   0.28208   0.00000  Uiso   1.00
C649   C     0.00014   0.37323   0.29099   0.00000  Uiso   1.00
C650   C     0.25989   0.15562   0.22459   0.00000  Uiso   1.00
C651   C     0.32878   0.15395   0.23845   0.00000  Uiso   1.00
C652   C     0.37970   0.17900   0.21138   0.00000  Uiso   1.00
C653   C     0.48152   0.21349   0.17937   0.00000  Uiso   1.00
C654   C     0.16000   0.07619   0.22184   0.00000  Uiso   1.00
C655   C     0.14492   0.00772   0.23339   0.00000  Uiso   1.00
C656   C     0.11175   0.96589   0.20401   0.00000  Uiso   1.00
C657   C     0.05848   0.87705   0.16774   0.00000  Uiso   1.00
C658   C     0.16397   0.17831   0.17635   0.00000  Uiso   1.00
C659   C     0.12882   0.21909   0.21144   0.00000  Uiso   1.00
C660   C     0.08409   0.27585   0.20651   0.00000  Uiso   1.00
C661   C     0.05734   0.30597   0.24251   0.00000  Uiso   1.00
C662   C     0.24249   0.18138   0.18509   0.00000  Uiso   1.00
C663   C     0.29332   0.20643   0.15800   0.00000  Uiso   1.00
C664   C     0.36226   0.20481   0.17181   0.00000  Uiso   1.00
C665   C     0.14259   0.10195   0.18235   0.00000  Uiso   1.00
C666   C     0.10945   0.06021   0.15294   0.00000  Uiso   1.00
C667   C     0.09431   0.99170   0.16444   0.00000  Uiso   1.00
H668   H     0.20959   0.11081   0.27981   0.00000  Uiso   1.00
H669   H     0.13304   0.20342   0.31752   0.00000  Uiso   1.00
H670   H     0.34224   0.13400   0.26901   0.00000  Uiso   1.00
H671   H     0.15840   0.98780   0.26395   0.00000  Uiso   1.00
H672   H     0.04052   0.31746   0.34190   0.00000  Uiso   1.00
H673   H     0.48162   0.17108   0.23962   0.00000  Uiso   1.00
H674   H     0.09396   0.86279   0.22896   0.00000  Uiso   1.00
H675   H     0.15042   0.19837   0.14560   0.00000  Uiso   1.00
H676   H     0.07062   0.29578   0.17594   0.00000  Uiso   1.00
H677   H     0.27982   0.22636   0.12743   0.00000  Uiso   1.00
H678   H     0.09598   0.08016   0.12238   0.00000  Uiso   1.00
H679   H     0.98986   0.39243   0.22699   0.00000  Uiso   1.00
H680   H     0.43097   0.24604   0.12471   0.00000  Uiso   1.00
H681   H     0.04331   0.93775   0.11405   0.00000  Uiso   1.00
O682   O     0.96378   0.41746   0.30682   0.00000  Uiso   1.00
O683   O     0.54249   0.22540   0.17263   0.00000  Uiso   1.00
O684   O     0.03389   0.82093   0.15865   0.00000  Uiso   1.00
N685   N     0.03954   0.32173   0.31069   0.00000  Uiso   1.00
N686   N     0.45194   0.18488   0.21507   0.00000  Uiso   1.00
N687   N     0.08953   0.89665   0.20510   0.00000  Uiso   1.00
N688   N     0.01228   0.36207   0.24886   0.00000  Uiso   1.00
N689   N     0.42468   0.22522   0.15324   0.00000  Uiso   1.00
N690   N     0.06227   0.93698   0.14326   0.00000  Uiso   1.00
C691   C     0.69603   0.63087   0.74907   0.00000  Uiso   1.00
C692   C     0.64623   0.69332   0.75094   0.00000  Uiso   1.00
C693   C     0.61955   0.72337   0.78696   0.00000  Uiso   1.00
C694   C     0.57479   0.78016   0.78208   0.00000  Uiso   1.00
C695   C     0.50014   0.87323   0.79099   0.00000  Uiso   1.00
C696   C     0.75989   0.65562   0.72459   0.00000  Uiso   1.00
C697   C     0.82878   0.65395   0.73845   0.00000  Uiso   1.00
C698   C     0.87970   0.67900   0.71138   0.00000  Uiso   1.00
C699   C     0.98152   0.71349   0.67937   0.00000  Uiso   1.00
C700   C     0.66000   0.57619   0.72184   0.00000  Uiso   1.00
C701   C     0.64492   0.50772   0.73339   0.00000  Uiso   1.00
C702   C     0.61175   0.46589   0.70401   0.00000  Uiso   1.00
C703   C     0.55848   0.37705   0.66774   0.00000  Uiso   1.00
C704   C     0.66397   0.67831   0.67635   0.00000  Uiso   1.00
C705   C     0.62882   0.71909   0.71144   0.00000  Uiso   1.00
C706   C     0.58409   0.77585   0.70651   0.00000  Uiso   1.00
C707   C     0.55734   0.80597   0.74251   0.00000  Uiso   1.00
C708   C     0.74249   0.68138   0.68509   0.00000  Uiso   1.00
C709   C     0.79332   0.70643   0.65800   0.00000  Uiso   1.00
C710   C     0.86226   0.70481   0.67181   0.00000  Uiso   1.00
C711   C     0.64259   0.60195   0.68235   0.00000  Uiso   1.00
C712   C     0.60945   0.56021   0.65294   0.00000  Uiso   1.00
C713   C     0.59431   0.49170   0.66444   0.00000  Uiso   1.00
H714   H     0.70959   0.61081   0.77981   0.00000  Uiso   1.00
H715   H     0.63304   0.70342   0.81752   0.00000  Uiso   1.00
H716   H     0.84224   0.63400   0.76901   0.00000  Uiso   1.00
H717   H     0.65840   0.48780   0.76395   0.00000  Uiso   1.00
H718   H     0.54052   0.81746   0.84190   0.00000  Uiso   1.00
H719   H     0.98162   0.67108   0.73962   0.00000  Uiso   1.00
H720   H     0.59396   0.36279   0.72896   0.00000  Uiso   1.00
H721   H     0.65042   0.69837   0.64560   0.00000  Uiso   1.00
H722   H     0.57062   0.79578   0.67594   0.00000  Uiso   1.00
H723   H     0.77982   0.72636   0.62743   0.00000  Uiso   1.00
H724   H     0.59598   0.58016   0.62238   0.00000  Uiso   1.00
H725   H     0.48986   0.89243   0.72699   0.00000  Uiso   1.00
H726   H     0.93097   0.74604   0.62471   0.00000  Uiso   1.00
H727   H     0.54331   0.43775   0.61405   0.00000  Uiso   1.00
O728   O     0.46378   0.91746   0.80682   0.00000  Uiso   1.00
O729   O     0.04249   0.72540   0.67263   0.00000  Uiso   1.00
O730   O     0.53389   0.32093   0.65865   0.00000  Uiso   1.00
N731   N     0.53954   0.82173   0.81069   0.00000  Uiso   1.00
N732   N     0.95194   0.68488   0.71507   0.00000  Uiso   1.00
N733   N     0.58953   0.39665   0.70510   0.00000  Uiso   1.00
N734   N     0.51228   0.86207   0.74886   0.00000  Uiso   1.00
N735   N     0.92468   0.72522   0.65324   0.00000  Uiso   1.00
N736   N     0.56227   0.43698   0.64326   0.00000  Uiso   1.00
