data_job_03484
_audit_creation_date              2018-12-19
_audit_creation_method            'Materials Studio'
_symmetry_space_group_name_H-M    'P1'
_symmetry_Int_Tables_number       1
_symmetry_cell_setting            triclinic
loop_
_symmetry_equiv_pos_as_xyz
  x,y,z
_cell_length_a                    27.3580
_cell_length_b                    27.3580
_cell_length_c                    12.2006
_cell_angle_alpha                 90.0000
_cell_angle_beta                  90.0000
_cell_angle_gamma                 90.0000
loop_
_atom_site_label
_atom_site_type_symbol
_atom_site_fract_x
_atom_site_fract_y
_atom_site_fract_z
_atom_site_U_iso_or_equiv
_atom_site_adp_type
_atom_site_occupancy
C1     C     0.16580   0.61731   0.09048   0.00000  Uiso   1.00
C2     C     0.11419   0.60067   0.06153   0.00000  Uiso   1.00
C3     C     0.09213   0.60512   0.95960   0.00000  Uiso   1.00
C4     C     0.04468   0.58766   0.94978   0.00000  Uiso   1.00
C5     C     0.96826   0.56505   0.89132   0.00000  Uiso   1.00
C6     C     0.16038   0.65229   0.18704   0.00000  Uiso   1.00
C7     C     0.17716   0.70014   0.19062   0.00000  Uiso   1.00
C8     C     0.16859   0.72613   0.28646   0.00000  Uiso   1.00
C9     C     0.16391   0.78365   0.42287   0.00000  Uiso   1.00
C10    C     0.19197   0.57231   0.13514   0.00000  Uiso   1.00
C11    C     0.23531   0.55292   0.09512   0.00000  Uiso   1.00
C12    C     0.25335   0.51158   0.14729   0.00000  Uiso   1.00
C13    C     0.29771   0.44493   0.20313   0.00000  Uiso   1.00
C14    C     0.12077   0.57839   0.25432   0.00000  Uiso   1.00
C15    C     0.08974   0.57953   0.15053   0.00000  Uiso   1.00
C16    C     0.04231   0.56205   0.14087   0.00000  Uiso   1.00
C17    C     0.02018   0.56648   0.03893   0.00000  Uiso   1.00
C18    C     0.13592   0.63115   0.27603   0.00000  Uiso   1.00
C19    C     0.12733   0.65707   0.37189   0.00000  Uiso   1.00
C20    C     0.14409   0.70495   0.37562   0.00000  Uiso   1.00
C21    C     0.16751   0.55117   0.22413   0.00000  Uiso   1.00
C22    C     0.18549   0.50985   0.27639   0.00000  Uiso   1.00
C23    C     0.22885   0.49040   0.23644   0.00000  Uiso   1.00
H24    H     0.18484   0.63378   0.02120   0.00000  Uiso   1.00
H25    H     0.11107   0.62149   0.89075   0.00000  Uiso   1.00
H26    H     0.19609   0.71649   0.12174   0.00000  Uiso   1.00
H27    H     0.25423   0.56929   0.02625   0.00000  Uiso   1.00
H28    H     0.01848   0.59856   0.78538   0.00000  Uiso   1.00
H29    H     0.19776   0.79886   0.27245   0.00000  Uiso   1.00
H30    H     0.32037   0.48847   0.07110   0.00000  Uiso   1.00
H31    H     0.10173   0.56193   0.32361   0.00000  Uiso   1.00
H32    H     0.02339   0.54569   0.20975   0.00000  Uiso   1.00
H33    H     0.10841   0.64070   0.44074   0.00000  Uiso   1.00
H34    H     0.16655   0.49350   0.34525   0.00000  Uiso   1.00
H35    H     0.94732   0.53704   0.04429   0.00000  Uiso   1.00
H36    H     0.12660   0.73735   0.53137   0.00000  Uiso   1.00
H37    H     0.24921   0.42696   0.33001   0.00000  Uiso   1.00
O38    O     0.93286   0.55843   0.83449   0.00000  Uiso   1.00
O39    O     0.16807   0.82122   0.47352   0.00000  Uiso   1.00
O40    O     0.32894   0.41400   0.20933   0.00000  Uiso   1.00
N41    N     0.01249   0.58630   0.86194   0.00000  Uiso   1.00
N42    N     0.18010   0.77358   0.31731   0.00000  Uiso   1.00
N43    N     0.29473   0.48340   0.12908   0.00000  Uiso   1.00
N44    N     0.97420   0.55320   0.00125   0.00000  Uiso   1.00
N45    N     0.14180   0.74048   0.45663   0.00000  Uiso   1.00
N46    N     0.25644   0.45029   0.26840   0.00000  Uiso   1.00
C47    C     0.66580   0.11731   0.59048   0.00000  Uiso   1.00
C48    C     0.61419   0.10067   0.56153   0.00000  Uiso   1.00
C49    C     0.59213   0.10512   0.45960   0.00000  Uiso   1.00
C50    C     0.54468   0.08766   0.44978   0.00000  Uiso   1.00
C51    C     0.46826   0.06505   0.39132   0.00000  Uiso   1.00
C52    C     0.66038   0.15229   0.68704   0.00000  Uiso   1.00
C53    C     0.67716   0.20014   0.69062   0.00000  Uiso   1.00
C54    C     0.66859   0.22613   0.78646   0.00000  Uiso   1.00
C55    C     0.66391   0.28365   0.92287   0.00000  Uiso   1.00
C56    C     0.69197   0.07231   0.63514   0.00000  Uiso   1.00
C57    C     0.73531   0.05292   0.59512   0.00000  Uiso   1.00
C58    C     0.75335   0.01158   0.64729   0.00000  Uiso   1.00
C59    C     0.79771   0.94493   0.70313   0.00000  Uiso   1.00
C60    C     0.62077   0.07839   0.75432   0.00000  Uiso   1.00
C61    C     0.58974   0.07953   0.65053   0.00000  Uiso   1.00
C62    C     0.54231   0.06205   0.64087   0.00000  Uiso   1.00
C63    C     0.52018   0.06648   0.53893   0.00000  Uiso   1.00
C64    C     0.63592   0.13115   0.77603   0.00000  Uiso   1.00
C65    C     0.62733   0.15707   0.87189   0.00000  Uiso   1.00
C66    C     0.64409   0.20495   0.87562   0.00000  Uiso   1.00
C67    C     0.66751   0.05117   0.72413   0.00000  Uiso   1.00
C68    C     0.68549   0.00985   0.77639   0.00000  Uiso   1.00
C69    C     0.72885   0.99040   0.73644   0.00000  Uiso   1.00
H70    H     0.68484   0.13378   0.52120   0.00000  Uiso   1.00
H71    H     0.61107   0.12149   0.39075   0.00000  Uiso   1.00
H72    H     0.69609   0.21649   0.62174   0.00000  Uiso   1.00
H73    H     0.75423   0.06929   0.52625   0.00000  Uiso   1.00
H74    H     0.51848   0.09856   0.28538   0.00000  Uiso   1.00
H75    H     0.69776   0.29886   0.77245   0.00000  Uiso   1.00
H76    H     0.82037   0.98847   0.57110   0.00000  Uiso   1.00
H77    H     0.60173   0.06193   0.82361   0.00000  Uiso   1.00
H78    H     0.52339   0.04569   0.70975   0.00000  Uiso   1.00
H79    H     0.60841   0.14070   0.94074   0.00000  Uiso   1.00
H80    H     0.66655   0.99350   0.84525   0.00000  Uiso   1.00
H81    H     0.44732   0.03704   0.54429   0.00000  Uiso   1.00
H82    H     0.62660   0.23735   0.03137   0.00000  Uiso   1.00
H83    H     0.74921   0.92696   0.83001   0.00000  Uiso   1.00
O84    O     0.43286   0.05843   0.33449   0.00000  Uiso   1.00
O85    O     0.66807   0.32122   0.97352   0.00000  Uiso   1.00
O86    O     0.82894   0.91400   0.70933   0.00000  Uiso   1.00
N87    N     0.51249   0.08630   0.36194   0.00000  Uiso   1.00
N88    N     0.68010   0.27358   0.81731   0.00000  Uiso   1.00
N89    N     0.79473   0.98340   0.62908   0.00000  Uiso   1.00
N90    N     0.47420   0.05320   0.50125   0.00000  Uiso   1.00
N91    N     0.64180   0.24048   0.95663   0.00000  Uiso   1.00
N92    N     0.75644   0.95029   0.76840   0.00000  Uiso   1.00
C93    C     0.33420   0.88269   0.59048   0.00000  Uiso   1.00
C94    C     0.38581   0.89933   0.56153   0.00000  Uiso   1.00
C95    C     0.40787   0.89488   0.45960   0.00000  Uiso   1.00
C96    C     0.45532   0.91234   0.44978   0.00000  Uiso   1.00
C97    C     0.53174   0.93495   0.39132   0.00000  Uiso   1.00
C98    C     0.33962   0.84771   0.68704   0.00000  Uiso   1.00
C99    C     0.32284   0.79986   0.69062   0.00000  Uiso   1.00
C100   C     0.33141   0.77387   0.78646   0.00000  Uiso   1.00
C101   C     0.33609   0.71635   0.92287   0.00000  Uiso   1.00
C102   C     0.30803   0.92769   0.63514   0.00000  Uiso   1.00
C103   C     0.26469   0.94708   0.59512   0.00000  Uiso   1.00
C104   C     0.24665   0.98842   0.64729   0.00000  Uiso   1.00
C105   C     0.20229   0.05507   0.70313   0.00000  Uiso   1.00
C106   C     0.37923   0.92161   0.75432   0.00000  Uiso   1.00
C107   C     0.41026   0.92047   0.65053   0.00000  Uiso   1.00
C108   C     0.45769   0.93795   0.64087   0.00000  Uiso   1.00
C109   C     0.47982   0.93352   0.53893   0.00000  Uiso   1.00
C110   C     0.36408   0.86885   0.77603   0.00000  Uiso   1.00
C111   C     0.37267   0.84293   0.87189   0.00000  Uiso   1.00
C112   C     0.35591   0.79505   0.87562   0.00000  Uiso   1.00
C113   C     0.33249   0.94883   0.72413   0.00000  Uiso   1.00
C114   C     0.31451   0.99015   0.77639   0.00000  Uiso   1.00
C115   C     0.27115   0.00960   0.73644   0.00000  Uiso   1.00
H116   H     0.31516   0.86622   0.52120   0.00000  Uiso   1.00
H117   H     0.38893   0.87851   0.39075   0.00000  Uiso   1.00
H118   H     0.30391   0.78351   0.62174   0.00000  Uiso   1.00
H119   H     0.24577   0.93071   0.52625   0.00000  Uiso   1.00
H120   H     0.48152   0.90144   0.28538   0.00000  Uiso   1.00
H121   H     0.30224   0.70114   0.77245   0.00000  Uiso   1.00
H122   H     0.17963   0.01153   0.57110   0.00000  Uiso   1.00
H123   H     0.39827   0.93807   0.82361   0.00000  Uiso   1.00
H124   H     0.47661   0.95431   0.70975   0.00000  Uiso   1.00
H125   H     0.39159   0.85930   0.94074   0.00000  Uiso   1.00
H126   H     0.33345   0.00650   0.84525   0.00000  Uiso   1.00
H127   H     0.55268   0.96296   0.54429   0.00000  Uiso   1.00
H128   H     0.37340   0.76265   0.03137   0.00000  Uiso   1.00
H129   H     0.25079   0.07304   0.83001   0.00000  Uiso   1.00
O130   O     0.56714   0.94157   0.33449   0.00000  Uiso   1.00
O131   O     0.33193   0.67878   0.97352   0.00000  Uiso   1.00
O132   O     0.17106   0.08600   0.70933   0.00000  Uiso   1.00
N133   N     0.48751   0.91370   0.36194   0.00000  Uiso   1.00
N134   N     0.31990   0.72642   0.81731   0.00000  Uiso   1.00
N135   N     0.20527   0.01660   0.62908   0.00000  Uiso   1.00
N136   N     0.52580   0.94680   0.50125   0.00000  Uiso   1.00
N137   N     0.35820   0.75952   0.95663   0.00000  Uiso   1.00
N138   N     0.24356   0.04971   0.76840   0.00000  Uiso   1.00
C139   C     0.83420   0.38269   0.09048   0.00000  Uiso   1.00
C140   C     0.88581   0.39933   0.06153   0.00000  Uiso   1.00
C141   C     0.90787   0.39488   0.95960   0.00000  Uiso   1.00
C142   C     0.95532   0.41234   0.94978   0.00000  Uiso   1.00
C143   C     0.03174   0.43495   0.89132   0.00000  Uiso   1.00
C144   C     0.83962   0.34771   0.18704   0.00000  Uiso   1.00
C145   C     0.82284   0.29986   0.19062   0.00000  Uiso   1.00
C146   C     0.83141   0.27387   0.28646   0.00000  Uiso   1.00
C147   C     0.83609   0.21635   0.42287   0.00000  Uiso   1.00
C148   C     0.80803   0.42769   0.13514   0.00000  Uiso   1.00
C149   C     0.76469   0.44708   0.09512   0.00000  Uiso   1.00
C150   C     0.74665   0.48842   0.14729   0.00000  Uiso   1.00
C151   C     0.70229   0.55507   0.20313   0.00000  Uiso   1.00
C152   C     0.87923   0.42161   0.25432   0.00000  Uiso   1.00
C153   C     0.91026   0.42047   0.15053   0.00000  Uiso   1.00
C154   C     0.95769   0.43795   0.14087   0.00000  Uiso   1.00
C155   C     0.97982   0.43352   0.03893   0.00000  Uiso   1.00
C156   C     0.86408   0.36885   0.27603   0.00000  Uiso   1.00
C157   C     0.87267   0.34293   0.37189   0.00000  Uiso   1.00
C158   C     0.85591   0.29505   0.37562   0.00000  Uiso   1.00
C159   C     0.83249   0.44883   0.22413   0.00000  Uiso   1.00
C160   C     0.81451   0.49015   0.27639   0.00000  Uiso   1.00
C161   C     0.77115   0.50960   0.23644   0.00000  Uiso   1.00
H162   H     0.81516   0.36622   0.02120   0.00000  Uiso   1.00
H163   H     0.88893   0.37851   0.89075   0.00000  Uiso   1.00
H164   H     0.80391   0.28351   0.12174   0.00000  Uiso   1.00
H165   H     0.74577   0.43071   0.02625   0.00000  Uiso   1.00
H166   H     0.98152   0.40144   0.78538   0.00000  Uiso   1.00
H167   H     0.80224   0.20114   0.27245   0.00000  Uiso   1.00
H168   H     0.67963   0.51153   0.07110   0.00000  Uiso   1.00
H169   H     0.89827   0.43807   0.32361   0.00000  Uiso   1.00
H170   H     0.97661   0.45431   0.20975   0.00000  Uiso   1.00
H171   H     0.89159   0.35930   0.44074   0.00000  Uiso   1.00
H172   H     0.83345   0.50650   0.34525   0.00000  Uiso   1.00
H173   H     0.05268   0.46296   0.04429   0.00000  Uiso   1.00
H174   H     0.87340   0.26265   0.53137   0.00000  Uiso   1.00
H175   H     0.75079   0.57304   0.33001   0.00000  Uiso   1.00
O176   O     0.06714   0.44157   0.83449   0.00000  Uiso   1.00
O177   O     0.83193   0.17878   0.47352   0.00000  Uiso   1.00
O178   O     0.67106   0.58600   0.20933   0.00000  Uiso   1.00
N179   N     0.98751   0.41370   0.86194   0.00000  Uiso   1.00
N180   N     0.81990   0.22642   0.31731   0.00000  Uiso   1.00
N181   N     0.70527   0.51660   0.12908   0.00000  Uiso   1.00
N182   N     0.02580   0.44680   0.00125   0.00000  Uiso   1.00
N183   N     0.85820   0.25952   0.45663   0.00000  Uiso   1.00
N184   N     0.74356   0.54971   0.26840   0.00000  Uiso   1.00
C185   C     0.38269   0.66580   0.34048   0.00000  Uiso   1.00
C186   C     0.39933   0.61419   0.31153   0.00000  Uiso   1.00
C187   C     0.39488   0.59213   0.20960   0.00000  Uiso   1.00
C188   C     0.41234   0.54468   0.19978   0.00000  Uiso   1.00
C189   C     0.43495   0.46826   0.14132   0.00000  Uiso   1.00
C190   C     0.34771   0.66038   0.43704   0.00000  Uiso   1.00
C191   C     0.29986   0.67716   0.44062   0.00000  Uiso   1.00
C192   C     0.27387   0.66859   0.53646   0.00000  Uiso   1.00
C193   C     0.21635   0.66391   0.67287   0.00000  Uiso   1.00
C194   C     0.42769   0.69197   0.38514   0.00000  Uiso   1.00
C195   C     0.44708   0.73531   0.34512   0.00000  Uiso   1.00
C196   C     0.48842   0.75335   0.39729   0.00000  Uiso   1.00
C197   C     0.55507   0.79771   0.45313   0.00000  Uiso   1.00
C198   C     0.42161   0.62077   0.50432   0.00000  Uiso   1.00
C199   C     0.42047   0.58974   0.40053   0.00000  Uiso   1.00
C200   C     0.43795   0.54231   0.39087   0.00000  Uiso   1.00
C201   C     0.43352   0.52018   0.28893   0.00000  Uiso   1.00
C202   C     0.36885   0.63592   0.52603   0.00000  Uiso   1.00
C203   C     0.34293   0.62733   0.62189   0.00000  Uiso   1.00
C204   C     0.29505   0.64409   0.62562   0.00000  Uiso   1.00
C205   C     0.44883   0.66751   0.47413   0.00000  Uiso   1.00
C206   C     0.49015   0.68549   0.52639   0.00000  Uiso   1.00
C207   C     0.50960   0.72885   0.48644   0.00000  Uiso   1.00
H208   H     0.36622   0.68484   0.27120   0.00000  Uiso   1.00
H209   H     0.37851   0.61107   0.14075   0.00000  Uiso   1.00
H210   H     0.28351   0.69609   0.37174   0.00000  Uiso   1.00
H211   H     0.43071   0.75423   0.27625   0.00000  Uiso   1.00
H212   H     0.40144   0.51848   0.03538   0.00000  Uiso   1.00
H213   H     0.20114   0.69776   0.52245   0.00000  Uiso   1.00
H214   H     0.51153   0.82037   0.32110   0.00000  Uiso   1.00
H215   H     0.43807   0.60173   0.57361   0.00000  Uiso   1.00
H216   H     0.45431   0.52339   0.45975   0.00000  Uiso   1.00
H217   H     0.35930   0.60841   0.69074   0.00000  Uiso   1.00
H218   H     0.50650   0.66655   0.59525   0.00000  Uiso   1.00
H219   H     0.46296   0.44732   0.29429   0.00000  Uiso   1.00
H220   H     0.26265   0.62660   0.78137   0.00000  Uiso   1.00
H221   H     0.57304   0.74921   0.58001   0.00000  Uiso   1.00
O222   O     0.44157   0.43286   0.08449   0.00000  Uiso   1.00
O223   O     0.17878   0.66807   0.72352   0.00000  Uiso   1.00
O224   O     0.58600   0.82894   0.45933   0.00000  Uiso   1.00
N225   N     0.41370   0.51249   0.11194   0.00000  Uiso   1.00
N226   N     0.22642   0.68010   0.56731   0.00000  Uiso   1.00
N227   N     0.51660   0.79473   0.37908   0.00000  Uiso   1.00
N228   N     0.44680   0.47420   0.25125   0.00000  Uiso   1.00
N229   N     0.25952   0.64180   0.70663   0.00000  Uiso   1.00
N230   N     0.54971   0.75644   0.51840   0.00000  Uiso   1.00
C231   C     0.88269   0.16580   0.84048   0.00000  Uiso   1.00
C232   C     0.89933   0.11419   0.81153   0.00000  Uiso   1.00
C233   C     0.89488   0.09213   0.70960   0.00000  Uiso   1.00
C234   C     0.91234   0.04468   0.69978   0.00000  Uiso   1.00
C235   C     0.93495   0.96826   0.64132   0.00000  Uiso   1.00
C236   C     0.84771   0.16038   0.93704   0.00000  Uiso   1.00
C237   C     0.79986   0.17716   0.94062   0.00000  Uiso   1.00
C238   C     0.77387   0.16859   0.03646   0.00000  Uiso   1.00
C239   C     0.71635   0.16391   0.17287   0.00000  Uiso   1.00
C240   C     0.92769   0.19197   0.88514   0.00000  Uiso   1.00
C241   C     0.94708   0.23531   0.84512   0.00000  Uiso   1.00
C242   C     0.98842   0.25335   0.89729   0.00000  Uiso   1.00
C243   C     0.05507   0.29771   0.95313   0.00000  Uiso   1.00
C244   C     0.92161   0.12077   0.00432   0.00000  Uiso   1.00
C245   C     0.92047   0.08974   0.90053   0.00000  Uiso   1.00
C246   C     0.93795   0.04231   0.89087   0.00000  Uiso   1.00
C247   C     0.93352   0.02018   0.78893   0.00000  Uiso   1.00
C248   C     0.86885   0.13592   0.02603   0.00000  Uiso   1.00
C249   C     0.84293   0.12733   0.12189   0.00000  Uiso   1.00
C250   C     0.79505   0.14409   0.12562   0.00000  Uiso   1.00
C251   C     0.94883   0.16751   0.97413   0.00000  Uiso   1.00
C252   C     0.99015   0.18549   0.02639   0.00000  Uiso   1.00
C253   C     0.00960   0.22885   0.98644   0.00000  Uiso   1.00
H254   H     0.86622   0.18484   0.77120   0.00000  Uiso   1.00
H255   H     0.87851   0.11107   0.64075   0.00000  Uiso   1.00
H256   H     0.78351   0.19609   0.87174   0.00000  Uiso   1.00
H257   H     0.93071   0.25423   0.77625   0.00000  Uiso   1.00
H258   H     0.90144   0.01848   0.53538   0.00000  Uiso   1.00
H259   H     0.70114   0.19776   0.02245   0.00000  Uiso   1.00
H260   H     0.01153   0.32037   0.82110   0.00000  Uiso   1.00
H261   H     0.93807   0.10173   0.07361   0.00000  Uiso   1.00
H262   H     0.95431   0.02339   0.95975   0.00000  Uiso   1.00
H263   H     0.85930   0.10841   0.19074   0.00000  Uiso   1.00
H264   H     0.00650   0.16655   0.09525   0.00000  Uiso   1.00
H265   H     0.96296   0.94732   0.79429   0.00000  Uiso   1.00
H266   H     0.76265   0.12660   0.28137   0.00000  Uiso   1.00
H267   H     0.07304   0.24921   0.08001   0.00000  Uiso   1.00
O268   O     0.94157   0.93286   0.58449   0.00000  Uiso   1.00
O269   O     0.67878   0.16807   0.22352   0.00000  Uiso   1.00
O270   O     0.08600   0.32894   0.95933   0.00000  Uiso   1.00
N271   N     0.91370   0.01249   0.61194   0.00000  Uiso   1.00
N272   N     0.72642   0.18010   0.06731   0.00000  Uiso   1.00
N273   N     0.01660   0.29473   0.87908   0.00000  Uiso   1.00
N274   N     0.94680   0.97420   0.75125   0.00000  Uiso   1.00
N275   N     0.75952   0.14180   0.20663   0.00000  Uiso   1.00
N276   N     0.04971   0.25644   0.01840   0.00000  Uiso   1.00
C277   C     0.11731   0.83420   0.84048   0.00000  Uiso   1.00
C278   C     0.10067   0.88581   0.81153   0.00000  Uiso   1.00
C279   C     0.10512   0.90787   0.70960   0.00000  Uiso   1.00
C280   C     0.08766   0.95532   0.69978   0.00000  Uiso   1.00
C281   C     0.06505   0.03174   0.64132   0.00000  Uiso   1.00
C282   C     0.15229   0.83962   0.93704   0.00000  Uiso   1.00
C283   C     0.20014   0.82284   0.94062   0.00000  Uiso   1.00
C284   C     0.22613   0.83141   0.03646   0.00000  Uiso   1.00
C285   C     0.28365   0.83609   0.17287   0.00000  Uiso   1.00
C286   C     0.07231   0.80803   0.88514   0.00000  Uiso   1.00
C287   C     0.05292   0.76469   0.84512   0.00000  Uiso   1.00
C288   C     0.01158   0.74665   0.89729   0.00000  Uiso   1.00
C289   C     0.94493   0.70229   0.95313   0.00000  Uiso   1.00
C290   C     0.07839   0.87923   0.00432   0.00000  Uiso   1.00
C291   C     0.07953   0.91026   0.90053   0.00000  Uiso   1.00
C292   C     0.06205   0.95769   0.89087   0.00000  Uiso   1.00
C293   C     0.06648   0.97982   0.78893   0.00000  Uiso   1.00
C294   C     0.13115   0.86408   0.02603   0.00000  Uiso   1.00
C295   C     0.15707   0.87267   0.12189   0.00000  Uiso   1.00
C296   C     0.20495   0.85591   0.12562   0.00000  Uiso   1.00
C297   C     0.05117   0.83249   0.97413   0.00000  Uiso   1.00
C298   C     0.00985   0.81451   0.02639   0.00000  Uiso   1.00
C299   C     0.99040   0.77115   0.98644   0.00000  Uiso   1.00
H300   H     0.13378   0.81516   0.77120   0.00000  Uiso   1.00
H301   H     0.12149   0.88893   0.64075   0.00000  Uiso   1.00
H302   H     0.21649   0.80391   0.87174   0.00000  Uiso   1.00
H303   H     0.06929   0.74577   0.77625   0.00000  Uiso   1.00
H304   H     0.09856   0.98152   0.53538   0.00000  Uiso   1.00
H305   H     0.29886   0.80224   0.02245   0.00000  Uiso   1.00
H306   H     0.98847   0.67963   0.82110   0.00000  Uiso   1.00
H307   H     0.06193   0.89827   0.07361   0.00000  Uiso   1.00
H308   H     0.04569   0.97661   0.95975   0.00000  Uiso   1.00
H309   H     0.14070   0.89159   0.19074   0.00000  Uiso   1.00
H310   H     0.99350   0.83345   0.09525   0.00000  Uiso   1.00
H311   H     0.03704   0.05268   0.79429   0.00000  Uiso   1.00
H312   H     0.23735   0.87340   0.28137   0.00000  Uiso   1.00
H313   H     0.92696   0.75079   0.08001   0.00000  Uiso   1.00
O314   O     0.05843   0.06714   0.58449   0.00000  Uiso   1.00
O315   O     0.32122   0.83193   0.22352   0.00000  Uiso   1.00
O316   O     0.91400   0.67106   0.95933   0.00000  Uiso   1.00
N317   N     0.08630   0.98751   0.61194   0.00000  Uiso   1.00
N318   N     0.27358   0.81990   0.06731   0.00000  Uiso   1.00
N319   N     0.98340   0.70527   0.87908   0.00000  Uiso   1.00
N320   N     0.05320   0.02580   0.75125   0.00000  Uiso   1.00
N321   N     0.24048   0.85820   0.20663   0.00000  Uiso   1.00
N322   N     0.95029   0.74356   0.01840   0.00000  Uiso   1.00
C323   C     0.61731   0.33420   0.34048   0.00000  Uiso   1.00
C324   C     0.60067   0.38581   0.31153   0.00000  Uiso   1.00
C325   C     0.60512   0.40787   0.20960   0.00000  Uiso   1.00
C326   C     0.58766   0.45532   0.19978   0.00000  Uiso   1.00
C327   C     0.56505   0.53174   0.14132   0.00000  Uiso   1.00
C328   C     0.65229   0.33962   0.43704   0.00000  Uiso   1.00
C329   C     0.70014   0.32284   0.44062   0.00000  Uiso   1.00
C330   C     0.72613   0.33141   0.53646   0.00000  Uiso   1.00
C331   C     0.78365   0.33609   0.67287   0.00000  Uiso   1.00
C332   C     0.57231   0.30803   0.38514   0.00000  Uiso   1.00
C333   C     0.55292   0.26469   0.34512   0.00000  Uiso   1.00
C334   C     0.51158   0.24665   0.39729   0.00000  Uiso   1.00
C335   C     0.44493   0.20229   0.45313   0.00000  Uiso   1.00
C336   C     0.57839   0.37923   0.50432   0.00000  Uiso   1.00
C337   C     0.57953   0.41026   0.40053   0.00000  Uiso   1.00
C338   C     0.56205   0.45769   0.39087   0.00000  Uiso   1.00
C339   C     0.56648   0.47982   0.28893   0.00000  Uiso   1.00
C340   C     0.63115   0.36408   0.52603   0.00000  Uiso   1.00
C341   C     0.65707   0.37267   0.62189   0.00000  Uiso   1.00
C342   C     0.70495   0.35591   0.62562   0.00000  Uiso   1.00
C343   C     0.55117   0.33249   0.47413   0.00000  Uiso   1.00
C344   C     0.50985   0.31451   0.52639   0.00000  Uiso   1.00
C345   C     0.49040   0.27115   0.48644   0.00000  Uiso   1.00
H346   H     0.63378   0.31516   0.27120   0.00000  Uiso   1.00
H347   H     0.62149   0.38893   0.14075   0.00000  Uiso   1.00
H348   H     0.71649   0.30391   0.37174   0.00000  Uiso   1.00
H349   H     0.56929   0.24577   0.27625   0.00000  Uiso   1.00
H350   H     0.59856   0.48152   0.03538   0.00000  Uiso   1.00
H351   H     0.79886   0.30224   0.52245   0.00000  Uiso   1.00
H352   H     0.48847   0.17963   0.32110   0.00000  Uiso   1.00
H353   H     0.56193   0.39827   0.57361   0.00000  Uiso   1.00
H354   H     0.54569   0.47661   0.45975   0.00000  Uiso   1.00
H355   H     0.64070   0.39159   0.69074   0.00000  Uiso   1.00
H356   H     0.49350   0.33345   0.59525   0.00000  Uiso   1.00
H357   H     0.53704   0.55268   0.29429   0.00000  Uiso   1.00
H358   H     0.73735   0.37340   0.78137   0.00000  Uiso   1.00
H359   H     0.42696   0.25079   0.58001   0.00000  Uiso   1.00
O360   O     0.55843   0.56714   0.08449   0.00000  Uiso   1.00
O361   O     0.82122   0.33193   0.72352   0.00000  Uiso   1.00
O362   O     0.41400   0.17106   0.45933   0.00000  Uiso   1.00
N363   N     0.58630   0.48751   0.11194   0.00000  Uiso   1.00
N364   N     0.77358   0.31990   0.56731   0.00000  Uiso   1.00
N365   N     0.48340   0.20527   0.37908   0.00000  Uiso   1.00
N366   N     0.55320   0.52580   0.25125   0.00000  Uiso   1.00
N367   N     0.74048   0.35820   0.70663   0.00000  Uiso   1.00
N368   N     0.45029   0.24356   0.51840   0.00000  Uiso   1.00
C369   C     0.83420   0.88269   0.15952   0.00000  Uiso   1.00
C370   C     0.88581   0.89933   0.18847   0.00000  Uiso   1.00
C371   C     0.90787   0.89488   0.29040   0.00000  Uiso   1.00
C372   C     0.95532   0.91234   0.30022   0.00000  Uiso   1.00
C373   C     0.03174   0.93495   0.35868   0.00000  Uiso   1.00
C374   C     0.83962   0.84771   0.06296   0.00000  Uiso   1.00
C375   C     0.82284   0.79986   0.05938   0.00000  Uiso   1.00
C376   C     0.83141   0.77387   0.96354   0.00000  Uiso   1.00
C377   C     0.83609   0.71635   0.82713   0.00000  Uiso   1.00
C378   C     0.80803   0.92769   0.11486   0.00000  Uiso   1.00
C379   C     0.76469   0.94708   0.15488   0.00000  Uiso   1.00
C380   C     0.74665   0.98842   0.10271   0.00000  Uiso   1.00
C381   C     0.70229   0.05507   0.04687   0.00000  Uiso   1.00
C382   C     0.87923   0.92161   0.99568   0.00000  Uiso   1.00
C383   C     0.91026   0.92047   0.09947   0.00000  Uiso   1.00
C384   C     0.95769   0.93795   0.10913   0.00000  Uiso   1.00
C385   C     0.97982   0.93352   0.21107   0.00000  Uiso   1.00
C386   C     0.86408   0.86885   0.97397   0.00000  Uiso   1.00
C387   C     0.87267   0.84293   0.87811   0.00000  Uiso   1.00
C388   C     0.85591   0.79505   0.87438   0.00000  Uiso   1.00
C389   C     0.83249   0.94883   0.02587   0.00000  Uiso   1.00
C390   C     0.81451   0.99015   0.97361   0.00000  Uiso   1.00
C391   C     0.77115   0.00960   0.01356   0.00000  Uiso   1.00
H392   H     0.81516   0.86622   0.22880   0.00000  Uiso   1.00
H393   H     0.88893   0.87851   0.35925   0.00000  Uiso   1.00
H394   H     0.80391   0.78351   0.12826   0.00000  Uiso   1.00
H395   H     0.74577   0.93071   0.22375   0.00000  Uiso   1.00
H396   H     0.98152   0.90144   0.46462   0.00000  Uiso   1.00
H397   H     0.80224   0.70114   0.97755   0.00000  Uiso   1.00
H398   H     0.67963   0.01153   0.17890   0.00000  Uiso   1.00
H399   H     0.89827   0.93807   0.92639   0.00000  Uiso   1.00
H400   H     0.97661   0.95431   0.04025   0.00000  Uiso   1.00
H401   H     0.89159   0.85930   0.80926   0.00000  Uiso   1.00
H402   H     0.83345   0.00650   0.90475   0.00000  Uiso   1.00
H403   H     0.05268   0.96296   0.20571   0.00000  Uiso   1.00
H404   H     0.87340   0.76265   0.71863   0.00000  Uiso   1.00
H405   H     0.75079   0.07304   0.91999   0.00000  Uiso   1.00
O406   O     0.06714   0.94157   0.41551   0.00000  Uiso   1.00
O407   O     0.83193   0.67878   0.77648   0.00000  Uiso   1.00
O408   O     0.67106   0.08600   0.04067   0.00000  Uiso   1.00
N409   N     0.98751   0.91370   0.38806   0.00000  Uiso   1.00
N410   N     0.81990   0.72642   0.93269   0.00000  Uiso   1.00
N411   N     0.70527   0.01660   0.12092   0.00000  Uiso   1.00
N412   N     0.02580   0.94680   0.24875   0.00000  Uiso   1.00
N413   N     0.85820   0.75952   0.79337   0.00000  Uiso   1.00
N414   N     0.74356   0.04971   0.98160   0.00000  Uiso   1.00
C415   C     0.33420   0.38269   0.65952   0.00000  Uiso   1.00
C416   C     0.38581   0.39933   0.68847   0.00000  Uiso   1.00
C417   C     0.40787   0.39488   0.79040   0.00000  Uiso   1.00
C418   C     0.45532   0.41234   0.80022   0.00000  Uiso   1.00
C419   C     0.53174   0.43495   0.85868   0.00000  Uiso   1.00
C420   C     0.33962   0.34771   0.56296   0.00000  Uiso   1.00
C421   C     0.32284   0.29986   0.55938   0.00000  Uiso   1.00
C422   C     0.33141   0.27387   0.46354   0.00000  Uiso   1.00
C423   C     0.33609   0.21635   0.32713   0.00000  Uiso   1.00
C424   C     0.30803   0.42769   0.61486   0.00000  Uiso   1.00
C425   C     0.26469   0.44708   0.65488   0.00000  Uiso   1.00
C426   C     0.24665   0.48842   0.60271   0.00000  Uiso   1.00
C427   C     0.20229   0.55507   0.54687   0.00000  Uiso   1.00
C428   C     0.37923   0.42161   0.49568   0.00000  Uiso   1.00
C429   C     0.41026   0.42047   0.59947   0.00000  Uiso   1.00
C430   C     0.45769   0.43795   0.60913   0.00000  Uiso   1.00
C431   C     0.47982   0.43352   0.71107   0.00000  Uiso   1.00
C432   C     0.36408   0.36885   0.47397   0.00000  Uiso   1.00
C433   C     0.37267   0.34293   0.37811   0.00000  Uiso   1.00
C434   C     0.35591   0.29505   0.37438   0.00000  Uiso   1.00
C435   C     0.33249   0.44883   0.52587   0.00000  Uiso   1.00
C436   C     0.31451   0.49015   0.47361   0.00000  Uiso   1.00
C437   C     0.27115   0.50960   0.51356   0.00000  Uiso   1.00
H438   H     0.31516   0.36622   0.72880   0.00000  Uiso   1.00
H439   H     0.38893   0.37851   0.85925   0.00000  Uiso   1.00
H440   H     0.30391   0.28351   0.62826   0.00000  Uiso   1.00
H441   H     0.24577   0.43071   0.72375   0.00000  Uiso   1.00
H442   H     0.48152   0.40144   0.96462   0.00000  Uiso   1.00
H443   H     0.30224   0.20114   0.47755   0.00000  Uiso   1.00
H444   H     0.17963   0.51153   0.67890   0.00000  Uiso   1.00
H445   H     0.39827   0.43807   0.42639   0.00000  Uiso   1.00
H446   H     0.47661   0.45431   0.54025   0.00000  Uiso   1.00
H447   H     0.39159   0.35930   0.30926   0.00000  Uiso   1.00
H448   H     0.33345   0.50650   0.40475   0.00000  Uiso   1.00
H449   H     0.55268   0.46296   0.70571   0.00000  Uiso   1.00
H450   H     0.37340   0.26265   0.21863   0.00000  Uiso   1.00
H451   H     0.25079   0.57304   0.41999   0.00000  Uiso   1.00
O452   O     0.56714   0.44157   0.91551   0.00000  Uiso   1.00
O453   O     0.33193   0.17878   0.27648   0.00000  Uiso   1.00
O454   O     0.17106   0.58600   0.54067   0.00000  Uiso   1.00
N455   N     0.48751   0.41370   0.88806   0.00000  Uiso   1.00
N456   N     0.31990   0.22642   0.43269   0.00000  Uiso   1.00
N457   N     0.20527   0.51660   0.62092   0.00000  Uiso   1.00
N458   N     0.52580   0.44680   0.74875   0.00000  Uiso   1.00
N459   N     0.35820   0.25952   0.29337   0.00000  Uiso   1.00
N460   N     0.24356   0.54971   0.48160   0.00000  Uiso   1.00
C461   C     0.66580   0.61731   0.65952   0.00000  Uiso   1.00
C462   C     0.61419   0.60067   0.68847   0.00000  Uiso   1.00
C463   C     0.59213   0.60512   0.79040   0.00000  Uiso   1.00
C464   C     0.54468   0.58766   0.80022   0.00000  Uiso   1.00
C465   C     0.46826   0.56505   0.85868   0.00000  Uiso   1.00
C466   C     0.66038   0.65229   0.56296   0.00000  Uiso   1.00
C467   C     0.67716   0.70014   0.55938   0.00000  Uiso   1.00
C468   C     0.66859   0.72613   0.46354   0.00000  Uiso   1.00
C469   C     0.66391   0.78365   0.32713   0.00000  Uiso   1.00
C470   C     0.69197   0.57231   0.61486   0.00000  Uiso   1.00
C471   C     0.73531   0.55292   0.65488   0.00000  Uiso   1.00
C472   C     0.75335   0.51158   0.60271   0.00000  Uiso   1.00
C473   C     0.79771   0.44493   0.54687   0.00000  Uiso   1.00
C474   C     0.62077   0.57839   0.49568   0.00000  Uiso   1.00
C475   C     0.58974   0.57953   0.59947   0.00000  Uiso   1.00
C476   C     0.54231   0.56205   0.60913   0.00000  Uiso   1.00
C477   C     0.52018   0.56648   0.71107   0.00000  Uiso   1.00
C478   C     0.63592   0.63115   0.47397   0.00000  Uiso   1.00
C479   C     0.62733   0.65707   0.37811   0.00000  Uiso   1.00
C480   C     0.64409   0.70495   0.37438   0.00000  Uiso   1.00
C481   C     0.66751   0.55117   0.52587   0.00000  Uiso   1.00
C482   C     0.68549   0.50985   0.47361   0.00000  Uiso   1.00
C483   C     0.72885   0.49040   0.51356   0.00000  Uiso   1.00
H484   H     0.68484   0.63378   0.72880   0.00000  Uiso   1.00
H485   H     0.61107   0.62149   0.85925   0.00000  Uiso   1.00
H486   H     0.69609   0.71649   0.62826   0.00000  Uiso   1.00
H487   H     0.75423   0.56929   0.72375   0.00000  Uiso   1.00
H488   H     0.51848   0.59856   0.96462   0.00000  Uiso   1.00
H489   H     0.69776   0.79886   0.47755   0.00000  Uiso   1.00
H490   H     0.82037   0.48847   0.67890   0.00000  Uiso   1.00
H491   H     0.60173   0.56193   0.42639   0.00000  Uiso   1.00
H492   H     0.52339   0.54569   0.54025   0.00000  Uiso   1.00
H493   H     0.60841   0.64070   0.30926   0.00000  Uiso   1.00
H494   H     0.66655   0.49350   0.40475   0.00000  Uiso   1.00
H495   H     0.44732   0.53704   0.70571   0.00000  Uiso   1.00
H496   H     0.62660   0.73735   0.21863   0.00000  Uiso   1.00
H497   H     0.74921   0.42696   0.41999   0.00000  Uiso   1.00
O498   O     0.43286   0.55843   0.91551   0.00000  Uiso   1.00
O499   O     0.66807   0.82122   0.27648   0.00000  Uiso   1.00
O500   O     0.82894   0.41400   0.54067   0.00000  Uiso   1.00
N501   N     0.51249   0.58630   0.88806   0.00000  Uiso   1.00
N502   N     0.68010   0.77358   0.43269   0.00000  Uiso   1.00
N503   N     0.79473   0.48340   0.62092   0.00000  Uiso   1.00
N504   N     0.47420   0.55320   0.74875   0.00000  Uiso   1.00
N505   N     0.64180   0.74048   0.29337   0.00000  Uiso   1.00
N506   N     0.75644   0.45029   0.48160   0.00000  Uiso   1.00
C507   C     0.16580   0.11731   0.15952   0.00000  Uiso   1.00
C508   C     0.11419   0.10067   0.18847   0.00000  Uiso   1.00
C509   C     0.09213   0.10512   0.29040   0.00000  Uiso   1.00
C510   C     0.04468   0.08766   0.30022   0.00000  Uiso   1.00
C511   C     0.96826   0.06505   0.35868   0.00000  Uiso   1.00
C512   C     0.16038   0.15229   0.06296   0.00000  Uiso   1.00
C513   C     0.17716   0.20014   0.05938   0.00000  Uiso   1.00
C514   C     0.16859   0.22613   0.96354   0.00000  Uiso   1.00
C515   C     0.16391   0.28365   0.82713   0.00000  Uiso   1.00
C516   C     0.19197   0.07231   0.11486   0.00000  Uiso   1.00
C517   C     0.23531   0.05292   0.15488   0.00000  Uiso   1.00
C518   C     0.25335   0.01158   0.10271   0.00000  Uiso   1.00
C519   C     0.29771   0.94493   0.04687   0.00000  Uiso   1.00
C520   C     0.12077   0.07839   0.99568   0.00000  Uiso   1.00
C521   C     0.08974   0.07953   0.09947   0.00000  Uiso   1.00
C522   C     0.04231   0.06205   0.10913   0.00000  Uiso   1.00
C523   C     0.02018   0.06648   0.21107   0.00000  Uiso   1.00
C524   C     0.13592   0.13115   0.97397   0.00000  Uiso   1.00
C525   C     0.12733   0.15707   0.87811   0.00000  Uiso   1.00
C526   C     0.14409   0.20495   0.87438   0.00000  Uiso   1.00
C527   C     0.16751   0.05117   0.02587   0.00000  Uiso   1.00
C528   C     0.18549   0.00985   0.97361   0.00000  Uiso   1.00
C529   C     0.22885   0.99040   0.01356   0.00000  Uiso   1.00
H530   H     0.18484   0.13378   0.22880   0.00000  Uiso   1.00
H531   H     0.11107   0.12149   0.35925   0.00000  Uiso   1.00
H532   H     0.19609   0.21649   0.12826   0.00000  Uiso   1.00
H533   H     0.25423   0.06929   0.22375   0.00000  Uiso   1.00
H534   H     0.01848   0.09856   0.46462   0.00000  Uiso   1.00
H535   H     0.19776   0.29886   0.97755   0.00000  Uiso   1.00
H536   H     0.32037   0.98847   0.17890   0.00000  Uiso   1.00
H537   H     0.10173   0.06193   0.92639   0.00000  Uiso   1.00
H538   H     0.02339   0.04569   0.04025   0.00000  Uiso   1.00
H539   H     0.10841   0.14070   0.80926   0.00000  Uiso   1.00
H540   H     0.16655   0.99350   0.90475   0.00000  Uiso   1.00
H541   H     0.94732   0.03704   0.20571   0.00000  Uiso   1.00
H542   H     0.12660   0.23735   0.71863   0.00000  Uiso   1.00
H543   H     0.24921   0.92696   0.91999   0.00000  Uiso   1.00
O544   O     0.93286   0.05843   0.41551   0.00000  Uiso   1.00
O545   O     0.16807   0.32122   0.77648   0.00000  Uiso   1.00
O546   O     0.32894   0.91400   0.04067   0.00000  Uiso   1.00
N547   N     0.01249   0.08630   0.38806   0.00000  Uiso   1.00
N548   N     0.18010   0.27358   0.93269   0.00000  Uiso   1.00
N549   N     0.29473   0.98340   0.12092   0.00000  Uiso   1.00
N550   N     0.97420   0.05320   0.24875   0.00000  Uiso   1.00
N551   N     0.14180   0.24048   0.79337   0.00000  Uiso   1.00
N552   N     0.25644   0.95029   0.98160   0.00000  Uiso   1.00
C553   C     0.61731   0.83420   0.90952   0.00000  Uiso   1.00
C554   C     0.60067   0.88581   0.93847   0.00000  Uiso   1.00
C555   C     0.60512   0.90787   0.04040   0.00000  Uiso   1.00
C556   C     0.58766   0.95532   0.05022   0.00000  Uiso   1.00
C557   C     0.56505   0.03174   0.10868   0.00000  Uiso   1.00
C558   C     0.65229   0.83962   0.81296   0.00000  Uiso   1.00
C559   C     0.70014   0.82284   0.80938   0.00000  Uiso   1.00
C560   C     0.72613   0.83141   0.71354   0.00000  Uiso   1.00
C561   C     0.78365   0.83609   0.57713   0.00000  Uiso   1.00
C562   C     0.57231   0.80803   0.86486   0.00000  Uiso   1.00
C563   C     0.55292   0.76469   0.90488   0.00000  Uiso   1.00
C564   C     0.51158   0.74665   0.85271   0.00000  Uiso   1.00
C565   C     0.44493   0.70229   0.79687   0.00000  Uiso   1.00
C566   C     0.57839   0.87923   0.74568   0.00000  Uiso   1.00
C567   C     0.57953   0.91026   0.84947   0.00000  Uiso   1.00
C568   C     0.56205   0.95769   0.85913   0.00000  Uiso   1.00
C569   C     0.56648   0.97982   0.96107   0.00000  Uiso   1.00
C570   C     0.63115   0.86408   0.72397   0.00000  Uiso   1.00
C571   C     0.65707   0.87267   0.62811   0.00000  Uiso   1.00
C572   C     0.70495   0.85591   0.62438   0.00000  Uiso   1.00
C573   C     0.55117   0.83249   0.77587   0.00000  Uiso   1.00
C574   C     0.50985   0.81451   0.72361   0.00000  Uiso   1.00
C575   C     0.49040   0.77115   0.76356   0.00000  Uiso   1.00
H576   H     0.63378   0.81516   0.97880   0.00000  Uiso   1.00
H577   H     0.62149   0.88893   0.10925   0.00000  Uiso   1.00
H578   H     0.71649   0.80391   0.87826   0.00000  Uiso   1.00
H579   H     0.56929   0.74577   0.97375   0.00000  Uiso   1.00
H580   H     0.59856   0.98152   0.21462   0.00000  Uiso   1.00
H581   H     0.79886   0.80224   0.72755   0.00000  Uiso   1.00
H582   H     0.48847   0.67963   0.92890   0.00000  Uiso   1.00
H583   H     0.56193   0.89827   0.67639   0.00000  Uiso   1.00
H584   H     0.54569   0.97661   0.79025   0.00000  Uiso   1.00
H585   H     0.64070   0.89159   0.55926   0.00000  Uiso   1.00
H586   H     0.49350   0.83345   0.65475   0.00000  Uiso   1.00
H587   H     0.53704   0.05268   0.95571   0.00000  Uiso   1.00
H588   H     0.73735   0.87340   0.46863   0.00000  Uiso   1.00
H589   H     0.42696   0.75079   0.66999   0.00000  Uiso   1.00
O590   O     0.55843   0.06714   0.16551   0.00000  Uiso   1.00
O591   O     0.82122   0.83193   0.52648   0.00000  Uiso   1.00
O592   O     0.41400   0.67106   0.79067   0.00000  Uiso   1.00
N593   N     0.58630   0.98751   0.13806   0.00000  Uiso   1.00
N594   N     0.77358   0.81990   0.68269   0.00000  Uiso   1.00
N595   N     0.48340   0.70527   0.87092   0.00000  Uiso   1.00
N596   N     0.55320   0.02580   0.99875   0.00000  Uiso   1.00
N597   N     0.74048   0.85820   0.54337   0.00000  Uiso   1.00
N598   N     0.45029   0.74356   0.73160   0.00000  Uiso   1.00
C599   C     0.11731   0.33420   0.40952   0.00000  Uiso   1.00
C600   C     0.10067   0.38581   0.43847   0.00000  Uiso   1.00
C601   C     0.10512   0.40787   0.54040   0.00000  Uiso   1.00
C602   C     0.08766   0.45532   0.55022   0.00000  Uiso   1.00
C603   C     0.06505   0.53174   0.60868   0.00000  Uiso   1.00
C604   C     0.15229   0.33962   0.31296   0.00000  Uiso   1.00
C605   C     0.20014   0.32284   0.30938   0.00000  Uiso   1.00
C606   C     0.22613   0.33141   0.21354   0.00000  Uiso   1.00
C607   C     0.28365   0.33609   0.07713   0.00000  Uiso   1.00
C608   C     0.07231   0.30803   0.36486   0.00000  Uiso   1.00
C609   C     0.05292   0.26469   0.40488   0.00000  Uiso   1.00
C610   C     0.01158   0.24665   0.35271   0.00000  Uiso   1.00
C611   C     0.94493   0.20229   0.29687   0.00000  Uiso   1.00
C612   C     0.07839   0.37923   0.24568   0.00000  Uiso   1.00
C613   C     0.07953   0.41026   0.34947   0.00000  Uiso   1.00
C614   C     0.06205   0.45769   0.35913   0.00000  Uiso   1.00
C615   C     0.06648   0.47982   0.46107   0.00000  Uiso   1.00
C616   C     0.13115   0.36408   0.22397   0.00000  Uiso   1.00
C617   C     0.15707   0.37267   0.12811   0.00000  Uiso   1.00
C618   C     0.20495   0.35591   0.12438   0.00000  Uiso   1.00
C619   C     0.05117   0.33249   0.27587   0.00000  Uiso   1.00
C620   C     0.00985   0.31451   0.22361   0.00000  Uiso   1.00
C621   C     0.99040   0.27115   0.26356   0.00000  Uiso   1.00
H622   H     0.13378   0.31516   0.47880   0.00000  Uiso   1.00
H623   H     0.12149   0.38893   0.60925   0.00000  Uiso   1.00
H624   H     0.21649   0.30391   0.37826   0.00000  Uiso   1.00
H625   H     0.06929   0.24577   0.47375   0.00000  Uiso   1.00
H626   H     0.09856   0.48152   0.71462   0.00000  Uiso   1.00
H627   H     0.29886   0.30224   0.22755   0.00000  Uiso   1.00
H628   H     0.98847   0.17963   0.42890   0.00000  Uiso   1.00
H629   H     0.06193   0.39827   0.17639   0.00000  Uiso   1.00
H630   H     0.04569   0.47661   0.29025   0.00000  Uiso   1.00
H631   H     0.14070   0.39159   0.05926   0.00000  Uiso   1.00
H632   H     0.99350   0.33345   0.15475   0.00000  Uiso   1.00
H633   H     0.03704   0.55268   0.45571   0.00000  Uiso   1.00
H634   H     0.23735   0.37340   0.96863   0.00000  Uiso   1.00
H635   H     0.92696   0.25079   0.16999   0.00000  Uiso   1.00
O636   O     0.05843   0.56714   0.66551   0.00000  Uiso   1.00
O637   O     0.32122   0.33193   0.02648   0.00000  Uiso   1.00
O638   O     0.91400   0.17106   0.29067   0.00000  Uiso   1.00
N639   N     0.08630   0.48751   0.63806   0.00000  Uiso   1.00
N640   N     0.27358   0.31990   0.18269   0.00000  Uiso   1.00
N641   N     0.98340   0.20527   0.37092   0.00000  Uiso   1.00
N642   N     0.05320   0.52580   0.49875   0.00000  Uiso   1.00
N643   N     0.24048   0.35820   0.04337   0.00000  Uiso   1.00
N644   N     0.95029   0.24356   0.23160   0.00000  Uiso   1.00
C645   C     0.88269   0.66580   0.40952   0.00000  Uiso   1.00
C646   C     0.89933   0.61419   0.43847   0.00000  Uiso   1.00
C647   C     0.89488   0.59213   0.54040   0.00000  Uiso   1.00
C648   C     0.91234   0.54468   0.55022   0.00000  Uiso   1.00
C649   C     0.93495   0.46826   0.60868   0.00000  Uiso   1.00
C650   C     0.84771   0.66038   0.31296   0.00000  Uiso   1.00
C651   C     0.79986   0.67716   0.30938   0.00000  Uiso   1.00
C652   C     0.77387   0.66859   0.21354   0.00000  Uiso   1.00
C653   C     0.71635   0.66391   0.07713   0.00000  Uiso   1.00
C654   C     0.92769   0.69197   0.36486   0.00000  Uiso   1.00
C655   C     0.94708   0.73531   0.40488   0.00000  Uiso   1.00
C656   C     0.98842   0.75335   0.35271   0.00000  Uiso   1.00
C657   C     0.05507   0.79771   0.29687   0.00000  Uiso   1.00
C658   C     0.92161   0.62077   0.24568   0.00000  Uiso   1.00
C659   C     0.92047   0.58974   0.34947   0.00000  Uiso   1.00
C660   C     0.93795   0.54231   0.35913   0.00000  Uiso   1.00
C661   C     0.93352   0.52018   0.46107   0.00000  Uiso   1.00
C662   C     0.86885   0.63592   0.22397   0.00000  Uiso   1.00
C663   C     0.84293   0.62733   0.12811   0.00000  Uiso   1.00
C664   C     0.79505   0.64409   0.12438   0.00000  Uiso   1.00
C665   C     0.94883   0.66751   0.27587   0.00000  Uiso   1.00
C666   C     0.99015   0.68549   0.22361   0.00000  Uiso   1.00
C667   C     0.00960   0.72885   0.26356   0.00000  Uiso   1.00
H668   H     0.86622   0.68484   0.47880   0.00000  Uiso   1.00
H669   H     0.87851   0.61107   0.60925   0.00000  Uiso   1.00
H670   H     0.78351   0.69609   0.37826   0.00000  Uiso   1.00
H671   H     0.93071   0.75423   0.47375   0.00000  Uiso   1.00
H672   H     0.90144   0.51848   0.71462   0.00000  Uiso   1.00
H673   H     0.70114   0.69776   0.22755   0.00000  Uiso   1.00
H674   H     0.01153   0.82037   0.42890   0.00000  Uiso   1.00
H675   H     0.93807   0.60173   0.17639   0.00000  Uiso   1.00
H676   H     0.95431   0.52339   0.29025   0.00000  Uiso   1.00
H677   H     0.85930   0.60841   0.05926   0.00000  Uiso   1.00
H678   H     0.00650   0.66655   0.15475   0.00000  Uiso   1.00
H679   H     0.96296   0.44732   0.45571   0.00000  Uiso   1.00
H680   H     0.76265   0.62660   0.96863   0.00000  Uiso   1.00
H681   H     0.07304   0.74921   0.16999   0.00000  Uiso   1.00
O682   O     0.94157   0.43286   0.66551   0.00000  Uiso   1.00
O683   O     0.67878   0.66807   0.02648   0.00000  Uiso   1.00
O684   O     0.08600   0.82894   0.29067   0.00000  Uiso   1.00
N685   N     0.91370   0.51249   0.63806   0.00000  Uiso   1.00
N686   N     0.72642   0.68010   0.18269   0.00000  Uiso   1.00
N687   N     0.01660   0.79473   0.37092   0.00000  Uiso   1.00
N688   N     0.94680   0.47420   0.49875   0.00000  Uiso   1.00
N689   N     0.75952   0.64180   0.04337   0.00000  Uiso   1.00
N690   N     0.04971   0.75644   0.23160   0.00000  Uiso   1.00
C691   C     0.38269   0.16580   0.90952   0.00000  Uiso   1.00
C692   C     0.39933   0.11419   0.93847   0.00000  Uiso   1.00
C693   C     0.39488   0.09213   0.04040   0.00000  Uiso   1.00
C694   C     0.41234   0.04468   0.05022   0.00000  Uiso   1.00
C695   C     0.43495   0.96826   0.10868   0.00000  Uiso   1.00
C696   C     0.34771   0.16038   0.81296   0.00000  Uiso   1.00
C697   C     0.29986   0.17716   0.80938   0.00000  Uiso   1.00
C698   C     0.27387   0.16859   0.71354   0.00000  Uiso   1.00
C699   C     0.21635   0.16391   0.57713   0.00000  Uiso   1.00
C700   C     0.42769   0.19197   0.86486   0.00000  Uiso   1.00
C701   C     0.44708   0.23531   0.90488   0.00000  Uiso   1.00
C702   C     0.48842   0.25335   0.85271   0.00000  Uiso   1.00
C703   C     0.55507   0.29771   0.79687   0.00000  Uiso   1.00
C704   C     0.42161   0.12077   0.74568   0.00000  Uiso   1.00
C705   C     0.42047   0.08974   0.84947   0.00000  Uiso   1.00
C706   C     0.43795   0.04231   0.85913   0.00000  Uiso   1.00
C707   C     0.43352   0.02018   0.96107   0.00000  Uiso   1.00
C708   C     0.36885   0.13592   0.72397   0.00000  Uiso   1.00
C709   C     0.34293   0.12733   0.62811   0.00000  Uiso   1.00
C710   C     0.29505   0.14409   0.62438   0.00000  Uiso   1.00
C711   C     0.44883   0.16751   0.77587   0.00000  Uiso   1.00
C712   C     0.49015   0.18549   0.72361   0.00000  Uiso   1.00
C713   C     0.50960   0.22885   0.76356   0.00000  Uiso   1.00
H714   H     0.36622   0.18484   0.97880   0.00000  Uiso   1.00
H715   H     0.37851   0.11107   0.10925   0.00000  Uiso   1.00
H716   H     0.28351   0.19609   0.87826   0.00000  Uiso   1.00
H717   H     0.43071   0.25423   0.97375   0.00000  Uiso   1.00
H718   H     0.40144   0.01848   0.21462   0.00000  Uiso   1.00
H719   H     0.20114   0.19776   0.72755   0.00000  Uiso   1.00
H720   H     0.51153   0.32037   0.92890   0.00000  Uiso   1.00
H721   H     0.43807   0.10173   0.67639   0.00000  Uiso   1.00
H722   H     0.45431   0.02339   0.79025   0.00000  Uiso   1.00
H723   H     0.35930   0.10841   0.55926   0.00000  Uiso   1.00
H724   H     0.50650   0.16655   0.65475   0.00000  Uiso   1.00
H725   H     0.46296   0.94732   0.95571   0.00000  Uiso   1.00
H726   H     0.26265   0.12660   0.46863   0.00000  Uiso   1.00
H727   H     0.57304   0.24921   0.66999   0.00000  Uiso   1.00
O728   O     0.44157   0.93286   0.16551   0.00000  Uiso   1.00
O729   O     0.17878   0.16807   0.52648   0.00000  Uiso   1.00
O730   O     0.58600   0.32894   0.79067   0.00000  Uiso   1.00
N731   N     0.41370   0.01249   0.13806   0.00000  Uiso   1.00
N732   N     0.22642   0.18010   0.68269   0.00000  Uiso   1.00
N733   N     0.51660   0.29473   0.87092   0.00000  Uiso   1.00
N734   N     0.44680   0.97420   0.99875   0.00000  Uiso   1.00
N735   N     0.25952   0.14180   0.54337   0.00000  Uiso   1.00
N736   N     0.54971   0.25644   0.73160   0.00000  Uiso   1.00
