data_job_01472
_audit_creation_date              2018-12-19
_audit_creation_method            'Materials Studio'
_symmetry_space_group_name_H-M    'P1'
_symmetry_Int_Tables_number       1
_symmetry_cell_setting            triclinic
loop_
_symmetry_equiv_pos_as_xyz
  x,y,z
_cell_length_a                    41.7802
_cell_length_b                    35.7929
_cell_length_c                    7.0544
_cell_angle_alpha                 90.0000
_cell_angle_beta                  90.0000
_cell_angle_gamma                 90.0000
loop_
_atom_site_label
_atom_site_type_symbol
_atom_site_fract_x
_atom_site_fract_y
_atom_site_fract_z
_atom_site_U_iso_or_equiv
_atom_site_adp_type
_atom_site_occupancy
C1     C     0.35862   0.53377   0.32197   0.00000  Uiso   1.00
C2     C     0.37516   0.49706   0.37140   0.00000  Uiso   1.00
C3     C     0.38272   0.46878   0.24449   0.00000  Uiso   1.00
C4     C     0.39783   0.43739   0.31770   0.00000  Uiso   1.00
C5     C     0.42240   0.38084   0.36508   0.00000  Uiso   1.00
C6     C     0.32898   0.53580   0.44773   0.00000  Uiso   1.00
C7     C     0.29772   0.54010   0.38497   0.00000  Uiso   1.00
C8     C     0.27395   0.54133   0.52244   0.00000  Uiso   1.00
C9     C     0.22683   0.54496   0.68832   0.00000  Uiso   1.00
C10    C     0.38089   0.56469   0.39054   0.00000  Uiso   1.00
C11    C     0.39326   0.59329   0.27973   0.00000  Uiso   1.00
C12    C     0.41319   0.61885   0.36906   0.00000  Uiso   1.00
C13    C     0.44666   0.66734   0.44615   0.00000  Uiso   1.00
C14    C     0.37202   0.52831   0.67767   0.00000  Uiso   1.00
C15    C     0.38244   0.49410   0.56461   0.00000  Uiso   1.00
C16    C     0.39755   0.46274   0.63803   0.00000  Uiso   1.00
C17    C     0.40513   0.43442   0.51124   0.00000  Uiso   1.00
C18    C     0.33626   0.53284   0.64092   0.00000  Uiso   1.00
C19    C     0.31254   0.53407   0.77851   0.00000  Uiso   1.00
C20    C     0.28124   0.53836   0.71599   0.00000  Uiso   1.00
C21    C     0.38817   0.56173   0.58374   0.00000  Uiso   1.00
C22    C     0.40808   0.58726   0.67327   0.00000  Uiso   1.00
C23    C     0.42048   0.61589   0.56261   0.00000  Uiso   1.00
H24    H     0.35295   0.53607   0.17156   0.00000  Uiso   1.00
H25    H     0.37708   0.47108   0.09499   0.00000  Uiso   1.00
H26    H     0.29209   0.54240   0.23546   0.00000  Uiso   1.00
H27    H     0.38762   0.59558   0.13022   0.00000  Uiso   1.00
H28    H     0.40704   0.39772   0.09531   0.00000  Uiso   1.00
H29    H     0.22783   0.54810   0.39149   0.00000  Uiso   1.00
H30    H     0.42927   0.66024   0.16959   0.00000  Uiso   1.00
H31    H     0.37768   0.52600   0.82809   0.00000  Uiso   1.00
H32    H     0.40317   0.46046   0.78755   0.00000  Uiso   1.00
H33    H     0.31818   0.53178   0.92801   0.00000  Uiso   1.00
H34    H     0.41371   0.58495   0.82278   0.00000  Uiso   1.00
H35    H     0.42821   0.38909   0.65741   0.00000  Uiso   1.00
H36    H     0.24900   0.53948   0.95360   0.00000  Uiso   1.00
H37    H     0.45045   0.65162   0.73170   0.00000  Uiso   1.00
O38    O     0.43394   0.35046   0.33785   0.00000  Uiso   1.00
O39    O     0.19882   0.54777   0.72643   0.00000  Uiso   1.00
O40    O     0.46311   0.69489   0.43530   0.00000  Uiso   1.00
N41    N     0.40853   0.40468   0.23316   0.00000  Uiso   1.00
N42    N     0.24098   0.54528   0.51007   0.00000  Uiso   1.00
N43    N     0.42930   0.65013   0.30262   0.00000  Uiso   1.00
N44    N     0.41992   0.40005   0.53562   0.00000  Uiso   1.00
N45    N     0.25237   0.54064   0.81253   0.00000  Uiso   1.00
N46    N     0.44070   0.64549   0.60508   0.00000  Uiso   1.00
C47    C     0.35862   0.03377   0.82197   0.00000  Uiso   1.00
C48    C     0.37516   0.99706   0.87140   0.00000  Uiso   1.00
C49    C     0.38272   0.96878   0.74449   0.00000  Uiso   1.00
C50    C     0.39783   0.93739   0.81770   0.00000  Uiso   1.00
C51    C     0.42240   0.88084   0.86508   0.00000  Uiso   1.00
C52    C     0.32898   0.03580   0.94773   0.00000  Uiso   1.00
C53    C     0.29772   0.04010   0.88497   0.00000  Uiso   1.00
C54    C     0.27395   0.04133   0.02244   0.00000  Uiso   1.00
C55    C     0.22683   0.04496   0.18832   0.00000  Uiso   1.00
C56    C     0.38089   0.06469   0.89054   0.00000  Uiso   1.00
C57    C     0.39326   0.09329   0.77973   0.00000  Uiso   1.00
C58    C     0.41319   0.11885   0.86906   0.00000  Uiso   1.00
C59    C     0.44666   0.16734   0.94615   0.00000  Uiso   1.00
C60    C     0.37202   0.02831   0.17767   0.00000  Uiso   1.00
C61    C     0.38244   0.99410   0.06461   0.00000  Uiso   1.00
C62    C     0.39755   0.96274   0.13803   0.00000  Uiso   1.00
C63    C     0.40513   0.93442   0.01124   0.00000  Uiso   1.00
C64    C     0.33626   0.03284   0.14092   0.00000  Uiso   1.00
C65    C     0.31254   0.03407   0.27851   0.00000  Uiso   1.00
C66    C     0.28124   0.03836   0.21599   0.00000  Uiso   1.00
C67    C     0.38817   0.06173   0.08374   0.00000  Uiso   1.00
C68    C     0.40808   0.08726   0.17327   0.00000  Uiso   1.00
C69    C     0.42048   0.11589   0.06261   0.00000  Uiso   1.00
H70    H     0.35295   0.03607   0.67156   0.00000  Uiso   1.00
H71    H     0.37708   0.97108   0.59499   0.00000  Uiso   1.00
H72    H     0.29209   0.04240   0.73546   0.00000  Uiso   1.00
H73    H     0.38762   0.09558   0.63022   0.00000  Uiso   1.00
H74    H     0.40704   0.89772   0.59531   0.00000  Uiso   1.00
H75    H     0.22783   0.04810   0.89149   0.00000  Uiso   1.00
H76    H     0.42927   0.16024   0.66959   0.00000  Uiso   1.00
H77    H     0.37768   0.02600   0.32809   0.00000  Uiso   1.00
H78    H     0.40317   0.96046   0.28755   0.00000  Uiso   1.00
H79    H     0.31818   0.03178   0.42801   0.00000  Uiso   1.00
H80    H     0.41371   0.08495   0.32278   0.00000  Uiso   1.00
H81    H     0.42821   0.88909   0.15741   0.00000  Uiso   1.00
H82    H     0.24900   0.03948   0.45360   0.00000  Uiso   1.00
H83    H     0.45045   0.15162   0.23170   0.00000  Uiso   1.00
O84    O     0.43394   0.85046   0.83785   0.00000  Uiso   1.00
O85    O     0.19882   0.04777   0.22643   0.00000  Uiso   1.00
O86    O     0.46311   0.19489   0.93530   0.00000  Uiso   1.00
N87    N     0.40853   0.90468   0.73316   0.00000  Uiso   1.00
N88    N     0.24098   0.04528   0.01007   0.00000  Uiso   1.00
N89    N     0.42930   0.15013   0.80262   0.00000  Uiso   1.00
N90    N     0.41992   0.90005   0.03562   0.00000  Uiso   1.00
N91    N     0.25237   0.04064   0.31253   0.00000  Uiso   1.00
N92    N     0.44070   0.14549   0.10508   0.00000  Uiso   1.00
C93    C     0.85862   0.53377   0.82197   0.00000  Uiso   1.00
C94    C     0.87516   0.49706   0.87140   0.00000  Uiso   1.00
C95    C     0.88272   0.46878   0.74449   0.00000  Uiso   1.00
C96    C     0.89783   0.43739   0.81770   0.00000  Uiso   1.00
C97    C     0.92240   0.38084   0.86508   0.00000  Uiso   1.00
C98    C     0.82898   0.53580   0.94773   0.00000  Uiso   1.00
C99    C     0.79772   0.54010   0.88497   0.00000  Uiso   1.00
C100   C     0.77395   0.54133   0.02244   0.00000  Uiso   1.00
C101   C     0.72683   0.54496   0.18832   0.00000  Uiso   1.00
C102   C     0.88089   0.56469   0.89054   0.00000  Uiso   1.00
C103   C     0.89326   0.59329   0.77973   0.00000  Uiso   1.00
C104   C     0.91319   0.61885   0.86906   0.00000  Uiso   1.00
C105   C     0.94666   0.66734   0.94615   0.00000  Uiso   1.00
C106   C     0.87202   0.52831   0.17767   0.00000  Uiso   1.00
C107   C     0.88244   0.49410   0.06461   0.00000  Uiso   1.00
C108   C     0.89755   0.46274   0.13803   0.00000  Uiso   1.00
C109   C     0.90513   0.43442   0.01124   0.00000  Uiso   1.00
C110   C     0.83626   0.53284   0.14092   0.00000  Uiso   1.00
C111   C     0.81254   0.53407   0.27851   0.00000  Uiso   1.00
C112   C     0.78124   0.53836   0.21599   0.00000  Uiso   1.00
C113   C     0.88817   0.56173   0.08374   0.00000  Uiso   1.00
C114   C     0.90808   0.58726   0.17327   0.00000  Uiso   1.00
C115   C     0.92048   0.61589   0.06261   0.00000  Uiso   1.00
H116   H     0.85295   0.53607   0.67156   0.00000  Uiso   1.00
H117   H     0.87708   0.47108   0.59499   0.00000  Uiso   1.00
H118   H     0.79209   0.54240   0.73546   0.00000  Uiso   1.00
H119   H     0.88762   0.59558   0.63022   0.00000  Uiso   1.00
H120   H     0.90704   0.39772   0.59531   0.00000  Uiso   1.00
H121   H     0.72783   0.54810   0.89149   0.00000  Uiso   1.00
H122   H     0.92927   0.66024   0.66959   0.00000  Uiso   1.00
H123   H     0.87768   0.52600   0.32809   0.00000  Uiso   1.00
H124   H     0.90317   0.46046   0.28755   0.00000  Uiso   1.00
H125   H     0.81818   0.53178   0.42801   0.00000  Uiso   1.00
H126   H     0.91371   0.58495   0.32278   0.00000  Uiso   1.00
H127   H     0.92821   0.38909   0.15741   0.00000  Uiso   1.00
H128   H     0.74900   0.53948   0.45360   0.00000  Uiso   1.00
H129   H     0.95045   0.65162   0.23170   0.00000  Uiso   1.00
O130   O     0.93394   0.35046   0.83785   0.00000  Uiso   1.00
O131   O     0.69882   0.54777   0.22643   0.00000  Uiso   1.00
O132   O     0.96311   0.69489   0.93530   0.00000  Uiso   1.00
N133   N     0.90853   0.40468   0.73316   0.00000  Uiso   1.00
N134   N     0.74098   0.54528   0.01007   0.00000  Uiso   1.00
N135   N     0.92930   0.65013   0.80262   0.00000  Uiso   1.00
N136   N     0.91992   0.40005   0.03562   0.00000  Uiso   1.00
N137   N     0.75237   0.54064   0.31253   0.00000  Uiso   1.00
N138   N     0.94070   0.64549   0.10508   0.00000  Uiso   1.00
C139   C     0.85862   0.03377   0.32197   0.00000  Uiso   1.00
C140   C     0.87516   0.99706   0.37140   0.00000  Uiso   1.00
C141   C     0.88272   0.96878   0.24449   0.00000  Uiso   1.00
C142   C     0.89783   0.93739   0.31770   0.00000  Uiso   1.00
C143   C     0.92240   0.88084   0.36508   0.00000  Uiso   1.00
C144   C     0.82898   0.03580   0.44773   0.00000  Uiso   1.00
C145   C     0.79772   0.04010   0.38497   0.00000  Uiso   1.00
C146   C     0.77395   0.04133   0.52244   0.00000  Uiso   1.00
C147   C     0.72683   0.04496   0.68832   0.00000  Uiso   1.00
C148   C     0.88089   0.06469   0.39054   0.00000  Uiso   1.00
C149   C     0.89326   0.09329   0.27973   0.00000  Uiso   1.00
C150   C     0.91319   0.11885   0.36906   0.00000  Uiso   1.00
C151   C     0.94666   0.16734   0.44615   0.00000  Uiso   1.00
C152   C     0.87202   0.02831   0.67767   0.00000  Uiso   1.00
C153   C     0.88244   0.99410   0.56461   0.00000  Uiso   1.00
C154   C     0.89755   0.96274   0.63803   0.00000  Uiso   1.00
C155   C     0.90513   0.93442   0.51124   0.00000  Uiso   1.00
C156   C     0.83626   0.03284   0.64092   0.00000  Uiso   1.00
C157   C     0.81254   0.03407   0.77851   0.00000  Uiso   1.00
C158   C     0.78124   0.03836   0.71599   0.00000  Uiso   1.00
C159   C     0.88817   0.06173   0.58374   0.00000  Uiso   1.00
C160   C     0.90808   0.08726   0.67327   0.00000  Uiso   1.00
C161   C     0.92048   0.11589   0.56261   0.00000  Uiso   1.00
H162   H     0.85295   0.03607   0.17156   0.00000  Uiso   1.00
H163   H     0.87708   0.97108   0.09499   0.00000  Uiso   1.00
H164   H     0.79209   0.04240   0.23546   0.00000  Uiso   1.00
H165   H     0.88762   0.09558   0.13022   0.00000  Uiso   1.00
H166   H     0.90704   0.89772   0.09531   0.00000  Uiso   1.00
H167   H     0.72783   0.04810   0.39149   0.00000  Uiso   1.00
H168   H     0.92927   0.16024   0.16959   0.00000  Uiso   1.00
H169   H     0.87768   0.02600   0.82809   0.00000  Uiso   1.00
H170   H     0.90317   0.96046   0.78755   0.00000  Uiso   1.00
H171   H     0.81818   0.03178   0.92801   0.00000  Uiso   1.00
H172   H     0.91371   0.08495   0.82278   0.00000  Uiso   1.00
H173   H     0.92821   0.88909   0.65741   0.00000  Uiso   1.00
H174   H     0.74900   0.03948   0.95360   0.00000  Uiso   1.00
H175   H     0.95045   0.15162   0.73170   0.00000  Uiso   1.00
O176   O     0.93394   0.85046   0.33785   0.00000  Uiso   1.00
O177   O     0.69882   0.04777   0.72643   0.00000  Uiso   1.00
O178   O     0.96311   0.19489   0.43530   0.00000  Uiso   1.00
N179   N     0.90853   0.90468   0.23316   0.00000  Uiso   1.00
N180   N     0.74098   0.04528   0.51007   0.00000  Uiso   1.00
N181   N     0.92930   0.15013   0.30262   0.00000  Uiso   1.00
N182   N     0.91992   0.90005   0.53562   0.00000  Uiso   1.00
N183   N     0.75237   0.04064   0.81253   0.00000  Uiso   1.00
N184   N     0.94070   0.14549   0.60508   0.00000  Uiso   1.00
C185   C     0.64138   0.46623   0.32197   0.00000  Uiso   1.00
C186   C     0.62484   0.50294   0.37140   0.00000  Uiso   1.00
C187   C     0.61728   0.53122   0.24449   0.00000  Uiso   1.00
C188   C     0.60217   0.56261   0.31770   0.00000  Uiso   1.00
C189   C     0.57760   0.61916   0.36508   0.00000  Uiso   1.00
C190   C     0.67102   0.46420   0.44773   0.00000  Uiso   1.00
C191   C     0.70228   0.45990   0.38497   0.00000  Uiso   1.00
C192   C     0.72605   0.45867   0.52244   0.00000  Uiso   1.00
C193   C     0.77317   0.45504   0.68832   0.00000  Uiso   1.00
C194   C     0.61911   0.43531   0.39054   0.00000  Uiso   1.00
C195   C     0.60674   0.40671   0.27973   0.00000  Uiso   1.00
C196   C     0.58681   0.38115   0.36906   0.00000  Uiso   1.00
C197   C     0.55334   0.33266   0.44615   0.00000  Uiso   1.00
C198   C     0.62798   0.47169   0.67767   0.00000  Uiso   1.00
C199   C     0.61756   0.50590   0.56461   0.00000  Uiso   1.00
C200   C     0.60245   0.53726   0.63803   0.00000  Uiso   1.00
C201   C     0.59487   0.56558   0.51124   0.00000  Uiso   1.00
C202   C     0.66374   0.46716   0.64092   0.00000  Uiso   1.00
C203   C     0.68746   0.46593   0.77851   0.00000  Uiso   1.00
C204   C     0.71876   0.46164   0.71599   0.00000  Uiso   1.00
C205   C     0.61183   0.43827   0.58374   0.00000  Uiso   1.00
C206   C     0.59192   0.41274   0.67327   0.00000  Uiso   1.00
C207   C     0.57952   0.38411   0.56261   0.00000  Uiso   1.00
H208   H     0.64705   0.46393   0.17156   0.00000  Uiso   1.00
H209   H     0.62292   0.52892   0.09499   0.00000  Uiso   1.00
H210   H     0.70791   0.45760   0.23546   0.00000  Uiso   1.00
H211   H     0.61238   0.40442   0.13022   0.00000  Uiso   1.00
H212   H     0.59296   0.60228   0.09531   0.00000  Uiso   1.00
H213   H     0.77217   0.45190   0.39149   0.00000  Uiso   1.00
H214   H     0.57073   0.33976   0.16959   0.00000  Uiso   1.00
H215   H     0.62232   0.47400   0.82809   0.00000  Uiso   1.00
H216   H     0.59683   0.53954   0.78755   0.00000  Uiso   1.00
H217   H     0.68182   0.46822   0.92801   0.00000  Uiso   1.00
H218   H     0.58629   0.41505   0.82278   0.00000  Uiso   1.00
H219   H     0.57179   0.61091   0.65741   0.00000  Uiso   1.00
H220   H     0.75100   0.46052   0.95360   0.00000  Uiso   1.00
H221   H     0.54955   0.34838   0.73170   0.00000  Uiso   1.00
O222   O     0.56606   0.64954   0.33785   0.00000  Uiso   1.00
O223   O     0.80118   0.45223   0.72643   0.00000  Uiso   1.00
O224   O     0.53689   0.30511   0.43530   0.00000  Uiso   1.00
N225   N     0.59147   0.59532   0.23316   0.00000  Uiso   1.00
N226   N     0.75902   0.45472   0.51007   0.00000  Uiso   1.00
N227   N     0.57070   0.34987   0.30262   0.00000  Uiso   1.00
N228   N     0.58008   0.59995   0.53562   0.00000  Uiso   1.00
N229   N     0.74763   0.45936   0.81253   0.00000  Uiso   1.00
N230   N     0.55930   0.35451   0.60508   0.00000  Uiso   1.00
C231   C     0.64138   0.96623   0.82197   0.00000  Uiso   1.00
C232   C     0.62484   0.00294   0.87140   0.00000  Uiso   1.00
C233   C     0.61728   0.03122   0.74449   0.00000  Uiso   1.00
C234   C     0.60217   0.06261   0.81770   0.00000  Uiso   1.00
C235   C     0.57760   0.11916   0.86508   0.00000  Uiso   1.00
C236   C     0.67102   0.96420   0.94773   0.00000  Uiso   1.00
C237   C     0.70228   0.95990   0.88497   0.00000  Uiso   1.00
C238   C     0.72605   0.95867   0.02244   0.00000  Uiso   1.00
C239   C     0.77317   0.95504   0.18832   0.00000  Uiso   1.00
C240   C     0.61911   0.93531   0.89054   0.00000  Uiso   1.00
C241   C     0.60674   0.90671   0.77973   0.00000  Uiso   1.00
C242   C     0.58681   0.88115   0.86906   0.00000  Uiso   1.00
C243   C     0.55334   0.83266   0.94615   0.00000  Uiso   1.00
C244   C     0.62798   0.97169   0.17767   0.00000  Uiso   1.00
C245   C     0.61756   0.00590   0.06461   0.00000  Uiso   1.00
C246   C     0.60245   0.03726   0.13803   0.00000  Uiso   1.00
C247   C     0.59487   0.06558   0.01124   0.00000  Uiso   1.00
C248   C     0.66374   0.96716   0.14092   0.00000  Uiso   1.00
C249   C     0.68746   0.96593   0.27851   0.00000  Uiso   1.00
C250   C     0.71876   0.96164   0.21599   0.00000  Uiso   1.00
C251   C     0.61183   0.93827   0.08374   0.00000  Uiso   1.00
C252   C     0.59192   0.91274   0.17327   0.00000  Uiso   1.00
C253   C     0.57952   0.88411   0.06261   0.00000  Uiso   1.00
H254   H     0.64705   0.96393   0.67156   0.00000  Uiso   1.00
H255   H     0.62292   0.02892   0.59499   0.00000  Uiso   1.00
H256   H     0.70791   0.95760   0.73546   0.00000  Uiso   1.00
H257   H     0.61238   0.90442   0.63022   0.00000  Uiso   1.00
H258   H     0.59296   0.10228   0.59531   0.00000  Uiso   1.00
H259   H     0.77217   0.95190   0.89149   0.00000  Uiso   1.00
H260   H     0.57073   0.83976   0.66959   0.00000  Uiso   1.00
H261   H     0.62232   0.97400   0.32809   0.00000  Uiso   1.00
H262   H     0.59683   0.03954   0.28755   0.00000  Uiso   1.00
H263   H     0.68182   0.96822   0.42801   0.00000  Uiso   1.00
H264   H     0.58629   0.91505   0.32278   0.00000  Uiso   1.00
H265   H     0.57179   0.11091   0.15741   0.00000  Uiso   1.00
H266   H     0.75100   0.96052   0.45360   0.00000  Uiso   1.00
H267   H     0.54955   0.84838   0.23170   0.00000  Uiso   1.00
O268   O     0.56606   0.14954   0.83785   0.00000  Uiso   1.00
O269   O     0.80118   0.95223   0.22643   0.00000  Uiso   1.00
O270   O     0.53689   0.80511   0.93530   0.00000  Uiso   1.00
N271   N     0.59147   0.09532   0.73316   0.00000  Uiso   1.00
N272   N     0.75902   0.95472   0.01007   0.00000  Uiso   1.00
N273   N     0.57070   0.84987   0.80262   0.00000  Uiso   1.00
N274   N     0.58008   0.09995   0.03562   0.00000  Uiso   1.00
N275   N     0.74763   0.95936   0.31253   0.00000  Uiso   1.00
N276   N     0.55930   0.85451   0.10508   0.00000  Uiso   1.00
C277   C     0.14138   0.46623   0.82197   0.00000  Uiso   1.00
C278   C     0.12484   0.50294   0.87140   0.00000  Uiso   1.00
C279   C     0.11728   0.53122   0.74449   0.00000  Uiso   1.00
C280   C     0.10217   0.56261   0.81770   0.00000  Uiso   1.00
C281   C     0.07760   0.61916   0.86508   0.00000  Uiso   1.00
C282   C     0.17102   0.46420   0.94773   0.00000  Uiso   1.00
C283   C     0.20228   0.45990   0.88497   0.00000  Uiso   1.00
C284   C     0.22605   0.45867   0.02244   0.00000  Uiso   1.00
C285   C     0.27317   0.45504   0.18832   0.00000  Uiso   1.00
C286   C     0.11911   0.43531   0.89054   0.00000  Uiso   1.00
C287   C     0.10674   0.40671   0.77973   0.00000  Uiso   1.00
C288   C     0.08681   0.38115   0.86906   0.00000  Uiso   1.00
C289   C     0.05334   0.33266   0.94615   0.00000  Uiso   1.00
C290   C     0.12798   0.47169   0.17767   0.00000  Uiso   1.00
C291   C     0.11756   0.50590   0.06461   0.00000  Uiso   1.00
C292   C     0.10245   0.53726   0.13803   0.00000  Uiso   1.00
C293   C     0.09487   0.56558   0.01124   0.00000  Uiso   1.00
C294   C     0.16374   0.46716   0.14092   0.00000  Uiso   1.00
C295   C     0.18746   0.46593   0.27851   0.00000  Uiso   1.00
C296   C     0.21876   0.46164   0.21599   0.00000  Uiso   1.00
C297   C     0.11183   0.43827   0.08374   0.00000  Uiso   1.00
C298   C     0.09192   0.41274   0.17327   0.00000  Uiso   1.00
C299   C     0.07952   0.38411   0.06261   0.00000  Uiso   1.00
H300   H     0.14705   0.46393   0.67156   0.00000  Uiso   1.00
H301   H     0.12292   0.52892   0.59499   0.00000  Uiso   1.00
H302   H     0.20791   0.45760   0.73546   0.00000  Uiso   1.00
H303   H     0.11238   0.40442   0.63022   0.00000  Uiso   1.00
H304   H     0.09296   0.60228   0.59531   0.00000  Uiso   1.00
H305   H     0.27217   0.45190   0.89149   0.00000  Uiso   1.00
H306   H     0.07073   0.33976   0.66959   0.00000  Uiso   1.00
H307   H     0.12232   0.47400   0.32809   0.00000  Uiso   1.00
H308   H     0.09683   0.53954   0.28755   0.00000  Uiso   1.00
H309   H     0.18182   0.46822   0.42801   0.00000  Uiso   1.00
H310   H     0.08629   0.41505   0.32278   0.00000  Uiso   1.00
H311   H     0.07179   0.61091   0.15741   0.00000  Uiso   1.00
H312   H     0.25100   0.46052   0.45360   0.00000  Uiso   1.00
H313   H     0.04955   0.34838   0.23170   0.00000  Uiso   1.00
O314   O     0.06606   0.64954   0.83785   0.00000  Uiso   1.00
O315   O     0.30118   0.45223   0.22643   0.00000  Uiso   1.00
O316   O     0.03689   0.30511   0.93530   0.00000  Uiso   1.00
N317   N     0.09147   0.59532   0.73316   0.00000  Uiso   1.00
N318   N     0.25902   0.45472   0.01007   0.00000  Uiso   1.00
N319   N     0.07070   0.34987   0.80262   0.00000  Uiso   1.00
N320   N     0.08008   0.59995   0.03562   0.00000  Uiso   1.00
N321   N     0.24763   0.45936   0.31253   0.00000  Uiso   1.00
N322   N     0.05930   0.35451   0.10508   0.00000  Uiso   1.00
C323   C     0.14138   0.96623   0.32197   0.00000  Uiso   1.00
C324   C     0.12484   0.00294   0.37140   0.00000  Uiso   1.00
C325   C     0.11728   0.03122   0.24449   0.00000  Uiso   1.00
C326   C     0.10217   0.06261   0.31770   0.00000  Uiso   1.00
C327   C     0.07760   0.11916   0.36508   0.00000  Uiso   1.00
C328   C     0.17102   0.96420   0.44773   0.00000  Uiso   1.00
C329   C     0.20228   0.95990   0.38497   0.00000  Uiso   1.00
C330   C     0.22605   0.95867   0.52244   0.00000  Uiso   1.00
C331   C     0.27317   0.95504   0.68832   0.00000  Uiso   1.00
C332   C     0.11911   0.93531   0.39054   0.00000  Uiso   1.00
C333   C     0.10674   0.90671   0.27973   0.00000  Uiso   1.00
C334   C     0.08681   0.88115   0.36906   0.00000  Uiso   1.00
C335   C     0.05334   0.83266   0.44615   0.00000  Uiso   1.00
C336   C     0.12798   0.97169   0.67767   0.00000  Uiso   1.00
C337   C     0.11756   0.00590   0.56461   0.00000  Uiso   1.00
C338   C     0.10245   0.03726   0.63803   0.00000  Uiso   1.00
C339   C     0.09487   0.06558   0.51124   0.00000  Uiso   1.00
C340   C     0.16374   0.96716   0.64092   0.00000  Uiso   1.00
C341   C     0.18746   0.96593   0.77851   0.00000  Uiso   1.00
C342   C     0.21876   0.96164   0.71599   0.00000  Uiso   1.00
C343   C     0.11183   0.93827   0.58374   0.00000  Uiso   1.00
C344   C     0.09192   0.91274   0.67327   0.00000  Uiso   1.00
C345   C     0.07952   0.88411   0.56261   0.00000  Uiso   1.00
H346   H     0.14705   0.96393   0.17156   0.00000  Uiso   1.00
H347   H     0.12292   0.02892   0.09499   0.00000  Uiso   1.00
H348   H     0.20791   0.95760   0.23546   0.00000  Uiso   1.00
H349   H     0.11238   0.90442   0.13022   0.00000  Uiso   1.00
H350   H     0.09296   0.10228   0.09531   0.00000  Uiso   1.00
H351   H     0.27217   0.95190   0.39149   0.00000  Uiso   1.00
H352   H     0.07073   0.83976   0.16959   0.00000  Uiso   1.00
H353   H     0.12232   0.97400   0.82809   0.00000  Uiso   1.00
H354   H     0.09683   0.03954   0.78755   0.00000  Uiso   1.00
H355   H     0.18182   0.96822   0.92801   0.00000  Uiso   1.00
H356   H     0.08629   0.91505   0.82278   0.00000  Uiso   1.00
H357   H     0.07179   0.11091   0.65741   0.00000  Uiso   1.00
H358   H     0.25100   0.96052   0.95360   0.00000  Uiso   1.00
H359   H     0.04955   0.84838   0.73170   0.00000  Uiso   1.00
O360   O     0.06606   0.14954   0.33785   0.00000  Uiso   1.00
O361   O     0.30118   0.95223   0.72643   0.00000  Uiso   1.00
O362   O     0.03689   0.80511   0.43530   0.00000  Uiso   1.00
N363   N     0.09147   0.09532   0.23316   0.00000  Uiso   1.00
N364   N     0.25902   0.95472   0.51007   0.00000  Uiso   1.00
N365   N     0.07070   0.84987   0.30262   0.00000  Uiso   1.00
N366   N     0.08008   0.09995   0.53562   0.00000  Uiso   1.00
N367   N     0.24763   0.95936   0.81253   0.00000  Uiso   1.00
N368   N     0.05930   0.85451   0.60508   0.00000  Uiso   1.00
C369   C     0.60862   0.71623   0.57197   0.00000  Uiso   1.00
C370   C     0.62516   0.75294   0.62140   0.00000  Uiso   1.00
C371   C     0.63272   0.78122   0.49449   0.00000  Uiso   1.00
C372   C     0.64783   0.81261   0.56770   0.00000  Uiso   1.00
C373   C     0.67240   0.86916   0.61508   0.00000  Uiso   1.00
C374   C     0.57898   0.71420   0.69773   0.00000  Uiso   1.00
C375   C     0.54772   0.70990   0.63497   0.00000  Uiso   1.00
C376   C     0.52395   0.70867   0.77244   0.00000  Uiso   1.00
C377   C     0.47683   0.70504   0.93832   0.00000  Uiso   1.00
C378   C     0.63089   0.68531   0.64054   0.00000  Uiso   1.00
C379   C     0.64326   0.65671   0.52973   0.00000  Uiso   1.00
C380   C     0.66319   0.63115   0.61906   0.00000  Uiso   1.00
C381   C     0.69666   0.58266   0.69615   0.00000  Uiso   1.00
C382   C     0.62202   0.72169   0.92767   0.00000  Uiso   1.00
C383   C     0.63244   0.75590   0.81461   0.00000  Uiso   1.00
C384   C     0.64755   0.78726   0.88803   0.00000  Uiso   1.00
C385   C     0.65513   0.81558   0.76124   0.00000  Uiso   1.00
C386   C     0.58626   0.71716   0.89092   0.00000  Uiso   1.00
C387   C     0.56254   0.71593   0.02851   0.00000  Uiso   1.00
C388   C     0.53124   0.71164   0.96599   0.00000  Uiso   1.00
C389   C     0.63817   0.68827   0.83374   0.00000  Uiso   1.00
C390   C     0.65808   0.66274   0.92327   0.00000  Uiso   1.00
C391   C     0.67048   0.63411   0.81261   0.00000  Uiso   1.00
H392   H     0.60295   0.71393   0.42156   0.00000  Uiso   1.00
H393   H     0.62708   0.77892   0.34499   0.00000  Uiso   1.00
H394   H     0.54209   0.70760   0.48546   0.00000  Uiso   1.00
H395   H     0.63762   0.65442   0.38022   0.00000  Uiso   1.00
H396   H     0.65704   0.85228   0.34531   0.00000  Uiso   1.00
H397   H     0.47783   0.70190   0.64149   0.00000  Uiso   1.00
H398   H     0.67927   0.58976   0.41959   0.00000  Uiso   1.00
H399   H     0.62768   0.72400   0.07809   0.00000  Uiso   1.00
H400   H     0.65317   0.78954   0.03755   0.00000  Uiso   1.00
H401   H     0.56818   0.71822   0.17801   0.00000  Uiso   1.00
H402   H     0.66371   0.66505   0.07278   0.00000  Uiso   1.00
H403   H     0.67821   0.86091   0.90741   0.00000  Uiso   1.00
H404   H     0.49900   0.71052   0.20360   0.00000  Uiso   1.00
H405   H     0.70045   0.59838   0.98170   0.00000  Uiso   1.00
O406   O     0.68394   0.89954   0.58785   0.00000  Uiso   1.00
O407   O     0.44882   0.70223   0.97643   0.00000  Uiso   1.00
O408   O     0.71311   0.55511   0.68530   0.00000  Uiso   1.00
N409   N     0.65853   0.84532   0.48316   0.00000  Uiso   1.00
N410   N     0.49098   0.70472   0.76007   0.00000  Uiso   1.00
N411   N     0.67930   0.59987   0.55262   0.00000  Uiso   1.00
N412   N     0.66992   0.84995   0.78562   0.00000  Uiso   1.00
N413   N     0.50237   0.70936   0.06253   0.00000  Uiso   1.00
N414   N     0.69070   0.60451   0.85508   0.00000  Uiso   1.00
C415   C     0.60862   0.21623   0.07197   0.00000  Uiso   1.00
C416   C     0.62516   0.25294   0.12140   0.00000  Uiso   1.00
C417   C     0.63272   0.28122   0.99449   0.00000  Uiso   1.00
C418   C     0.64783   0.31261   0.06770   0.00000  Uiso   1.00
C419   C     0.67240   0.36916   0.11508   0.00000  Uiso   1.00
C420   C     0.57898   0.21420   0.19773   0.00000  Uiso   1.00
C421   C     0.54772   0.20990   0.13497   0.00000  Uiso   1.00
C422   C     0.52395   0.20867   0.27244   0.00000  Uiso   1.00
C423   C     0.47683   0.20504   0.43832   0.00000  Uiso   1.00
C424   C     0.63089   0.18531   0.14054   0.00000  Uiso   1.00
C425   C     0.64326   0.15671   0.02973   0.00000  Uiso   1.00
C426   C     0.66319   0.13115   0.11906   0.00000  Uiso   1.00
C427   C     0.69666   0.08266   0.19615   0.00000  Uiso   1.00
C428   C     0.62202   0.22169   0.42767   0.00000  Uiso   1.00
C429   C     0.63244   0.25590   0.31461   0.00000  Uiso   1.00
C430   C     0.64755   0.28726   0.38803   0.00000  Uiso   1.00
C431   C     0.65513   0.31558   0.26124   0.00000  Uiso   1.00
C432   C     0.58626   0.21716   0.39092   0.00000  Uiso   1.00
C433   C     0.56254   0.21593   0.52851   0.00000  Uiso   1.00
C434   C     0.53124   0.21164   0.46599   0.00000  Uiso   1.00
C435   C     0.63817   0.18827   0.33374   0.00000  Uiso   1.00
C436   C     0.65808   0.16274   0.42327   0.00000  Uiso   1.00
C437   C     0.67048   0.13411   0.31261   0.00000  Uiso   1.00
H438   H     0.60295   0.21393   0.92156   0.00000  Uiso   1.00
H439   H     0.62708   0.27892   0.84499   0.00000  Uiso   1.00
H440   H     0.54209   0.20760   0.98546   0.00000  Uiso   1.00
H441   H     0.63762   0.15442   0.88022   0.00000  Uiso   1.00
H442   H     0.65704   0.35228   0.84531   0.00000  Uiso   1.00
H443   H     0.47783   0.20190   0.14149   0.00000  Uiso   1.00
H444   H     0.67927   0.08976   0.91959   0.00000  Uiso   1.00
H445   H     0.62768   0.22400   0.57809   0.00000  Uiso   1.00
H446   H     0.65317   0.28954   0.53755   0.00000  Uiso   1.00
H447   H     0.56818   0.21822   0.67801   0.00000  Uiso   1.00
H448   H     0.66371   0.16505   0.57278   0.00000  Uiso   1.00
H449   H     0.67821   0.36091   0.40741   0.00000  Uiso   1.00
H450   H     0.49900   0.21052   0.70360   0.00000  Uiso   1.00
H451   H     0.70045   0.09838   0.48170   0.00000  Uiso   1.00
O452   O     0.68394   0.39954   0.08785   0.00000  Uiso   1.00
O453   O     0.44882   0.20223   0.47643   0.00000  Uiso   1.00
O454   O     0.71311   0.05511   0.18530   0.00000  Uiso   1.00
N455   N     0.65853   0.34532   0.98316   0.00000  Uiso   1.00
N456   N     0.49098   0.20472   0.26007   0.00000  Uiso   1.00
N457   N     0.67930   0.09987   0.05262   0.00000  Uiso   1.00
N458   N     0.66992   0.34995   0.28562   0.00000  Uiso   1.00
N459   N     0.50237   0.20936   0.56253   0.00000  Uiso   1.00
N460   N     0.69070   0.10451   0.35508   0.00000  Uiso   1.00
C461   C     0.10862   0.71623   0.07197   0.00000  Uiso   1.00
C462   C     0.12516   0.75294   0.12140   0.00000  Uiso   1.00
C463   C     0.13272   0.78122   0.99449   0.00000  Uiso   1.00
C464   C     0.14783   0.81261   0.06770   0.00000  Uiso   1.00
C465   C     0.17240   0.86916   0.11508   0.00000  Uiso   1.00
C466   C     0.07898   0.71420   0.19773   0.00000  Uiso   1.00
C467   C     0.04772   0.70990   0.13497   0.00000  Uiso   1.00
C468   C     0.02395   0.70867   0.27244   0.00000  Uiso   1.00
C469   C     0.97683   0.70504   0.43832   0.00000  Uiso   1.00
C470   C     0.13089   0.68531   0.14054   0.00000  Uiso   1.00
C471   C     0.14326   0.65671   0.02973   0.00000  Uiso   1.00
C472   C     0.16319   0.63115   0.11906   0.00000  Uiso   1.00
C473   C     0.19666   0.58266   0.19615   0.00000  Uiso   1.00
C474   C     0.12202   0.72169   0.42767   0.00000  Uiso   1.00
C475   C     0.13244   0.75590   0.31461   0.00000  Uiso   1.00
C476   C     0.14755   0.78726   0.38803   0.00000  Uiso   1.00
C477   C     0.15513   0.81558   0.26124   0.00000  Uiso   1.00
C478   C     0.08626   0.71716   0.39092   0.00000  Uiso   1.00
C479   C     0.06254   0.71593   0.52851   0.00000  Uiso   1.00
C480   C     0.03124   0.71164   0.46599   0.00000  Uiso   1.00
C481   C     0.13817   0.68827   0.33374   0.00000  Uiso   1.00
C482   C     0.15808   0.66274   0.42327   0.00000  Uiso   1.00
C483   C     0.17048   0.63411   0.31261   0.00000  Uiso   1.00
H484   H     0.10295   0.71393   0.92156   0.00000  Uiso   1.00
H485   H     0.12708   0.77892   0.84499   0.00000  Uiso   1.00
H486   H     0.04209   0.70760   0.98546   0.00000  Uiso   1.00
H487   H     0.13762   0.65442   0.88022   0.00000  Uiso   1.00
H488   H     0.15704   0.85228   0.84531   0.00000  Uiso   1.00
H489   H     0.97783   0.70190   0.14149   0.00000  Uiso   1.00
H490   H     0.17927   0.58976   0.91959   0.00000  Uiso   1.00
H491   H     0.12768   0.72400   0.57809   0.00000  Uiso   1.00
H492   H     0.15317   0.78954   0.53755   0.00000  Uiso   1.00
H493   H     0.06818   0.71822   0.67801   0.00000  Uiso   1.00
H494   H     0.16371   0.66505   0.57278   0.00000  Uiso   1.00
H495   H     0.17821   0.86091   0.40741   0.00000  Uiso   1.00
H496   H     0.99900   0.71052   0.70360   0.00000  Uiso   1.00
H497   H     0.20045   0.59838   0.48170   0.00000  Uiso   1.00
O498   O     0.18394   0.89954   0.08785   0.00000  Uiso   1.00
O499   O     0.94882   0.70223   0.47643   0.00000  Uiso   1.00
O500   O     0.21311   0.55511   0.18530   0.00000  Uiso   1.00
N501   N     0.15853   0.84532   0.98316   0.00000  Uiso   1.00
N502   N     0.99098   0.70472   0.26007   0.00000  Uiso   1.00
N503   N     0.17930   0.59987   0.05262   0.00000  Uiso   1.00
N504   N     0.16992   0.84995   0.28562   0.00000  Uiso   1.00
N505   N     0.00237   0.70936   0.56253   0.00000  Uiso   1.00
N506   N     0.19070   0.60451   0.35508   0.00000  Uiso   1.00
C507   C     0.10862   0.21623   0.57197   0.00000  Uiso   1.00
C508   C     0.12516   0.25294   0.62140   0.00000  Uiso   1.00
C509   C     0.13272   0.28122   0.49449   0.00000  Uiso   1.00
C510   C     0.14783   0.31261   0.56770   0.00000  Uiso   1.00
C511   C     0.17240   0.36916   0.61508   0.00000  Uiso   1.00
C512   C     0.07898   0.21420   0.69773   0.00000  Uiso   1.00
C513   C     0.04772   0.20990   0.63497   0.00000  Uiso   1.00
C514   C     0.02395   0.20867   0.77244   0.00000  Uiso   1.00
C515   C     0.97683   0.20504   0.93832   0.00000  Uiso   1.00
C516   C     0.13089   0.18531   0.64054   0.00000  Uiso   1.00
C517   C     0.14326   0.15671   0.52973   0.00000  Uiso   1.00
C518   C     0.16319   0.13115   0.61906   0.00000  Uiso   1.00
C519   C     0.19666   0.08266   0.69615   0.00000  Uiso   1.00
C520   C     0.12202   0.22169   0.92767   0.00000  Uiso   1.00
C521   C     0.13244   0.25590   0.81461   0.00000  Uiso   1.00
C522   C     0.14755   0.28726   0.88803   0.00000  Uiso   1.00
C523   C     0.15513   0.31558   0.76124   0.00000  Uiso   1.00
C524   C     0.08626   0.21716   0.89092   0.00000  Uiso   1.00
C525   C     0.06254   0.21593   0.02851   0.00000  Uiso   1.00
C526   C     0.03124   0.21164   0.96599   0.00000  Uiso   1.00
C527   C     0.13817   0.18827   0.83374   0.00000  Uiso   1.00
C528   C     0.15808   0.16274   0.92327   0.00000  Uiso   1.00
C529   C     0.17048   0.13411   0.81261   0.00000  Uiso   1.00
H530   H     0.10295   0.21393   0.42156   0.00000  Uiso   1.00
H531   H     0.12708   0.27892   0.34499   0.00000  Uiso   1.00
H532   H     0.04209   0.20760   0.48546   0.00000  Uiso   1.00
H533   H     0.13762   0.15442   0.38022   0.00000  Uiso   1.00
H534   H     0.15704   0.35228   0.34531   0.00000  Uiso   1.00
H535   H     0.97783   0.20190   0.64149   0.00000  Uiso   1.00
H536   H     0.17927   0.08976   0.41959   0.00000  Uiso   1.00
H537   H     0.12768   0.22400   0.07809   0.00000  Uiso   1.00
H538   H     0.15317   0.28954   0.03755   0.00000  Uiso   1.00
H539   H     0.06818   0.21822   0.17801   0.00000  Uiso   1.00
H540   H     0.16371   0.16505   0.07278   0.00000  Uiso   1.00
H541   H     0.17821   0.36091   0.90741   0.00000  Uiso   1.00
H542   H     0.99900   0.21052   0.20360   0.00000  Uiso   1.00
H543   H     0.20045   0.09838   0.98170   0.00000  Uiso   1.00
O544   O     0.18394   0.39954   0.58785   0.00000  Uiso   1.00
O545   O     0.94882   0.20223   0.97643   0.00000  Uiso   1.00
O546   O     0.21311   0.05511   0.68530   0.00000  Uiso   1.00
N547   N     0.15853   0.34532   0.48316   0.00000  Uiso   1.00
N548   N     0.99098   0.20472   0.76007   0.00000  Uiso   1.00
N549   N     0.17930   0.09987   0.55262   0.00000  Uiso   1.00
N550   N     0.16992   0.34995   0.78562   0.00000  Uiso   1.00
N551   N     0.00237   0.20936   0.06253   0.00000  Uiso   1.00
N552   N     0.19070   0.10451   0.85508   0.00000  Uiso   1.00
C553   C     0.89138   0.78377   0.57197   0.00000  Uiso   1.00
C554   C     0.87484   0.74706   0.62140   0.00000  Uiso   1.00
C555   C     0.86728   0.71878   0.49449   0.00000  Uiso   1.00
C556   C     0.85217   0.68739   0.56770   0.00000  Uiso   1.00
C557   C     0.82760   0.63084   0.61508   0.00000  Uiso   1.00
C558   C     0.92102   0.78580   0.69773   0.00000  Uiso   1.00
C559   C     0.95228   0.79010   0.63497   0.00000  Uiso   1.00
C560   C     0.97605   0.79133   0.77244   0.00000  Uiso   1.00
C561   C     0.02317   0.79496   0.93832   0.00000  Uiso   1.00
C562   C     0.86911   0.81469   0.64054   0.00000  Uiso   1.00
C563   C     0.85674   0.84329   0.52973   0.00000  Uiso   1.00
C564   C     0.83681   0.86885   0.61906   0.00000  Uiso   1.00
C565   C     0.80334   0.91734   0.69615   0.00000  Uiso   1.00
C566   C     0.87798   0.77831   0.92767   0.00000  Uiso   1.00
C567   C     0.86756   0.74410   0.81461   0.00000  Uiso   1.00
C568   C     0.85245   0.71274   0.88803   0.00000  Uiso   1.00
C569   C     0.84487   0.68442   0.76124   0.00000  Uiso   1.00
C570   C     0.91374   0.78284   0.89092   0.00000  Uiso   1.00
C571   C     0.93746   0.78407   0.02851   0.00000  Uiso   1.00
C572   C     0.96876   0.78836   0.96599   0.00000  Uiso   1.00
C573   C     0.86183   0.81173   0.83374   0.00000  Uiso   1.00
C574   C     0.84192   0.83726   0.92327   0.00000  Uiso   1.00
C575   C     0.82952   0.86589   0.81261   0.00000  Uiso   1.00
H576   H     0.89705   0.78607   0.42156   0.00000  Uiso   1.00
H577   H     0.87292   0.72108   0.34499   0.00000  Uiso   1.00
H578   H     0.95791   0.79240   0.48546   0.00000  Uiso   1.00
H579   H     0.86238   0.84558   0.38022   0.00000  Uiso   1.00
H580   H     0.84296   0.64772   0.34531   0.00000  Uiso   1.00
H581   H     0.02217   0.79810   0.64149   0.00000  Uiso   1.00
H582   H     0.82073   0.91024   0.41959   0.00000  Uiso   1.00
H583   H     0.87232   0.77600   0.07809   0.00000  Uiso   1.00
H584   H     0.84683   0.71046   0.03755   0.00000  Uiso   1.00
H585   H     0.93182   0.78178   0.17801   0.00000  Uiso   1.00
H586   H     0.83629   0.83495   0.07278   0.00000  Uiso   1.00
H587   H     0.82179   0.63909   0.90741   0.00000  Uiso   1.00
H588   H     0.00100   0.78948   0.20360   0.00000  Uiso   1.00
H589   H     0.79955   0.90162   0.98170   0.00000  Uiso   1.00
O590   O     0.81606   0.60046   0.58785   0.00000  Uiso   1.00
O591   O     0.05118   0.79777   0.97643   0.00000  Uiso   1.00
O592   O     0.78689   0.94489   0.68530   0.00000  Uiso   1.00
N593   N     0.84147   0.65468   0.48316   0.00000  Uiso   1.00
N594   N     0.00902   0.79528   0.76007   0.00000  Uiso   1.00
N595   N     0.82070   0.90013   0.55262   0.00000  Uiso   1.00
N596   N     0.83008   0.65005   0.78562   0.00000  Uiso   1.00
N597   N     0.99763   0.79064   0.06253   0.00000  Uiso   1.00
N598   N     0.80930   0.89549   0.85508   0.00000  Uiso   1.00
C599   C     0.89138   0.28377   0.07197   0.00000  Uiso   1.00
C600   C     0.87484   0.24706   0.12140   0.00000  Uiso   1.00
C601   C     0.86728   0.21878   0.99449   0.00000  Uiso   1.00
C602   C     0.85217   0.18739   0.06770   0.00000  Uiso   1.00
C603   C     0.82760   0.13084   0.11508   0.00000  Uiso   1.00
C604   C     0.92102   0.28580   0.19773   0.00000  Uiso   1.00
C605   C     0.95228   0.29010   0.13497   0.00000  Uiso   1.00
C606   C     0.97605   0.29133   0.27244   0.00000  Uiso   1.00
C607   C     0.02317   0.29496   0.43832   0.00000  Uiso   1.00
C608   C     0.86911   0.31469   0.14054   0.00000  Uiso   1.00
C609   C     0.85674   0.34329   0.02973   0.00000  Uiso   1.00
C610   C     0.83681   0.36885   0.11906   0.00000  Uiso   1.00
C611   C     0.80334   0.41734   0.19615   0.00000  Uiso   1.00
C612   C     0.87798   0.27831   0.42767   0.00000  Uiso   1.00
C613   C     0.86756   0.24410   0.31461   0.00000  Uiso   1.00
C614   C     0.85245   0.21274   0.38803   0.00000  Uiso   1.00
C615   C     0.84487   0.18442   0.26124   0.00000  Uiso   1.00
C616   C     0.91374   0.28284   0.39092   0.00000  Uiso   1.00
C617   C     0.93746   0.28407   0.52851   0.00000  Uiso   1.00
C618   C     0.96876   0.28836   0.46599   0.00000  Uiso   1.00
C619   C     0.86183   0.31173   0.33374   0.00000  Uiso   1.00
C620   C     0.84192   0.33726   0.42327   0.00000  Uiso   1.00
C621   C     0.82952   0.36589   0.31261   0.00000  Uiso   1.00
H622   H     0.89705   0.28607   0.92156   0.00000  Uiso   1.00
H623   H     0.87292   0.22108   0.84499   0.00000  Uiso   1.00
H624   H     0.95791   0.29240   0.98546   0.00000  Uiso   1.00
H625   H     0.86238   0.34558   0.88022   0.00000  Uiso   1.00
H626   H     0.84296   0.14772   0.84531   0.00000  Uiso   1.00
H627   H     0.02217   0.29810   0.14149   0.00000  Uiso   1.00
H628   H     0.82073   0.41024   0.91959   0.00000  Uiso   1.00
H629   H     0.87232   0.27600   0.57809   0.00000  Uiso   1.00
H630   H     0.84683   0.21046   0.53755   0.00000  Uiso   1.00
H631   H     0.93182   0.28178   0.67801   0.00000  Uiso   1.00
H632   H     0.83629   0.33495   0.57278   0.00000  Uiso   1.00
H633   H     0.82179   0.13909   0.40741   0.00000  Uiso   1.00
H634   H     0.00100   0.28948   0.70360   0.00000  Uiso   1.00
H635   H     0.79955   0.40162   0.48170   0.00000  Uiso   1.00
O636   O     0.81606   0.10046   0.08785   0.00000  Uiso   1.00
O637   O     0.05118   0.29777   0.47643   0.00000  Uiso   1.00
O638   O     0.78689   0.44489   0.18530   0.00000  Uiso   1.00
N639   N     0.84147   0.15468   0.98316   0.00000  Uiso   1.00
N640   N     0.00902   0.29528   0.26007   0.00000  Uiso   1.00
N641   N     0.82070   0.40013   0.05262   0.00000  Uiso   1.00
N642   N     0.83008   0.15005   0.28562   0.00000  Uiso   1.00
N643   N     0.99763   0.29064   0.56253   0.00000  Uiso   1.00
N644   N     0.80930   0.39549   0.35508   0.00000  Uiso   1.00
C645   C     0.39138   0.78377   0.07197   0.00000  Uiso   1.00
C646   C     0.37484   0.74706   0.12140   0.00000  Uiso   1.00
C647   C     0.36728   0.71878   0.99449   0.00000  Uiso   1.00
C648   C     0.35217   0.68739   0.06770   0.00000  Uiso   1.00
C649   C     0.32760   0.63084   0.11508   0.00000  Uiso   1.00
C650   C     0.42102   0.78580   0.19773   0.00000  Uiso   1.00
C651   C     0.45228   0.79010   0.13497   0.00000  Uiso   1.00
C652   C     0.47605   0.79133   0.27244   0.00000  Uiso   1.00
C653   C     0.52317   0.79496   0.43832   0.00000  Uiso   1.00
C654   C     0.36911   0.81469   0.14054   0.00000  Uiso   1.00
C655   C     0.35674   0.84329   0.02973   0.00000  Uiso   1.00
C656   C     0.33681   0.86885   0.11906   0.00000  Uiso   1.00
C657   C     0.30334   0.91734   0.19615   0.00000  Uiso   1.00
C658   C     0.37798   0.77831   0.42767   0.00000  Uiso   1.00
C659   C     0.36756   0.74410   0.31461   0.00000  Uiso   1.00
C660   C     0.35245   0.71274   0.38803   0.00000  Uiso   1.00
C661   C     0.34487   0.68442   0.26124   0.00000  Uiso   1.00
C662   C     0.41374   0.78284   0.39092   0.00000  Uiso   1.00
C663   C     0.43746   0.78407   0.52851   0.00000  Uiso   1.00
C664   C     0.46876   0.78836   0.46599   0.00000  Uiso   1.00
C665   C     0.36183   0.81173   0.33374   0.00000  Uiso   1.00
C666   C     0.34192   0.83726   0.42327   0.00000  Uiso   1.00
C667   C     0.32952   0.86589   0.31261   0.00000  Uiso   1.00
H668   H     0.39705   0.78607   0.92156   0.00000  Uiso   1.00
H669   H     0.37292   0.72108   0.84499   0.00000  Uiso   1.00
H670   H     0.45791   0.79240   0.98546   0.00000  Uiso   1.00
H671   H     0.36238   0.84558   0.88022   0.00000  Uiso   1.00
H672   H     0.34296   0.64772   0.84531   0.00000  Uiso   1.00
H673   H     0.52217   0.79810   0.14149   0.00000  Uiso   1.00
H674   H     0.32073   0.91024   0.91959   0.00000  Uiso   1.00
H675   H     0.37232   0.77600   0.57809   0.00000  Uiso   1.00
H676   H     0.34683   0.71046   0.53755   0.00000  Uiso   1.00
H677   H     0.43182   0.78178   0.67801   0.00000  Uiso   1.00
H678   H     0.33629   0.83495   0.57278   0.00000  Uiso   1.00
H679   H     0.32179   0.63909   0.40741   0.00000  Uiso   1.00
H680   H     0.50100   0.78948   0.70360   0.00000  Uiso   1.00
H681   H     0.29955   0.90162   0.48170   0.00000  Uiso   1.00
O682   O     0.31606   0.60046   0.08785   0.00000  Uiso   1.00
O683   O     0.55118   0.79777   0.47643   0.00000  Uiso   1.00
O684   O     0.28689   0.94489   0.18530   0.00000  Uiso   1.00
N685   N     0.34147   0.65468   0.98316   0.00000  Uiso   1.00
N686   N     0.50902   0.79528   0.26007   0.00000  Uiso   1.00
N687   N     0.32070   0.90013   0.05262   0.00000  Uiso   1.00
N688   N     0.33008   0.65005   0.28562   0.00000  Uiso   1.00
N689   N     0.49763   0.79064   0.56253   0.00000  Uiso   1.00
N690   N     0.30930   0.89549   0.35508   0.00000  Uiso   1.00
C691   C     0.39138   0.28377   0.57197   0.00000  Uiso   1.00
C692   C     0.37484   0.24706   0.62140   0.00000  Uiso   1.00
C693   C     0.36728   0.21878   0.49449   0.00000  Uiso   1.00
C694   C     0.35217   0.18739   0.56770   0.00000  Uiso   1.00
C695   C     0.32760   0.13084   0.61508   0.00000  Uiso   1.00
C696   C     0.42102   0.28580   0.69773   0.00000  Uiso   1.00
C697   C     0.45228   0.29010   0.63497   0.00000  Uiso   1.00
C698   C     0.47605   0.29133   0.77244   0.00000  Uiso   1.00
C699   C     0.52317   0.29496   0.93832   0.00000  Uiso   1.00
C700   C     0.36911   0.31469   0.64054   0.00000  Uiso   1.00
C701   C     0.35674   0.34329   0.52973   0.00000  Uiso   1.00
C702   C     0.33681   0.36885   0.61906   0.00000  Uiso   1.00
C703   C     0.30334   0.41734   0.69615   0.00000  Uiso   1.00
C704   C     0.37798   0.27831   0.92767   0.00000  Uiso   1.00
C705   C     0.36756   0.24410   0.81461   0.00000  Uiso   1.00
C706   C     0.35245   0.21274   0.88803   0.00000  Uiso   1.00
C707   C     0.34487   0.18442   0.76124   0.00000  Uiso   1.00
C708   C     0.41374   0.28284   0.89092   0.00000  Uiso   1.00
C709   C     0.43746   0.28407   0.02851   0.00000  Uiso   1.00
C710   C     0.46876   0.28836   0.96599   0.00000  Uiso   1.00
C711   C     0.36183   0.31173   0.83374   0.00000  Uiso   1.00
C712   C     0.34192   0.33726   0.92327   0.00000  Uiso   1.00
C713   C     0.32952   0.36589   0.81261   0.00000  Uiso   1.00
H714   H     0.39705   0.28607   0.42156   0.00000  Uiso   1.00
H715   H     0.37292   0.22108   0.34499   0.00000  Uiso   1.00
H716   H     0.45791   0.29240   0.48546   0.00000  Uiso   1.00
H717   H     0.36238   0.34558   0.38022   0.00000  Uiso   1.00
H718   H     0.34296   0.14772   0.34531   0.00000  Uiso   1.00
H719   H     0.52217   0.29810   0.64149   0.00000  Uiso   1.00
H720   H     0.32073   0.41024   0.41959   0.00000  Uiso   1.00
H721   H     0.37232   0.27600   0.07809   0.00000  Uiso   1.00
H722   H     0.34683   0.21046   0.03755   0.00000  Uiso   1.00
H723   H     0.43182   0.28178   0.17801   0.00000  Uiso   1.00
H724   H     0.33629   0.33495   0.07278   0.00000  Uiso   1.00
H725   H     0.32179   0.13909   0.90741   0.00000  Uiso   1.00
H726   H     0.50100   0.28948   0.20360   0.00000  Uiso   1.00
H727   H     0.29955   0.40162   0.98170   0.00000  Uiso   1.00
O728   O     0.31606   0.10046   0.58785   0.00000  Uiso   1.00
O729   O     0.55118   0.29777   0.97643   0.00000  Uiso   1.00
O730   O     0.28689   0.44489   0.68530   0.00000  Uiso   1.00
N731   N     0.34147   0.15468   0.48316   0.00000  Uiso   1.00
N732   N     0.50902   0.29528   0.76007   0.00000  Uiso   1.00
N733   N     0.32070   0.40013   0.55262   0.00000  Uiso   1.00
N734   N     0.33008   0.15005   0.78562   0.00000  Uiso   1.00
N735   N     0.49763   0.29064   0.06253   0.00000  Uiso   1.00
N736   N     0.30930   0.39549   0.85508   0.00000  Uiso   1.00
