data_job_05675
_audit_creation_date              2018-12-19
_audit_creation_method            'Materials Studio'
_symmetry_space_group_name_H-M    'P1'
_symmetry_Int_Tables_number       1
_symmetry_cell_setting            triclinic
loop_
_symmetry_equiv_pos_as_xyz
  x,y,z
_cell_length_a                    13.2706
_cell_length_b                    31.3649
_cell_length_c                    26.9759
_cell_angle_alpha                 90.0000
_cell_angle_beta                  90.0000
_cell_angle_gamma                 90.0000
loop_
_atom_site_label
_atom_site_type_symbol
_atom_site_fract_x
_atom_site_fract_y
_atom_site_fract_z
_atom_site_U_iso_or_equiv
_atom_site_adp_type
_atom_site_occupancy
C1     C     0.74276   0.32689   0.07136   0.00000  Uiso   1.00
C2     C     0.63006   0.33126   0.08118   0.00000  Uiso   1.00
C3     C     0.55367   0.32094   0.04816   0.00000  Uiso   1.00
C4     C     0.45535   0.32725   0.06416   0.00000  Uiso   1.00
C5     C     0.28357   0.33162   0.07219   0.00000  Uiso   1.00
C6     C     0.78776   0.37101   0.07991   0.00000  Uiso   1.00
C7     C     0.84397   0.39411   0.04584   0.00000  Uiso   1.00
C8     C     0.87842   0.43389   0.06078   0.00000  Uiso   1.00
C9     C     0.95153   0.49996   0.06686   0.00000  Uiso   1.00
C10    C     0.78389   0.29866   0.11269   0.00000  Uiso   1.00
C11    C     0.83686   0.26092   0.10618   0.00000  Uiso   1.00
C12    C     0.86807   0.23978   0.14871   0.00000  Uiso   1.00
C13    C     0.93517   0.19350   0.20569   0.00000  Uiso   1.00
C14    C     0.70401   0.35645   0.15848   0.00000  Uiso   1.00
C15    C     0.60902   0.34732   0.12850   0.00000  Uiso   1.00
C16    C     0.51080   0.35365   0.14455   0.00000  Uiso   1.00
C17    C     0.43427   0.34334   0.11157   0.00000  Uiso   1.00
C18    C     0.76672   0.38707   0.12723   0.00000  Uiso   1.00
C19    C     0.80110   0.42682   0.14223   0.00000  Uiso   1.00
C20    C     0.85734   0.44998   0.10818   0.00000  Uiso   1.00
C21    C     0.76285   0.31471   0.16001   0.00000  Uiso   1.00
C22    C     0.79399   0.29363   0.20257   0.00000  Uiso   1.00
C23    C     0.84699   0.25587   0.19612   0.00000  Uiso   1.00
H24    H     0.75914   0.31439   0.03452   0.00000  Uiso   1.00
H25    H     0.56998   0.30852   0.01154   0.00000  Uiso   1.00
H26    H     0.86025   0.38167   0.00922   0.00000  Uiso   1.00
H27    H     0.85313   0.24850   0.06955   0.00000  Uiso   1.00
H28    H     0.35098   0.30910   0.00693   0.00000  Uiso   1.00
H29    H     0.96305   0.46335   0.00204   0.00000  Uiso   1.00
H30    H     0.94806   0.18253   0.12926   0.00000  Uiso   1.00
H31    H     0.68763   0.36896   0.19532   0.00000  Uiso   1.00
H32    H     0.49454   0.36608   0.18117   0.00000  Uiso   1.00
H33    H     0.78481   0.43924   0.17885   0.00000  Uiso   1.00
H34    H     0.77769   0.30607   0.23918   0.00000  Uiso   1.00
H35    H     0.28975   0.35583   0.14461   0.00000  Uiso   1.00
H36    H     0.90183   0.51008   0.13972   0.00000  Uiso   1.00
H37    H     0.88683   0.22926   0.26694   0.00000  Uiso   1.00
O38    O     0.19464   0.32960   0.06355   0.00000  Uiso   1.00
O39    O     0.99767   0.53196   0.05714   0.00000  Uiso   1.00
O40    O     0.97799   0.16354   0.22405   0.00000  Uiso   1.00
N41    N     0.36307   0.32049   0.04128   0.00000  Uiso   1.00
N42    N     0.93531   0.46470   0.03671   0.00000  Uiso   1.00
N43    N     0.92131   0.20217   0.15565   0.00000  Uiso   1.00
N44    N     0.33012   0.34563   0.11536   0.00000  Uiso   1.00
N45    N     0.90236   0.48984   0.11079   0.00000  Uiso   1.00
N46    N     0.88836   0.22731   0.22973   0.00000  Uiso   1.00
C47    C     0.24276   0.82689   0.57136   0.00000  Uiso   1.00
C48    C     0.13006   0.83126   0.58118   0.00000  Uiso   1.00
C49    C     0.05367   0.82094   0.54816   0.00000  Uiso   1.00
C50    C     0.95535   0.82725   0.56416   0.00000  Uiso   1.00
C51    C     0.78357   0.83162   0.57219   0.00000  Uiso   1.00
C52    C     0.28776   0.87101   0.57991   0.00000  Uiso   1.00
C53    C     0.34397   0.89411   0.54584   0.00000  Uiso   1.00
C54    C     0.37842   0.93389   0.56078   0.00000  Uiso   1.00
C55    C     0.45153   0.99996   0.56686   0.00000  Uiso   1.00
C56    C     0.28389   0.79866   0.61269   0.00000  Uiso   1.00
C57    C     0.33686   0.76092   0.60618   0.00000  Uiso   1.00
C58    C     0.36807   0.73978   0.64871   0.00000  Uiso   1.00
C59    C     0.43517   0.69350   0.70569   0.00000  Uiso   1.00
C60    C     0.20401   0.85645   0.65848   0.00000  Uiso   1.00
C61    C     0.10902   0.84732   0.62850   0.00000  Uiso   1.00
C62    C     0.01080   0.85365   0.64455   0.00000  Uiso   1.00
C63    C     0.93427   0.84334   0.61157   0.00000  Uiso   1.00
C64    C     0.26672   0.88707   0.62723   0.00000  Uiso   1.00
C65    C     0.30110   0.92682   0.64223   0.00000  Uiso   1.00
C66    C     0.35734   0.94998   0.60818   0.00000  Uiso   1.00
C67    C     0.26285   0.81471   0.66001   0.00000  Uiso   1.00
C68    C     0.29399   0.79363   0.70257   0.00000  Uiso   1.00
C69    C     0.34699   0.75587   0.69612   0.00000  Uiso   1.00
H70    H     0.25914   0.81439   0.53452   0.00000  Uiso   1.00
H71    H     0.06998   0.80852   0.51154   0.00000  Uiso   1.00
H72    H     0.36025   0.88167   0.50922   0.00000  Uiso   1.00
H73    H     0.35313   0.74850   0.56955   0.00000  Uiso   1.00
H74    H     0.85098   0.80910   0.50693   0.00000  Uiso   1.00
H75    H     0.46305   0.96335   0.50204   0.00000  Uiso   1.00
H76    H     0.44806   0.68253   0.62926   0.00000  Uiso   1.00
H77    H     0.18763   0.86896   0.69532   0.00000  Uiso   1.00
H78    H     0.99454   0.86608   0.68117   0.00000  Uiso   1.00
H79    H     0.28481   0.93924   0.67885   0.00000  Uiso   1.00
H80    H     0.27769   0.80607   0.73918   0.00000  Uiso   1.00
H81    H     0.78975   0.85583   0.64461   0.00000  Uiso   1.00
H82    H     0.40183   0.01008   0.63972   0.00000  Uiso   1.00
H83    H     0.38683   0.72926   0.76694   0.00000  Uiso   1.00
O84    O     0.69464   0.82960   0.56355   0.00000  Uiso   1.00
O85    O     0.49767   0.03196   0.55714   0.00000  Uiso   1.00
O86    O     0.47799   0.66354   0.72405   0.00000  Uiso   1.00
N87    N     0.86307   0.82049   0.54128   0.00000  Uiso   1.00
N88    N     0.43531   0.96470   0.53671   0.00000  Uiso   1.00
N89    N     0.42131   0.70217   0.65565   0.00000  Uiso   1.00
N90    N     0.83012   0.84563   0.61536   0.00000  Uiso   1.00
N91    N     0.40236   0.98984   0.61079   0.00000  Uiso   1.00
N92    N     0.38836   0.72731   0.72973   0.00000  Uiso   1.00
C93    C     0.75724   0.67311   0.57136   0.00000  Uiso   1.00
C94    C     0.86994   0.66874   0.58118   0.00000  Uiso   1.00
C95    C     0.94633   0.67906   0.54816   0.00000  Uiso   1.00
C96    C     0.04465   0.67275   0.56416   0.00000  Uiso   1.00
C97    C     0.21643   0.66838   0.57219   0.00000  Uiso   1.00
C98    C     0.71224   0.62899   0.57991   0.00000  Uiso   1.00
C99    C     0.65603   0.60589   0.54584   0.00000  Uiso   1.00
C100   C     0.62158   0.56611   0.56078   0.00000  Uiso   1.00
C101   C     0.54847   0.50004   0.56686   0.00000  Uiso   1.00
C102   C     0.71611   0.70134   0.61269   0.00000  Uiso   1.00
C103   C     0.66314   0.73908   0.60618   0.00000  Uiso   1.00
C104   C     0.63193   0.76022   0.64871   0.00000  Uiso   1.00
C105   C     0.56483   0.80650   0.70569   0.00000  Uiso   1.00
C106   C     0.79599   0.64355   0.65848   0.00000  Uiso   1.00
C107   C     0.89098   0.65268   0.62850   0.00000  Uiso   1.00
C108   C     0.98920   0.64635   0.64455   0.00000  Uiso   1.00
C109   C     0.06573   0.65666   0.61157   0.00000  Uiso   1.00
C110   C     0.73328   0.61293   0.62723   0.00000  Uiso   1.00
C111   C     0.69890   0.57318   0.64223   0.00000  Uiso   1.00
C112   C     0.64266   0.55002   0.60818   0.00000  Uiso   1.00
C113   C     0.73715   0.68529   0.66001   0.00000  Uiso   1.00
C114   C     0.70601   0.70637   0.70257   0.00000  Uiso   1.00
C115   C     0.65301   0.74413   0.69612   0.00000  Uiso   1.00
H116   H     0.74086   0.68561   0.53452   0.00000  Uiso   1.00
H117   H     0.93002   0.69148   0.51154   0.00000  Uiso   1.00
H118   H     0.63975   0.61833   0.50922   0.00000  Uiso   1.00
H119   H     0.64687   0.75150   0.56955   0.00000  Uiso   1.00
H120   H     0.14902   0.69090   0.50693   0.00000  Uiso   1.00
H121   H     0.53695   0.53665   0.50204   0.00000  Uiso   1.00
H122   H     0.55194   0.81747   0.62926   0.00000  Uiso   1.00
H123   H     0.81237   0.63104   0.69532   0.00000  Uiso   1.00
H124   H     0.00546   0.63392   0.68117   0.00000  Uiso   1.00
H125   H     0.71519   0.56076   0.67885   0.00000  Uiso   1.00
H126   H     0.72231   0.69393   0.73918   0.00000  Uiso   1.00
H127   H     0.21025   0.64417   0.64461   0.00000  Uiso   1.00
H128   H     0.59817   0.48992   0.63972   0.00000  Uiso   1.00
H129   H     0.61317   0.77074   0.76694   0.00000  Uiso   1.00
O130   O     0.30536   0.67040   0.56355   0.00000  Uiso   1.00
O131   O     0.50233   0.46804   0.55714   0.00000  Uiso   1.00
O132   O     0.52201   0.83646   0.72405   0.00000  Uiso   1.00
N133   N     0.13693   0.67951   0.54128   0.00000  Uiso   1.00
N134   N     0.56469   0.53530   0.53671   0.00000  Uiso   1.00
N135   N     0.57869   0.79783   0.65565   0.00000  Uiso   1.00
N136   N     0.16988   0.65437   0.61536   0.00000  Uiso   1.00
N137   N     0.59764   0.51016   0.61079   0.00000  Uiso   1.00
N138   N     0.61164   0.77269   0.72973   0.00000  Uiso   1.00
C139   C     0.25724   0.17311   0.07136   0.00000  Uiso   1.00
C140   C     0.36994   0.16874   0.08118   0.00000  Uiso   1.00
C141   C     0.44633   0.17906   0.04816   0.00000  Uiso   1.00
C142   C     0.54465   0.17275   0.06416   0.00000  Uiso   1.00
C143   C     0.71643   0.16838   0.07219   0.00000  Uiso   1.00
C144   C     0.21224   0.12899   0.07991   0.00000  Uiso   1.00
C145   C     0.15603   0.10589   0.04584   0.00000  Uiso   1.00
C146   C     0.12158   0.06611   0.06078   0.00000  Uiso   1.00
C147   C     0.04847   0.00004   0.06686   0.00000  Uiso   1.00
C148   C     0.21611   0.20134   0.11269   0.00000  Uiso   1.00
C149   C     0.16314   0.23908   0.10618   0.00000  Uiso   1.00
C150   C     0.13193   0.26022   0.14871   0.00000  Uiso   1.00
C151   C     0.06483   0.30650   0.20569   0.00000  Uiso   1.00
C152   C     0.29599   0.14355   0.15848   0.00000  Uiso   1.00
C153   C     0.39098   0.15268   0.12850   0.00000  Uiso   1.00
C154   C     0.48920   0.14635   0.14455   0.00000  Uiso   1.00
C155   C     0.56573   0.15666   0.11157   0.00000  Uiso   1.00
C156   C     0.23328   0.11293   0.12723   0.00000  Uiso   1.00
C157   C     0.19890   0.07318   0.14223   0.00000  Uiso   1.00
C158   C     0.14266   0.05002   0.10818   0.00000  Uiso   1.00
C159   C     0.23715   0.18529   0.16001   0.00000  Uiso   1.00
C160   C     0.20601   0.20637   0.20257   0.00000  Uiso   1.00
C161   C     0.15301   0.24413   0.19612   0.00000  Uiso   1.00
H162   H     0.24086   0.18561   0.03452   0.00000  Uiso   1.00
H163   H     0.43002   0.19148   0.01154   0.00000  Uiso   1.00
H164   H     0.13975   0.11833   0.00922   0.00000  Uiso   1.00
H165   H     0.14687   0.25150   0.06955   0.00000  Uiso   1.00
H166   H     0.64902   0.19090   0.00693   0.00000  Uiso   1.00
H167   H     0.03695   0.03665   0.00204   0.00000  Uiso   1.00
H168   H     0.05194   0.31747   0.12926   0.00000  Uiso   1.00
H169   H     0.31237   0.13104   0.19532   0.00000  Uiso   1.00
H170   H     0.50546   0.13392   0.18117   0.00000  Uiso   1.00
H171   H     0.21519   0.06076   0.17885   0.00000  Uiso   1.00
H172   H     0.22231   0.19393   0.23918   0.00000  Uiso   1.00
H173   H     0.71025   0.14417   0.14461   0.00000  Uiso   1.00
H174   H     0.09817   0.98992   0.13972   0.00000  Uiso   1.00
H175   H     0.11317   0.27074   0.26694   0.00000  Uiso   1.00
O176   O     0.80536   0.17040   0.06355   0.00000  Uiso   1.00
O177   O     0.00233   0.96804   0.05714   0.00000  Uiso   1.00
O178   O     0.02201   0.33646   0.22405   0.00000  Uiso   1.00
N179   N     0.63693   0.17951   0.04128   0.00000  Uiso   1.00
N180   N     0.06469   0.03530   0.03671   0.00000  Uiso   1.00
N181   N     0.07869   0.29783   0.15565   0.00000  Uiso   1.00
N182   N     0.66988   0.15437   0.11536   0.00000  Uiso   1.00
N183   N     0.09764   0.01016   0.11079   0.00000  Uiso   1.00
N184   N     0.11164   0.27269   0.22973   0.00000  Uiso   1.00
C185   C     0.25724   0.82689   0.42864   0.00000  Uiso   1.00
C186   C     0.36994   0.83126   0.41882   0.00000  Uiso   1.00
C187   C     0.44633   0.82094   0.45184   0.00000  Uiso   1.00
C188   C     0.54465   0.82725   0.43584   0.00000  Uiso   1.00
C189   C     0.71643   0.83162   0.42781   0.00000  Uiso   1.00
C190   C     0.21224   0.87101   0.42009   0.00000  Uiso   1.00
C191   C     0.15603   0.89411   0.45416   0.00000  Uiso   1.00
C192   C     0.12158   0.93389   0.43922   0.00000  Uiso   1.00
C193   C     0.04847   0.99996   0.43314   0.00000  Uiso   1.00
C194   C     0.21611   0.79866   0.38731   0.00000  Uiso   1.00
C195   C     0.16314   0.76092   0.39382   0.00000  Uiso   1.00
C196   C     0.13193   0.73978   0.35129   0.00000  Uiso   1.00
C197   C     0.06483   0.69350   0.29431   0.00000  Uiso   1.00
C198   C     0.29599   0.85645   0.34152   0.00000  Uiso   1.00
C199   C     0.39098   0.84732   0.37150   0.00000  Uiso   1.00
C200   C     0.48920   0.85365   0.35545   0.00000  Uiso   1.00
C201   C     0.56573   0.84334   0.38843   0.00000  Uiso   1.00
C202   C     0.23328   0.88707   0.37277   0.00000  Uiso   1.00
C203   C     0.19890   0.92682   0.35777   0.00000  Uiso   1.00
C204   C     0.14266   0.94998   0.39182   0.00000  Uiso   1.00
C205   C     0.23715   0.81471   0.33999   0.00000  Uiso   1.00
C206   C     0.20601   0.79363   0.29743   0.00000  Uiso   1.00
C207   C     0.15301   0.75587   0.30388   0.00000  Uiso   1.00
H208   H     0.24086   0.81439   0.46548   0.00000  Uiso   1.00
H209   H     0.43002   0.80852   0.48846   0.00000  Uiso   1.00
H210   H     0.13975   0.88167   0.49078   0.00000  Uiso   1.00
H211   H     0.14687   0.74850   0.43045   0.00000  Uiso   1.00
H212   H     0.64902   0.80910   0.49307   0.00000  Uiso   1.00
H213   H     0.03695   0.96335   0.49796   0.00000  Uiso   1.00
H214   H     0.05194   0.68253   0.37074   0.00000  Uiso   1.00
H215   H     0.31237   0.86896   0.30468   0.00000  Uiso   1.00
H216   H     0.50546   0.86608   0.31883   0.00000  Uiso   1.00
H217   H     0.21519   0.93924   0.32115   0.00000  Uiso   1.00
H218   H     0.22231   0.80607   0.26082   0.00000  Uiso   1.00
H219   H     0.71025   0.85583   0.35539   0.00000  Uiso   1.00
H220   H     0.09817   0.01008   0.36028   0.00000  Uiso   1.00
H221   H     0.11317   0.72926   0.23306   0.00000  Uiso   1.00
O222   O     0.80536   0.82960   0.43645   0.00000  Uiso   1.00
O223   O     0.00233   0.03196   0.44286   0.00000  Uiso   1.00
O224   O     0.02201   0.66354   0.27595   0.00000  Uiso   1.00
N225   N     0.63693   0.82049   0.45872   0.00000  Uiso   1.00
N226   N     0.06469   0.96470   0.46329   0.00000  Uiso   1.00
N227   N     0.07869   0.70217   0.34435   0.00000  Uiso   1.00
N228   N     0.66988   0.84563   0.38464   0.00000  Uiso   1.00
N229   N     0.09764   0.98984   0.38921   0.00000  Uiso   1.00
N230   N     0.11164   0.72731   0.27027   0.00000  Uiso   1.00
C231   C     0.75724   0.32689   0.92864   0.00000  Uiso   1.00
C232   C     0.86994   0.33126   0.91882   0.00000  Uiso   1.00
C233   C     0.94633   0.32094   0.95184   0.00000  Uiso   1.00
C234   C     0.04465   0.32725   0.93584   0.00000  Uiso   1.00
C235   C     0.21643   0.33162   0.92781   0.00000  Uiso   1.00
C236   C     0.71224   0.37101   0.92009   0.00000  Uiso   1.00
C237   C     0.65603   0.39411   0.95416   0.00000  Uiso   1.00
C238   C     0.62158   0.43389   0.93922   0.00000  Uiso   1.00
C239   C     0.54847   0.49996   0.93314   0.00000  Uiso   1.00
C240   C     0.71611   0.29866   0.88731   0.00000  Uiso   1.00
C241   C     0.66314   0.26092   0.89382   0.00000  Uiso   1.00
C242   C     0.63193   0.23978   0.85129   0.00000  Uiso   1.00
C243   C     0.56483   0.19350   0.79431   0.00000  Uiso   1.00
C244   C     0.79599   0.35645   0.84152   0.00000  Uiso   1.00
C245   C     0.89098   0.34732   0.87150   0.00000  Uiso   1.00
C246   C     0.98920   0.35365   0.85545   0.00000  Uiso   1.00
C247   C     0.06573   0.34334   0.88843   0.00000  Uiso   1.00
C248   C     0.73328   0.38707   0.87277   0.00000  Uiso   1.00
C249   C     0.69890   0.42682   0.85777   0.00000  Uiso   1.00
C250   C     0.64266   0.44998   0.89182   0.00000  Uiso   1.00
C251   C     0.73715   0.31471   0.83999   0.00000  Uiso   1.00
C252   C     0.70601   0.29363   0.79743   0.00000  Uiso   1.00
C253   C     0.65301   0.25587   0.80388   0.00000  Uiso   1.00
H254   H     0.74086   0.31439   0.96548   0.00000  Uiso   1.00
H255   H     0.93002   0.30852   0.98846   0.00000  Uiso   1.00
H256   H     0.63975   0.38167   0.99078   0.00000  Uiso   1.00
H257   H     0.64687   0.24850   0.93045   0.00000  Uiso   1.00
H258   H     0.14902   0.30910   0.99307   0.00000  Uiso   1.00
H259   H     0.53695   0.46335   0.99796   0.00000  Uiso   1.00
H260   H     0.55194   0.18253   0.87074   0.00000  Uiso   1.00
H261   H     0.81237   0.36896   0.80468   0.00000  Uiso   1.00
H262   H     0.00546   0.36608   0.81883   0.00000  Uiso   1.00
H263   H     0.71519   0.43924   0.82115   0.00000  Uiso   1.00
H264   H     0.72231   0.30607   0.76082   0.00000  Uiso   1.00
H265   H     0.21025   0.35583   0.85539   0.00000  Uiso   1.00
H266   H     0.59817   0.51008   0.86028   0.00000  Uiso   1.00
H267   H     0.61317   0.22926   0.73306   0.00000  Uiso   1.00
O268   O     0.30536   0.32960   0.93645   0.00000  Uiso   1.00
O269   O     0.50233   0.53196   0.94286   0.00000  Uiso   1.00
O270   O     0.52201   0.16354   0.77595   0.00000  Uiso   1.00
N271   N     0.13693   0.32049   0.95872   0.00000  Uiso   1.00
N272   N     0.56469   0.46470   0.96329   0.00000  Uiso   1.00
N273   N     0.57869   0.20217   0.84435   0.00000  Uiso   1.00
N274   N     0.16988   0.34563   0.88464   0.00000  Uiso   1.00
N275   N     0.59764   0.48984   0.88921   0.00000  Uiso   1.00
N276   N     0.61164   0.22731   0.77027   0.00000  Uiso   1.00
C277   C     0.24276   0.17311   0.92864   0.00000  Uiso   1.00
C278   C     0.13006   0.16874   0.91882   0.00000  Uiso   1.00
C279   C     0.05367   0.17906   0.95184   0.00000  Uiso   1.00
C280   C     0.95535   0.17275   0.93584   0.00000  Uiso   1.00
C281   C     0.78357   0.16838   0.92781   0.00000  Uiso   1.00
C282   C     0.28776   0.12899   0.92009   0.00000  Uiso   1.00
C283   C     0.34397   0.10589   0.95416   0.00000  Uiso   1.00
C284   C     0.37842   0.06611   0.93922   0.00000  Uiso   1.00
C285   C     0.45153   0.00004   0.93314   0.00000  Uiso   1.00
C286   C     0.28389   0.20134   0.88731   0.00000  Uiso   1.00
C287   C     0.33686   0.23908   0.89382   0.00000  Uiso   1.00
C288   C     0.36807   0.26022   0.85129   0.00000  Uiso   1.00
C289   C     0.43517   0.30650   0.79431   0.00000  Uiso   1.00
C290   C     0.20401   0.14355   0.84152   0.00000  Uiso   1.00
C291   C     0.10902   0.15268   0.87150   0.00000  Uiso   1.00
C292   C     0.01080   0.14635   0.85545   0.00000  Uiso   1.00
C293   C     0.93427   0.15666   0.88843   0.00000  Uiso   1.00
C294   C     0.26672   0.11293   0.87277   0.00000  Uiso   1.00
C295   C     0.30110   0.07318   0.85777   0.00000  Uiso   1.00
C296   C     0.35734   0.05002   0.89182   0.00000  Uiso   1.00
C297   C     0.26285   0.18529   0.83999   0.00000  Uiso   1.00
C298   C     0.29399   0.20637   0.79743   0.00000  Uiso   1.00
C299   C     0.34699   0.24413   0.80388   0.00000  Uiso   1.00
H300   H     0.25914   0.18561   0.96548   0.00000  Uiso   1.00
H301   H     0.06998   0.19148   0.98846   0.00000  Uiso   1.00
H302   H     0.36025   0.11833   0.99078   0.00000  Uiso   1.00
H303   H     0.35313   0.25150   0.93045   0.00000  Uiso   1.00
H304   H     0.85098   0.19090   0.99307   0.00000  Uiso   1.00
H305   H     0.46305   0.03665   0.99796   0.00000  Uiso   1.00
H306   H     0.44806   0.31747   0.87074   0.00000  Uiso   1.00
H307   H     0.18763   0.13104   0.80468   0.00000  Uiso   1.00
H308   H     0.99454   0.13392   0.81883   0.00000  Uiso   1.00
H309   H     0.28481   0.06076   0.82115   0.00000  Uiso   1.00
H310   H     0.27769   0.19393   0.76082   0.00000  Uiso   1.00
H311   H     0.78975   0.14417   0.85539   0.00000  Uiso   1.00
H312   H     0.40183   0.98992   0.86028   0.00000  Uiso   1.00
H313   H     0.38683   0.27074   0.73306   0.00000  Uiso   1.00
O314   O     0.69464   0.17040   0.93645   0.00000  Uiso   1.00
O315   O     0.49767   0.96804   0.94286   0.00000  Uiso   1.00
O316   O     0.47799   0.33646   0.77595   0.00000  Uiso   1.00
N317   N     0.86307   0.17951   0.95872   0.00000  Uiso   1.00
N318   N     0.43531   0.03530   0.96329   0.00000  Uiso   1.00
N319   N     0.42131   0.29783   0.84435   0.00000  Uiso   1.00
N320   N     0.83012   0.15437   0.88464   0.00000  Uiso   1.00
N321   N     0.40236   0.01016   0.88921   0.00000  Uiso   1.00
N322   N     0.38836   0.27269   0.77027   0.00000  Uiso   1.00
C323   C     0.74276   0.67311   0.42864   0.00000  Uiso   1.00
C324   C     0.63006   0.66874   0.41882   0.00000  Uiso   1.00
C325   C     0.55367   0.67906   0.45184   0.00000  Uiso   1.00
C326   C     0.45535   0.67275   0.43584   0.00000  Uiso   1.00
C327   C     0.28357   0.66838   0.42781   0.00000  Uiso   1.00
C328   C     0.78776   0.62899   0.42009   0.00000  Uiso   1.00
C329   C     0.84397   0.60589   0.45416   0.00000  Uiso   1.00
C330   C     0.87842   0.56611   0.43922   0.00000  Uiso   1.00
C331   C     0.95153   0.50004   0.43314   0.00000  Uiso   1.00
C332   C     0.78389   0.70134   0.38731   0.00000  Uiso   1.00
C333   C     0.83686   0.73908   0.39382   0.00000  Uiso   1.00
C334   C     0.86807   0.76022   0.35129   0.00000  Uiso   1.00
C335   C     0.93517   0.80650   0.29431   0.00000  Uiso   1.00
C336   C     0.70401   0.64355   0.34152   0.00000  Uiso   1.00
C337   C     0.60902   0.65268   0.37150   0.00000  Uiso   1.00
C338   C     0.51080   0.64635   0.35545   0.00000  Uiso   1.00
C339   C     0.43427   0.65666   0.38843   0.00000  Uiso   1.00
C340   C     0.76672   0.61293   0.37277   0.00000  Uiso   1.00
C341   C     0.80110   0.57318   0.35777   0.00000  Uiso   1.00
C342   C     0.85734   0.55002   0.39182   0.00000  Uiso   1.00
C343   C     0.76285   0.68529   0.33999   0.00000  Uiso   1.00
C344   C     0.79399   0.70637   0.29743   0.00000  Uiso   1.00
C345   C     0.84699   0.74413   0.30388   0.00000  Uiso   1.00
H346   H     0.75914   0.68561   0.46548   0.00000  Uiso   1.00
H347   H     0.56998   0.69148   0.48846   0.00000  Uiso   1.00
H348   H     0.86025   0.61833   0.49078   0.00000  Uiso   1.00
H349   H     0.85313   0.75150   0.43045   0.00000  Uiso   1.00
H350   H     0.35098   0.69090   0.49307   0.00000  Uiso   1.00
H351   H     0.96305   0.53665   0.49796   0.00000  Uiso   1.00
H352   H     0.94806   0.81747   0.37074   0.00000  Uiso   1.00
H353   H     0.68763   0.63104   0.30468   0.00000  Uiso   1.00
H354   H     0.49454   0.63392   0.31883   0.00000  Uiso   1.00
H355   H     0.78481   0.56076   0.32115   0.00000  Uiso   1.00
H356   H     0.77769   0.69393   0.26082   0.00000  Uiso   1.00
H357   H     0.28975   0.64417   0.35539   0.00000  Uiso   1.00
H358   H     0.90183   0.48992   0.36028   0.00000  Uiso   1.00
H359   H     0.88683   0.77074   0.23306   0.00000  Uiso   1.00
O360   O     0.19464   0.67040   0.43645   0.00000  Uiso   1.00
O361   O     0.99767   0.46804   0.44286   0.00000  Uiso   1.00
O362   O     0.97799   0.83646   0.27595   0.00000  Uiso   1.00
N363   N     0.36307   0.67951   0.45872   0.00000  Uiso   1.00
N364   N     0.93531   0.53530   0.46329   0.00000  Uiso   1.00
N365   N     0.92131   0.79783   0.34435   0.00000  Uiso   1.00
N366   N     0.33012   0.65437   0.38464   0.00000  Uiso   1.00
N367   N     0.90236   0.51016   0.38921   0.00000  Uiso   1.00
N368   N     0.88836   0.77269   0.27027   0.00000  Uiso   1.00
C369   C     0.25724   0.67311   0.92864   0.00000  Uiso   1.00
C370   C     0.36994   0.66874   0.91882   0.00000  Uiso   1.00
C371   C     0.44633   0.67906   0.95184   0.00000  Uiso   1.00
C372   C     0.54465   0.67275   0.93584   0.00000  Uiso   1.00
C373   C     0.71643   0.66838   0.92781   0.00000  Uiso   1.00
C374   C     0.21224   0.62899   0.92009   0.00000  Uiso   1.00
C375   C     0.15603   0.60589   0.95416   0.00000  Uiso   1.00
C376   C     0.12158   0.56611   0.93922   0.00000  Uiso   1.00
C377   C     0.04847   0.50004   0.93314   0.00000  Uiso   1.00
C378   C     0.21611   0.70134   0.88731   0.00000  Uiso   1.00
C379   C     0.16314   0.73908   0.89382   0.00000  Uiso   1.00
C380   C     0.13193   0.76022   0.85129   0.00000  Uiso   1.00
C381   C     0.06483   0.80650   0.79431   0.00000  Uiso   1.00
C382   C     0.29599   0.64355   0.84152   0.00000  Uiso   1.00
C383   C     0.39098   0.65268   0.87150   0.00000  Uiso   1.00
C384   C     0.48920   0.64635   0.85545   0.00000  Uiso   1.00
C385   C     0.56573   0.65666   0.88843   0.00000  Uiso   1.00
C386   C     0.23328   0.61293   0.87277   0.00000  Uiso   1.00
C387   C     0.19890   0.57318   0.85777   0.00000  Uiso   1.00
C388   C     0.14266   0.55002   0.89182   0.00000  Uiso   1.00
C389   C     0.23715   0.68529   0.83999   0.00000  Uiso   1.00
C390   C     0.20601   0.70637   0.79743   0.00000  Uiso   1.00
C391   C     0.15301   0.74413   0.80388   0.00000  Uiso   1.00
H392   H     0.24086   0.68561   0.96548   0.00000  Uiso   1.00
H393   H     0.43002   0.69148   0.98846   0.00000  Uiso   1.00
H394   H     0.13975   0.61833   0.99078   0.00000  Uiso   1.00
H395   H     0.14687   0.75150   0.93045   0.00000  Uiso   1.00
H396   H     0.64902   0.69090   0.99307   0.00000  Uiso   1.00
H397   H     0.03695   0.53665   0.99796   0.00000  Uiso   1.00
H398   H     0.05194   0.81747   0.87074   0.00000  Uiso   1.00
H399   H     0.31237   0.63104   0.80468   0.00000  Uiso   1.00
H400   H     0.50546   0.63392   0.81883   0.00000  Uiso   1.00
H401   H     0.21519   0.56076   0.82115   0.00000  Uiso   1.00
H402   H     0.22231   0.69393   0.76082   0.00000  Uiso   1.00
H403   H     0.71025   0.64417   0.85539   0.00000  Uiso   1.00
H404   H     0.09817   0.48992   0.86028   0.00000  Uiso   1.00
H405   H     0.11317   0.77074   0.73306   0.00000  Uiso   1.00
O406   O     0.80536   0.67040   0.93645   0.00000  Uiso   1.00
O407   O     0.00233   0.46804   0.94286   0.00000  Uiso   1.00
O408   O     0.02201   0.83646   0.77595   0.00000  Uiso   1.00
N409   N     0.63693   0.67951   0.95872   0.00000  Uiso   1.00
N410   N     0.06469   0.53530   0.96329   0.00000  Uiso   1.00
N411   N     0.07869   0.79783   0.84435   0.00000  Uiso   1.00
N412   N     0.66988   0.65437   0.88464   0.00000  Uiso   1.00
N413   N     0.09764   0.51016   0.88921   0.00000  Uiso   1.00
N414   N     0.11164   0.77269   0.77027   0.00000  Uiso   1.00
C415   C     0.75724   0.17311   0.42864   0.00000  Uiso   1.00
C416   C     0.86994   0.16874   0.41882   0.00000  Uiso   1.00
C417   C     0.94633   0.17906   0.45184   0.00000  Uiso   1.00
C418   C     0.04465   0.17275   0.43584   0.00000  Uiso   1.00
C419   C     0.21643   0.16838   0.42781   0.00000  Uiso   1.00
C420   C     0.71224   0.12899   0.42009   0.00000  Uiso   1.00
C421   C     0.65603   0.10589   0.45416   0.00000  Uiso   1.00
C422   C     0.62158   0.06611   0.43922   0.00000  Uiso   1.00
C423   C     0.54847   0.00004   0.43314   0.00000  Uiso   1.00
C424   C     0.71611   0.20134   0.38731   0.00000  Uiso   1.00
C425   C     0.66314   0.23908   0.39382   0.00000  Uiso   1.00
C426   C     0.63193   0.26022   0.35129   0.00000  Uiso   1.00
C427   C     0.56483   0.30650   0.29431   0.00000  Uiso   1.00
C428   C     0.79599   0.14355   0.34152   0.00000  Uiso   1.00
C429   C     0.89098   0.15268   0.37150   0.00000  Uiso   1.00
C430   C     0.98920   0.14635   0.35545   0.00000  Uiso   1.00
C431   C     0.06573   0.15666   0.38843   0.00000  Uiso   1.00
C432   C     0.73328   0.11293   0.37277   0.00000  Uiso   1.00
C433   C     0.69890   0.07318   0.35777   0.00000  Uiso   1.00
C434   C     0.64266   0.05002   0.39182   0.00000  Uiso   1.00
C435   C     0.73715   0.18529   0.33999   0.00000  Uiso   1.00
C436   C     0.70601   0.20637   0.29743   0.00000  Uiso   1.00
C437   C     0.65301   0.24413   0.30388   0.00000  Uiso   1.00
H438   H     0.74086   0.18561   0.46548   0.00000  Uiso   1.00
H439   H     0.93002   0.19148   0.48846   0.00000  Uiso   1.00
H440   H     0.63975   0.11833   0.49078   0.00000  Uiso   1.00
H441   H     0.64687   0.25150   0.43045   0.00000  Uiso   1.00
H442   H     0.14902   0.19090   0.49307   0.00000  Uiso   1.00
H443   H     0.53695   0.03665   0.49796   0.00000  Uiso   1.00
H444   H     0.55194   0.31747   0.37074   0.00000  Uiso   1.00
H445   H     0.81237   0.13104   0.30468   0.00000  Uiso   1.00
H446   H     0.00546   0.13392   0.31883   0.00000  Uiso   1.00
H447   H     0.71519   0.06076   0.32115   0.00000  Uiso   1.00
H448   H     0.72231   0.19393   0.26082   0.00000  Uiso   1.00
H449   H     0.21025   0.14417   0.35539   0.00000  Uiso   1.00
H450   H     0.59817   0.98992   0.36028   0.00000  Uiso   1.00
H451   H     0.61317   0.27074   0.23306   0.00000  Uiso   1.00
O452   O     0.30536   0.17040   0.43645   0.00000  Uiso   1.00
O453   O     0.50233   0.96804   0.44286   0.00000  Uiso   1.00
O454   O     0.52201   0.33646   0.27595   0.00000  Uiso   1.00
N455   N     0.13693   0.17951   0.45872   0.00000  Uiso   1.00
N456   N     0.56469   0.03530   0.46329   0.00000  Uiso   1.00
N457   N     0.57869   0.29783   0.34435   0.00000  Uiso   1.00
N458   N     0.16988   0.15437   0.38464   0.00000  Uiso   1.00
N459   N     0.59764   0.01016   0.38921   0.00000  Uiso   1.00
N460   N     0.61164   0.27269   0.27027   0.00000  Uiso   1.00
C461   C     0.24276   0.32689   0.42864   0.00000  Uiso   1.00
C462   C     0.13006   0.33126   0.41882   0.00000  Uiso   1.00
C463   C     0.05367   0.32094   0.45184   0.00000  Uiso   1.00
C464   C     0.95535   0.32725   0.43584   0.00000  Uiso   1.00
C465   C     0.78357   0.33162   0.42781   0.00000  Uiso   1.00
C466   C     0.28776   0.37101   0.42009   0.00000  Uiso   1.00
C467   C     0.34397   0.39411   0.45416   0.00000  Uiso   1.00
C468   C     0.37842   0.43389   0.43922   0.00000  Uiso   1.00
C469   C     0.45153   0.49996   0.43314   0.00000  Uiso   1.00
C470   C     0.28389   0.29866   0.38731   0.00000  Uiso   1.00
C471   C     0.33686   0.26092   0.39382   0.00000  Uiso   1.00
C472   C     0.36807   0.23978   0.35129   0.00000  Uiso   1.00
C473   C     0.43517   0.19350   0.29431   0.00000  Uiso   1.00
C474   C     0.20401   0.35645   0.34152   0.00000  Uiso   1.00
C475   C     0.10902   0.34732   0.37150   0.00000  Uiso   1.00
C476   C     0.01080   0.35365   0.35545   0.00000  Uiso   1.00
C477   C     0.93427   0.34334   0.38843   0.00000  Uiso   1.00
C478   C     0.26672   0.38707   0.37277   0.00000  Uiso   1.00
C479   C     0.30110   0.42682   0.35777   0.00000  Uiso   1.00
C480   C     0.35734   0.44998   0.39182   0.00000  Uiso   1.00
C481   C     0.26285   0.31471   0.33999   0.00000  Uiso   1.00
C482   C     0.29399   0.29363   0.29743   0.00000  Uiso   1.00
C483   C     0.34699   0.25587   0.30388   0.00000  Uiso   1.00
H484   H     0.25914   0.31439   0.46548   0.00000  Uiso   1.00
H485   H     0.06998   0.30852   0.48846   0.00000  Uiso   1.00
H486   H     0.36025   0.38167   0.49078   0.00000  Uiso   1.00
H487   H     0.35313   0.24850   0.43045   0.00000  Uiso   1.00
H488   H     0.85098   0.30910   0.49307   0.00000  Uiso   1.00
H489   H     0.46305   0.46335   0.49796   0.00000  Uiso   1.00
H490   H     0.44806   0.18253   0.37074   0.00000  Uiso   1.00
H491   H     0.18763   0.36896   0.30468   0.00000  Uiso   1.00
H492   H     0.99454   0.36608   0.31883   0.00000  Uiso   1.00
H493   H     0.28481   0.43924   0.32115   0.00000  Uiso   1.00
H494   H     0.27769   0.30607   0.26082   0.00000  Uiso   1.00
H495   H     0.78975   0.35583   0.35539   0.00000  Uiso   1.00
H496   H     0.40183   0.51008   0.36028   0.00000  Uiso   1.00
H497   H     0.38683   0.22926   0.23306   0.00000  Uiso   1.00
O498   O     0.69464   0.32960   0.43645   0.00000  Uiso   1.00
O499   O     0.49767   0.53196   0.44286   0.00000  Uiso   1.00
O500   O     0.47799   0.16354   0.27595   0.00000  Uiso   1.00
N501   N     0.86307   0.32049   0.45872   0.00000  Uiso   1.00
N502   N     0.43531   0.46470   0.46329   0.00000  Uiso   1.00
N503   N     0.42131   0.20217   0.34435   0.00000  Uiso   1.00
N504   N     0.83012   0.34563   0.38464   0.00000  Uiso   1.00
N505   N     0.40236   0.48984   0.38921   0.00000  Uiso   1.00
N506   N     0.38836   0.22731   0.27027   0.00000  Uiso   1.00
C507   C     0.74276   0.82689   0.92864   0.00000  Uiso   1.00
C508   C     0.63006   0.83126   0.91882   0.00000  Uiso   1.00
C509   C     0.55367   0.82094   0.95184   0.00000  Uiso   1.00
C510   C     0.45535   0.82725   0.93584   0.00000  Uiso   1.00
C511   C     0.28357   0.83162   0.92781   0.00000  Uiso   1.00
C512   C     0.78776   0.87101   0.92009   0.00000  Uiso   1.00
C513   C     0.84397   0.89411   0.95416   0.00000  Uiso   1.00
C514   C     0.87842   0.93389   0.93922   0.00000  Uiso   1.00
C515   C     0.95153   0.99996   0.93314   0.00000  Uiso   1.00
C516   C     0.78389   0.79866   0.88731   0.00000  Uiso   1.00
C517   C     0.83686   0.76092   0.89382   0.00000  Uiso   1.00
C518   C     0.86807   0.73978   0.85129   0.00000  Uiso   1.00
C519   C     0.93517   0.69350   0.79431   0.00000  Uiso   1.00
C520   C     0.70401   0.85645   0.84152   0.00000  Uiso   1.00
C521   C     0.60902   0.84732   0.87150   0.00000  Uiso   1.00
C522   C     0.51080   0.85365   0.85545   0.00000  Uiso   1.00
C523   C     0.43427   0.84334   0.88843   0.00000  Uiso   1.00
C524   C     0.76672   0.88707   0.87277   0.00000  Uiso   1.00
C525   C     0.80110   0.92682   0.85777   0.00000  Uiso   1.00
C526   C     0.85734   0.94998   0.89182   0.00000  Uiso   1.00
C527   C     0.76285   0.81471   0.83999   0.00000  Uiso   1.00
C528   C     0.79399   0.79363   0.79743   0.00000  Uiso   1.00
C529   C     0.84699   0.75587   0.80388   0.00000  Uiso   1.00
H530   H     0.75914   0.81439   0.96548   0.00000  Uiso   1.00
H531   H     0.56998   0.80852   0.98846   0.00000  Uiso   1.00
H532   H     0.86025   0.88167   0.99078   0.00000  Uiso   1.00
H533   H     0.85313   0.74850   0.93045   0.00000  Uiso   1.00
H534   H     0.35098   0.80910   0.99307   0.00000  Uiso   1.00
H535   H     0.96305   0.96335   0.99796   0.00000  Uiso   1.00
H536   H     0.94806   0.68253   0.87074   0.00000  Uiso   1.00
H537   H     0.68763   0.86896   0.80468   0.00000  Uiso   1.00
H538   H     0.49454   0.86608   0.81883   0.00000  Uiso   1.00
H539   H     0.78481   0.93924   0.82115   0.00000  Uiso   1.00
H540   H     0.77769   0.80607   0.76082   0.00000  Uiso   1.00
H541   H     0.28975   0.85583   0.85539   0.00000  Uiso   1.00
H542   H     0.90183   0.01008   0.86028   0.00000  Uiso   1.00
H543   H     0.88683   0.72926   0.73306   0.00000  Uiso   1.00
O544   O     0.19464   0.82960   0.93645   0.00000  Uiso   1.00
O545   O     0.99767   0.03196   0.94286   0.00000  Uiso   1.00
O546   O     0.97799   0.66354   0.77595   0.00000  Uiso   1.00
N547   N     0.36307   0.82049   0.95872   0.00000  Uiso   1.00
N548   N     0.93531   0.96470   0.96329   0.00000  Uiso   1.00
N549   N     0.92131   0.70217   0.84435   0.00000  Uiso   1.00
N550   N     0.33012   0.84563   0.88464   0.00000  Uiso   1.00
N551   N     0.90236   0.98984   0.88921   0.00000  Uiso   1.00
N552   N     0.88836   0.72731   0.77027   0.00000  Uiso   1.00
C553   C     0.74276   0.17311   0.57136   0.00000  Uiso   1.00
C554   C     0.63006   0.16874   0.58118   0.00000  Uiso   1.00
C555   C     0.55367   0.17906   0.54816   0.00000  Uiso   1.00
C556   C     0.45535   0.17275   0.56416   0.00000  Uiso   1.00
C557   C     0.28357   0.16838   0.57219   0.00000  Uiso   1.00
C558   C     0.78776   0.12899   0.57991   0.00000  Uiso   1.00
C559   C     0.84397   0.10589   0.54584   0.00000  Uiso   1.00
C560   C     0.87842   0.06611   0.56078   0.00000  Uiso   1.00
C561   C     0.95153   0.00004   0.56686   0.00000  Uiso   1.00
C562   C     0.78389   0.20134   0.61269   0.00000  Uiso   1.00
C563   C     0.83686   0.23908   0.60618   0.00000  Uiso   1.00
C564   C     0.86807   0.26022   0.64871   0.00000  Uiso   1.00
C565   C     0.93517   0.30650   0.70569   0.00000  Uiso   1.00
C566   C     0.70401   0.14355   0.65848   0.00000  Uiso   1.00
C567   C     0.60902   0.15268   0.62850   0.00000  Uiso   1.00
C568   C     0.51080   0.14635   0.64455   0.00000  Uiso   1.00
C569   C     0.43427   0.15666   0.61157   0.00000  Uiso   1.00
C570   C     0.76672   0.11293   0.62723   0.00000  Uiso   1.00
C571   C     0.80110   0.07318   0.64223   0.00000  Uiso   1.00
C572   C     0.85734   0.05002   0.60818   0.00000  Uiso   1.00
C573   C     0.76285   0.18529   0.66001   0.00000  Uiso   1.00
C574   C     0.79399   0.20637   0.70257   0.00000  Uiso   1.00
C575   C     0.84699   0.24413   0.69612   0.00000  Uiso   1.00
H576   H     0.75914   0.18561   0.53452   0.00000  Uiso   1.00
H577   H     0.56998   0.19148   0.51154   0.00000  Uiso   1.00
H578   H     0.86025   0.11833   0.50922   0.00000  Uiso   1.00
H579   H     0.85313   0.25150   0.56955   0.00000  Uiso   1.00
H580   H     0.35098   0.19090   0.50693   0.00000  Uiso   1.00
H581   H     0.96305   0.03665   0.50204   0.00000  Uiso   1.00
H582   H     0.94806   0.31747   0.62926   0.00000  Uiso   1.00
H583   H     0.68763   0.13104   0.69532   0.00000  Uiso   1.00
H584   H     0.49454   0.13392   0.68117   0.00000  Uiso   1.00
H585   H     0.78481   0.06076   0.67885   0.00000  Uiso   1.00
H586   H     0.77769   0.19393   0.73918   0.00000  Uiso   1.00
H587   H     0.28975   0.14417   0.64461   0.00000  Uiso   1.00
H588   H     0.90183   0.98992   0.63972   0.00000  Uiso   1.00
H589   H     0.88683   0.27074   0.76694   0.00000  Uiso   1.00
O590   O     0.19464   0.17040   0.56355   0.00000  Uiso   1.00
O591   O     0.99767   0.96804   0.55714   0.00000  Uiso   1.00
O592   O     0.97799   0.33646   0.72405   0.00000  Uiso   1.00
N593   N     0.36307   0.17951   0.54128   0.00000  Uiso   1.00
N594   N     0.93531   0.03530   0.53671   0.00000  Uiso   1.00
N595   N     0.92131   0.29783   0.65565   0.00000  Uiso   1.00
N596   N     0.33012   0.15437   0.61536   0.00000  Uiso   1.00
N597   N     0.90236   0.01016   0.61079   0.00000  Uiso   1.00
N598   N     0.88836   0.27269   0.72973   0.00000  Uiso   1.00
C599   C     0.24276   0.67311   0.07136   0.00000  Uiso   1.00
C600   C     0.13006   0.66874   0.08118   0.00000  Uiso   1.00
C601   C     0.05367   0.67906   0.04816   0.00000  Uiso   1.00
C602   C     0.95535   0.67275   0.06416   0.00000  Uiso   1.00
C603   C     0.78357   0.66838   0.07219   0.00000  Uiso   1.00
C604   C     0.28776   0.62899   0.07991   0.00000  Uiso   1.00
C605   C     0.34397   0.60589   0.04584   0.00000  Uiso   1.00
C606   C     0.37842   0.56611   0.06078   0.00000  Uiso   1.00
C607   C     0.45153   0.50004   0.06686   0.00000  Uiso   1.00
C608   C     0.28389   0.70134   0.11269   0.00000  Uiso   1.00
C609   C     0.33686   0.73908   0.10618   0.00000  Uiso   1.00
C610   C     0.36807   0.76022   0.14871   0.00000  Uiso   1.00
C611   C     0.43517   0.80650   0.20569   0.00000  Uiso   1.00
C612   C     0.20401   0.64355   0.15848   0.00000  Uiso   1.00
C613   C     0.10902   0.65268   0.12850   0.00000  Uiso   1.00
C614   C     0.01080   0.64635   0.14455   0.00000  Uiso   1.00
C615   C     0.93427   0.65666   0.11157   0.00000  Uiso   1.00
C616   C     0.26672   0.61293   0.12723   0.00000  Uiso   1.00
C617   C     0.30110   0.57318   0.14223   0.00000  Uiso   1.00
C618   C     0.35734   0.55002   0.10818   0.00000  Uiso   1.00
C619   C     0.26285   0.68529   0.16001   0.00000  Uiso   1.00
C620   C     0.29399   0.70637   0.20257   0.00000  Uiso   1.00
C621   C     0.34699   0.74413   0.19612   0.00000  Uiso   1.00
H622   H     0.25914   0.68561   0.03452   0.00000  Uiso   1.00
H623   H     0.06998   0.69148   0.01154   0.00000  Uiso   1.00
H624   H     0.36025   0.61833   0.00922   0.00000  Uiso   1.00
H625   H     0.35313   0.75150   0.06955   0.00000  Uiso   1.00
H626   H     0.85098   0.69090   0.00693   0.00000  Uiso   1.00
H627   H     0.46305   0.53665   0.00204   0.00000  Uiso   1.00
H628   H     0.44806   0.81747   0.12926   0.00000  Uiso   1.00
H629   H     0.18763   0.63104   0.19532   0.00000  Uiso   1.00
H630   H     0.99454   0.63392   0.18117   0.00000  Uiso   1.00
H631   H     0.28481   0.56076   0.17885   0.00000  Uiso   1.00
H632   H     0.27769   0.69393   0.23918   0.00000  Uiso   1.00
H633   H     0.78975   0.64417   0.14461   0.00000  Uiso   1.00
H634   H     0.40183   0.48992   0.13972   0.00000  Uiso   1.00
H635   H     0.38683   0.77074   0.26694   0.00000  Uiso   1.00
O636   O     0.69464   0.67040   0.06355   0.00000  Uiso   1.00
O637   O     0.49767   0.46804   0.05714   0.00000  Uiso   1.00
O638   O     0.47799   0.83646   0.22405   0.00000  Uiso   1.00
N639   N     0.86307   0.67951   0.04128   0.00000  Uiso   1.00
N640   N     0.43531   0.53530   0.03671   0.00000  Uiso   1.00
N641   N     0.42131   0.79783   0.15565   0.00000  Uiso   1.00
N642   N     0.83012   0.65437   0.11536   0.00000  Uiso   1.00
N643   N     0.40236   0.51016   0.11079   0.00000  Uiso   1.00
N644   N     0.38836   0.77269   0.22973   0.00000  Uiso   1.00
C645   C     0.75724   0.82689   0.07136   0.00000  Uiso   1.00
C646   C     0.86994   0.83126   0.08118   0.00000  Uiso   1.00
C647   C     0.94633   0.82094   0.04816   0.00000  Uiso   1.00
C648   C     0.04465   0.82725   0.06416   0.00000  Uiso   1.00
C649   C     0.21643   0.83162   0.07219   0.00000  Uiso   1.00
C650   C     0.71224   0.87101   0.07991   0.00000  Uiso   1.00
C651   C     0.65603   0.89411   0.04584   0.00000  Uiso   1.00
C652   C     0.62158   0.93389   0.06078   0.00000  Uiso   1.00
C653   C     0.54847   0.99996   0.06686   0.00000  Uiso   1.00
C654   C     0.71611   0.79866   0.11269   0.00000  Uiso   1.00
C655   C     0.66314   0.76092   0.10618   0.00000  Uiso   1.00
C656   C     0.63193   0.73978   0.14871   0.00000  Uiso   1.00
C657   C     0.56483   0.69350   0.20569   0.00000  Uiso   1.00
C658   C     0.79599   0.85645   0.15848   0.00000  Uiso   1.00
C659   C     0.89098   0.84732   0.12850   0.00000  Uiso   1.00
C660   C     0.98920   0.85365   0.14455   0.00000  Uiso   1.00
C661   C     0.06573   0.84334   0.11157   0.00000  Uiso   1.00
C662   C     0.73328   0.88707   0.12723   0.00000  Uiso   1.00
C663   C     0.69890   0.92682   0.14223   0.00000  Uiso   1.00
C664   C     0.64266   0.94998   0.10818   0.00000  Uiso   1.00
C665   C     0.73715   0.81471   0.16001   0.00000  Uiso   1.00
C666   C     0.70601   0.79363   0.20257   0.00000  Uiso   1.00
C667   C     0.65301   0.75587   0.19612   0.00000  Uiso   1.00
H668   H     0.74086   0.81439   0.03452   0.00000  Uiso   1.00
H669   H     0.93002   0.80852   0.01154   0.00000  Uiso   1.00
H670   H     0.63975   0.88167   0.00922   0.00000  Uiso   1.00
H671   H     0.64687   0.74850   0.06955   0.00000  Uiso   1.00
H672   H     0.14902   0.80910   0.00693   0.00000  Uiso   1.00
H673   H     0.53695   0.96335   0.00204   0.00000  Uiso   1.00
H674   H     0.55194   0.68253   0.12926   0.00000  Uiso   1.00
H675   H     0.81237   0.86896   0.19532   0.00000  Uiso   1.00
H676   H     0.00546   0.86608   0.18117   0.00000  Uiso   1.00
H677   H     0.71519   0.93924   0.17885   0.00000  Uiso   1.00
H678   H     0.72231   0.80607   0.23918   0.00000  Uiso   1.00
H679   H     0.21025   0.85583   0.14461   0.00000  Uiso   1.00
H680   H     0.59817   0.01008   0.13972   0.00000  Uiso   1.00
H681   H     0.61317   0.72926   0.26694   0.00000  Uiso   1.00
O682   O     0.30536   0.82960   0.06355   0.00000  Uiso   1.00
O683   O     0.50233   0.03196   0.05714   0.00000  Uiso   1.00
O684   O     0.52201   0.66354   0.22405   0.00000  Uiso   1.00
N685   N     0.13693   0.82049   0.04128   0.00000  Uiso   1.00
N686   N     0.56469   0.96470   0.03671   0.00000  Uiso   1.00
N687   N     0.57869   0.70217   0.15565   0.00000  Uiso   1.00
N688   N     0.16988   0.84563   0.11536   0.00000  Uiso   1.00
N689   N     0.59764   0.98984   0.11079   0.00000  Uiso   1.00
N690   N     0.61164   0.72731   0.22973   0.00000  Uiso   1.00
C691   C     0.25724   0.32689   0.57136   0.00000  Uiso   1.00
C692   C     0.36994   0.33126   0.58118   0.00000  Uiso   1.00
C693   C     0.44633   0.32094   0.54816   0.00000  Uiso   1.00
C694   C     0.54465   0.32725   0.56416   0.00000  Uiso   1.00
C695   C     0.71643   0.33162   0.57219   0.00000  Uiso   1.00
C696   C     0.21224   0.37101   0.57991   0.00000  Uiso   1.00
C697   C     0.15603   0.39411   0.54584   0.00000  Uiso   1.00
C698   C     0.12158   0.43389   0.56078   0.00000  Uiso   1.00
C699   C     0.04847   0.49996   0.56686   0.00000  Uiso   1.00
C700   C     0.21611   0.29866   0.61269   0.00000  Uiso   1.00
C701   C     0.16314   0.26092   0.60618   0.00000  Uiso   1.00
C702   C     0.13193   0.23978   0.64871   0.00000  Uiso   1.00
C703   C     0.06483   0.19350   0.70569   0.00000  Uiso   1.00
C704   C     0.29599   0.35645   0.65848   0.00000  Uiso   1.00
C705   C     0.39098   0.34732   0.62850   0.00000  Uiso   1.00
C706   C     0.48920   0.35365   0.64455   0.00000  Uiso   1.00
C707   C     0.56573   0.34334   0.61157   0.00000  Uiso   1.00
C708   C     0.23328   0.38707   0.62723   0.00000  Uiso   1.00
C709   C     0.19890   0.42682   0.64223   0.00000  Uiso   1.00
C710   C     0.14266   0.44998   0.60818   0.00000  Uiso   1.00
C711   C     0.23715   0.31471   0.66001   0.00000  Uiso   1.00
C712   C     0.20601   0.29363   0.70257   0.00000  Uiso   1.00
C713   C     0.15301   0.25587   0.69612   0.00000  Uiso   1.00
H714   H     0.24086   0.31439   0.53452   0.00000  Uiso   1.00
H715   H     0.43002   0.30852   0.51154   0.00000  Uiso   1.00
H716   H     0.13975   0.38167   0.50922   0.00000  Uiso   1.00
H717   H     0.14687   0.24850   0.56955   0.00000  Uiso   1.00
H718   H     0.64902   0.30910   0.50693   0.00000  Uiso   1.00
H719   H     0.03695   0.46335   0.50204   0.00000  Uiso   1.00
H720   H     0.05194   0.18253   0.62926   0.00000  Uiso   1.00
H721   H     0.31237   0.36896   0.69532   0.00000  Uiso   1.00
H722   H     0.50546   0.36608   0.68117   0.00000  Uiso   1.00
H723   H     0.21519   0.43924   0.67885   0.00000  Uiso   1.00
H724   H     0.22231   0.30607   0.73918   0.00000  Uiso   1.00
H725   H     0.71025   0.35583   0.64461   0.00000  Uiso   1.00
H726   H     0.09817   0.51008   0.63972   0.00000  Uiso   1.00
H727   H     0.11317   0.22926   0.76694   0.00000  Uiso   1.00
O728   O     0.80536   0.32960   0.56355   0.00000  Uiso   1.00
O729   O     0.00233   0.53196   0.55714   0.00000  Uiso   1.00
O730   O     0.02201   0.16354   0.72405   0.00000  Uiso   1.00
N731   N     0.63693   0.32049   0.54128   0.00000  Uiso   1.00
N732   N     0.06469   0.46470   0.53671   0.00000  Uiso   1.00
N733   N     0.07869   0.20217   0.65565   0.00000  Uiso   1.00
N734   N     0.66988   0.34563   0.61536   0.00000  Uiso   1.00
N735   N     0.09764   0.48984   0.61079   0.00000  Uiso   1.00
N736   N     0.11164   0.22731   0.72973   0.00000  Uiso   1.00
