data_job_07105
_audit_creation_date              2018-12-19
_audit_creation_method            'Materials Studio'
_symmetry_space_group_name_H-M    'P1'
_symmetry_Int_Tables_number       1
_symmetry_cell_setting            triclinic
loop_
_symmetry_equiv_pos_as_xyz
  x,y,z
_cell_length_a                    40.2369
_cell_length_b                    40.2369
_cell_length_c                    24.1620
_cell_angle_alpha                 90.0000
_cell_angle_beta                  90.0000
_cell_angle_gamma                 120.0000
loop_
_atom_site_label
_atom_site_type_symbol
_atom_site_fract_x
_atom_site_fract_y
_atom_site_fract_z
_atom_site_U_iso_or_equiv
_atom_site_adp_type
_atom_site_occupancy
C1     C     0.14681   0.20791   0.93865   0.00000  Uiso   1.00
C2     C     0.48556   0.89852   0.65699   0.00000  Uiso   1.00
C3     C     0.51183   0.90572   0.69901   0.00000  Uiso   1.00
C4     C     0.84564   0.59497   0.40946   0.00000  Uiso   1.00
C5     C     0.85782   0.62988   0.48946   0.00000  Uiso   1.00
C6     C     0.10466   0.17665   0.93814   0.00000  Uiso   1.00
C7     C     0.09094   0.13743   0.93628   0.00000  Uiso   1.00
C8     C     0.05138   0.11355   0.93612   0.00000  Uiso   1.00
C9     C     0.98971   0.06276   0.93507   0.00000  Uiso   1.00
C10    C     0.15212   0.23393   0.88956   0.00000  Uiso   1.00
C11    C     0.17830   0.24286   0.84683   0.00000  Uiso   1.00
C12    C     0.17869   0.26719   0.80576   0.00000  Uiso   1.00
C13    C     0.19071   0.30533   0.72927   0.00000  Uiso   1.00
C14    C     0.10095   0.23523   0.94169   0.00000  Uiso   1.00
C15    C     0.79398   0.58003   0.32531   0.00000  Uiso   1.00
C16    C     0.79442   0.60261   0.36904   0.00000  Uiso   1.00
C17    C     0.82069   0.60983   0.41111   0.00000  Uiso   1.00
C18    C     0.07975   0.19149   0.93979   0.00000  Uiso   1.00
C19    C     0.04020   0.16766   0.93964   0.00000  Uiso   1.00
C20    C     0.02642   0.12841   0.93778   0.00000  Uiso   1.00
C21    C     0.12721   0.24877   0.89121   0.00000  Uiso   1.00
C22    C     0.12755   0.27309   0.85019   0.00000  Uiso   1.00
C23    C     0.15373   0.28205   0.80741   0.00000  Uiso   1.00
H24    H     0.49954   0.86302   0.60403   0.00000  Uiso   1.00
H25    H     0.53110   0.89422   0.69772   0.00000  Uiso   1.00
H26    H     0.11022   0.12596   0.93500   0.00000  Uiso   1.00
H27    H     0.19757   0.23137   0.84557   0.00000  Uiso   1.00
H28    H     0.88843   0.60202   0.46900   0.00000  Uiso   1.00
H29    H     0.03717   0.05446   0.93310   0.00000  Uiso   1.00
H30    H     0.22136   0.27674   0.74452   0.00000  Uiso   1.00
H31    H     0.08155   0.24678   0.94297   0.00000  Uiso   1.00
H32    H     0.77514   0.61409   0.37030   0.00000  Uiso   1.00
H33    H     0.02093   0.17915   0.94091   0.00000  Uiso   1.00
H34    H     0.10827   0.28456   0.85148   0.00000  Uiso   1.00
H35    H     0.81596   0.64519   0.47380   0.00000  Uiso   1.00
H36    H     0.96470   0.09763   0.93790   0.00000  Uiso   1.00
H37    H     0.14888   0.31991   0.74932   0.00000  Uiso   1.00
O38    O     0.87142   0.64503   0.53314   0.00000  Uiso   1.00
O39    O     0.96258   0.03064   0.93405   0.00000  Uiso   1.00
O40    O     0.20423   0.32227   0.68663   0.00000  Uiso   1.00
N41    N     0.86769   0.60752   0.45722   0.00000  Uiso   1.00
N42    N     0.02844   0.07390   0.93452   0.00000  Uiso   1.00
N43    N     0.20063   0.28171   0.75820   0.00000  Uiso   1.00
N44    N     0.82869   0.63076   0.45981   0.00000  Uiso   1.00
N45    N     0.98944   0.09713   0.93710   0.00000  Uiso   1.00
N46    N     0.16163   0.30494   0.76078   0.00000  Uiso   1.00
C47    C     0.81348   0.54124   0.27198   0.00000  Uiso   1.00
C48    C     0.15222   0.23186   0.99033   0.00000  Uiso   1.00
C49    C     0.17849   0.23905   0.03234   0.00000  Uiso   1.00
C50    C     0.51231   0.92830   0.74279   0.00000  Uiso   1.00
C51    C     0.52449   0.96321   0.82280   0.00000  Uiso   1.00
C52    C     0.77132   0.50999   0.27148   0.00000  Uiso   1.00
C53    C     0.75760   0.47077   0.26961   0.00000  Uiso   1.00
C54    C     0.71804   0.44688   0.26946   0.00000  Uiso   1.00
C55    C     0.65638   0.39609   0.26841   0.00000  Uiso   1.00
C56    C     0.81878   0.56726   0.22289   0.00000  Uiso   1.00
C57    C     0.84496   0.57619   0.18016   0.00000  Uiso   1.00
C58    C     0.84535   0.60052   0.13909   0.00000  Uiso   1.00
C59    C     0.85738   0.63866   0.06261   0.00000  Uiso   1.00
C60    C     0.76761   0.56856   0.27502   0.00000  Uiso   1.00
C61    C     0.46064   0.91336   0.65864   0.00000  Uiso   1.00
C62    C     0.46109   0.93594   0.70237   0.00000  Uiso   1.00
C63    C     0.48735   0.94317   0.74444   0.00000  Uiso   1.00
C64    C     0.74641   0.52482   0.27313   0.00000  Uiso   1.00
C65    C     0.70686   0.50099   0.27297   0.00000  Uiso   1.00
C66    C     0.69309   0.46174   0.27111   0.00000  Uiso   1.00
C67    C     0.79387   0.58210   0.22454   0.00000  Uiso   1.00
C68    C     0.79422   0.60642   0.18353   0.00000  Uiso   1.00
C69    C     0.82040   0.61539   0.14075   0.00000  Uiso   1.00
H70    H     0.16620   0.19635   0.93736   0.00000  Uiso   1.00
H71    H     0.19777   0.22756   0.03105   0.00000  Uiso   1.00
H72    H     0.77689   0.45929   0.26833   0.00000  Uiso   1.00
H73    H     0.86423   0.56470   0.17890   0.00000  Uiso   1.00
H74    H     0.55510   0.93535   0.80233   0.00000  Uiso   1.00
H75    H     0.70384   0.38779   0.26644   0.00000  Uiso   1.00
H76    H     0.88803   0.61007   0.07785   0.00000  Uiso   1.00
H77    H     0.74822   0.58011   0.27630   0.00000  Uiso   1.00
H78    H     0.44181   0.94742   0.70364   0.00000  Uiso   1.00
H79    H     0.68759   0.51249   0.27425   0.00000  Uiso   1.00
H80    H     0.77494   0.61790   0.18482   0.00000  Uiso   1.00
H81    H     0.48262   0.97853   0.80713   0.00000  Uiso   1.00
H82    H     0.63136   0.43096   0.27124   0.00000  Uiso   1.00
H83    H     0.81555   0.65325   0.08266   0.00000  Uiso   1.00
O84    O     0.53809   0.97837   0.86648   0.00000  Uiso   1.00
O85    O     0.62925   0.36398   0.26738   0.00000  Uiso   1.00
O86    O     0.87089   0.65560   0.01997   0.00000  Uiso   1.00
N87    N     0.53435   0.94086   0.79055   0.00000  Uiso   1.00
N88    N     0.69510   0.40723   0.26785   0.00000  Uiso   1.00
N89    N     0.86729   0.61504   0.09153   0.00000  Uiso   1.00
N90    N     0.49535   0.96409   0.79314   0.00000  Uiso   1.00
N91    N     0.65610   0.43047   0.27043   0.00000  Uiso   1.00
N92    N     0.82830   0.63827   0.09412   0.00000  Uiso   1.00
C93    C     0.48014   0.87458   0.60531   0.00000  Uiso   1.00
C94    C     0.81889   0.56519   0.32366   0.00000  Uiso   1.00
C95    C     0.84516   0.57238   0.36568   0.00000  Uiso   1.00
C96    C     0.17898   0.26163   0.07612   0.00000  Uiso   1.00
C97    C     0.19116   0.29655   0.15613   0.00000  Uiso   1.00
C98    C     0.43799   0.84332   0.60481   0.00000  Uiso   1.00
C99    C     0.42427   0.80410   0.60294   0.00000  Uiso   1.00
C100   C     0.38471   0.78021   0.60279   0.00000  Uiso   1.00
C101   C     0.32304   0.72942   0.60174   0.00000  Uiso   1.00
C102   C     0.48545   0.90060   0.55622   0.00000  Uiso   1.00
C103   C     0.51163   0.90953   0.51350   0.00000  Uiso   1.00
C104   C     0.51202   0.93386   0.47243   0.00000  Uiso   1.00
C105   C     0.52404   0.97200   0.39594   0.00000  Uiso   1.00
C106   C     0.43428   0.90189   0.60835   0.00000  Uiso   1.00
C107   C     0.12731   0.24669   0.99198   0.00000  Uiso   1.00
C108   C     0.12775   0.26928   0.03570   0.00000  Uiso   1.00
C109   C     0.15402   0.27650   0.07778   0.00000  Uiso   1.00
C110   C     0.41308   0.85816   0.60646   0.00000  Uiso   1.00
C111   C     0.37353   0.83433   0.60631   0.00000  Uiso   1.00
C112   C     0.35975   0.79508   0.60444   0.00000  Uiso   1.00
C113   C     0.46054   0.91544   0.55787   0.00000  Uiso   1.00
C114   C     0.46089   0.93975   0.51686   0.00000  Uiso   1.00
C115   C     0.48706   0.94872   0.47408   0.00000  Uiso   1.00
H116   H     0.83287   0.52969   0.27070   0.00000  Uiso   1.00
H117   H     0.86443   0.56089   0.36439   0.00000  Uiso   1.00
H118   H     0.44356   0.79263   0.60166   0.00000  Uiso   1.00
H119   H     0.53090   0.89804   0.51223   0.00000  Uiso   1.00
H120   H     0.22176   0.26869   0.13566   0.00000  Uiso   1.00
H121   H     0.37051   0.72113   0.59977   0.00000  Uiso   1.00
H122   H     0.55469   0.94341   0.41119   0.00000  Uiso   1.00
H123   H     0.41488   0.91345   0.60964   0.00000  Uiso   1.00
H124   H     0.10847   0.28075   0.03697   0.00000  Uiso   1.00
H125   H     0.35426   0.84582   0.60758   0.00000  Uiso   1.00
H126   H     0.44161   0.95123   0.51815   0.00000  Uiso   1.00
H127   H     0.14929   0.31186   0.14047   0.00000  Uiso   1.00
H128   H     0.29803   0.76430   0.60457   0.00000  Uiso   1.00
H129   H     0.48222   0.98658   0.41599   0.00000  Uiso   1.00
O130   O     0.20475   0.31170   0.19981   0.00000  Uiso   1.00
O131   O     0.29591   0.69731   0.60071   0.00000  Uiso   1.00
O132   O     0.53756   0.98894   0.35330   0.00000  Uiso   1.00
N133   N     0.20102   0.27419   0.12389   0.00000  Uiso   1.00
N134   N     0.36177   0.74057   0.60118   0.00000  Uiso   1.00
N135   N     0.53396   0.94837   0.42487   0.00000  Uiso   1.00
N136   N     0.16202   0.29742   0.12647   0.00000  Uiso   1.00
N137   N     0.32277   0.76380   0.60377   0.00000  Uiso   1.00
N138   N     0.49496   0.97160   0.42745   0.00000  Uiso   1.00
C139   C     0.79209   0.93890   0.93865   0.00000  Uiso   1.00
C140   C     0.10148   0.58703   0.65699   0.00000  Uiso   1.00
C141   C     0.09428   0.60611   0.69901   0.00000  Uiso   1.00
C142   C     0.40503   0.25068   0.40946   0.00000  Uiso   1.00
C143   C     0.37012   0.22794   0.48946   0.00000  Uiso   1.00
C144   C     0.82335   0.92800   0.93814   0.00000  Uiso   1.00
C145   C     0.86257   0.95350   0.93628   0.00000  Uiso   1.00
C146   C     0.88645   0.93783   0.93612   0.00000  Uiso   1.00
C147   C     0.93724   0.92695   0.93507   0.00000  Uiso   1.00
C148   C     0.76607   0.91819   0.88956   0.00000  Uiso   1.00
C149   C     0.75714   0.93544   0.84683   0.00000  Uiso   1.00
C150   C     0.73281   0.91150   0.80576   0.00000  Uiso   1.00
C151   C     0.69467   0.88538   0.72927   0.00000  Uiso   1.00
C152   C     0.76477   0.86572   0.94169   0.00000  Uiso   1.00
C153   C     0.41997   0.21395   0.32531   0.00000  Uiso   1.00
C154   C     0.39739   0.19181   0.36904   0.00000  Uiso   1.00
C155   C     0.39017   0.21085   0.41111   0.00000  Uiso   1.00
C156   C     0.80851   0.88825   0.93979   0.00000  Uiso   1.00
C157   C     0.83234   0.87254   0.93964   0.00000  Uiso   1.00
C158   C     0.87159   0.89801   0.93778   0.00000  Uiso   1.00
C159   C     0.75123   0.87844   0.89121   0.00000  Uiso   1.00
C160   C     0.72691   0.85447   0.85019   0.00000  Uiso   1.00
C161   C     0.71795   0.87168   0.80741   0.00000  Uiso   1.00
H162   H     0.13698   0.63652   0.60403   0.00000  Uiso   1.00
H163   H     0.10578   0.63687   0.69772   0.00000  Uiso   1.00
H164   H     0.87404   0.98426   0.93500   0.00000  Uiso   1.00
H165   H     0.76863   0.96620   0.84557   0.00000  Uiso   1.00
H166   H     0.39798   0.28641   0.46900   0.00000  Uiso   1.00
H167   H     0.94554   0.98271   0.93310   0.00000  Uiso   1.00
H168   H     0.72326   0.94462   0.74452   0.00000  Uiso   1.00
H169   H     0.75322   0.83477   0.94297   0.00000  Uiso   1.00
H170   H     0.38591   0.16105   0.37030   0.00000  Uiso   1.00
H171   H     0.82085   0.84177   0.94091   0.00000  Uiso   1.00
H172   H     0.71544   0.82371   0.85148   0.00000  Uiso   1.00
H173   H     0.35481   0.17076   0.47380   0.00000  Uiso   1.00
H174   H     0.90237   0.86707   0.93790   0.00000  Uiso   1.00
H175   H     0.68009   0.82897   0.74932   0.00000  Uiso   1.00
O176   O     0.35497   0.22639   0.53314   0.00000  Uiso   1.00
O177   O     0.96936   0.93193   0.93405   0.00000  Uiso   1.00
O178   O     0.67773   0.88196   0.68663   0.00000  Uiso   1.00
N179   N     0.39248   0.26016   0.45722   0.00000  Uiso   1.00
N180   N     0.92610   0.95454   0.93452   0.00000  Uiso   1.00
N181   N     0.71829   0.91892   0.75820   0.00000  Uiso   1.00
N182   N     0.36924   0.19793   0.45981   0.00000  Uiso   1.00
N183   N     0.90287   0.89231   0.93710   0.00000  Uiso   1.00
N184   N     0.69506   0.85669   0.76078   0.00000  Uiso   1.00
C185   C     0.45876   0.27224   0.27198   0.00000  Uiso   1.00
C186   C     0.76814   0.92037   0.99033   0.00000  Uiso   1.00
C187   C     0.76095   0.93945   0.03234   0.00000  Uiso   1.00
C188   C     0.07170   0.58401   0.74279   0.00000  Uiso   1.00
C189   C     0.03679   0.56128   0.82280   0.00000  Uiso   1.00
C190   C     0.49001   0.26134   0.27148   0.00000  Uiso   1.00
C191   C     0.52923   0.28684   0.26961   0.00000  Uiso   1.00
C192   C     0.55312   0.27116   0.26946   0.00000  Uiso   1.00
C193   C     0.60391   0.26028   0.26841   0.00000  Uiso   1.00
C194   C     0.43274   0.25152   0.22289   0.00000  Uiso   1.00
C195   C     0.42381   0.26877   0.18016   0.00000  Uiso   1.00
C196   C     0.39948   0.24483   0.13909   0.00000  Uiso   1.00
C197   C     0.36134   0.21871   0.06261   0.00000  Uiso   1.00
C198   C     0.43144   0.19905   0.27502   0.00000  Uiso   1.00
C199   C     0.08664   0.54728   0.65864   0.00000  Uiso   1.00
C200   C     0.06406   0.52514   0.70237   0.00000  Uiso   1.00
C201   C     0.05683   0.54419   0.74444   0.00000  Uiso   1.00
C202   C     0.47518   0.22159   0.27313   0.00000  Uiso   1.00
C203   C     0.49901   0.20587   0.27297   0.00000  Uiso   1.00
C204   C     0.53826   0.23134   0.27111   0.00000  Uiso   1.00
C205   C     0.41790   0.21177   0.22454   0.00000  Uiso   1.00
C206   C     0.39358   0.18780   0.18353   0.00000  Uiso   1.00
C207   C     0.38461   0.20501   0.14075   0.00000  Uiso   1.00
H208   H     0.80365   0.96985   0.93736   0.00000  Uiso   1.00
H209   H     0.77244   0.97021   0.03105   0.00000  Uiso   1.00
H210   H     0.54071   0.31760   0.26833   0.00000  Uiso   1.00
H211   H     0.43530   0.29953   0.17890   0.00000  Uiso   1.00
H212   H     0.06465   0.61975   0.80233   0.00000  Uiso   1.00
H213   H     0.61221   0.31605   0.26644   0.00000  Uiso   1.00
H214   H     0.38993   0.27795   0.07785   0.00000  Uiso   1.00
H215   H     0.41989   0.16811   0.27630   0.00000  Uiso   1.00
H216   H     0.05258   0.49438   0.70364   0.00000  Uiso   1.00
H217   H     0.48751   0.17511   0.27425   0.00000  Uiso   1.00
H218   H     0.38210   0.15704   0.18482   0.00000  Uiso   1.00
H219   H     0.02147   0.50410   0.80713   0.00000  Uiso   1.00
H220   H     0.56904   0.20040   0.27124   0.00000  Uiso   1.00
H221   H     0.34675   0.16230   0.08266   0.00000  Uiso   1.00
O222   O     0.02163   0.55972   0.86648   0.00000  Uiso   1.00
O223   O     0.63602   0.26527   0.26738   0.00000  Uiso   1.00
O224   O     0.34440   0.21529   0.01997   0.00000  Uiso   1.00
N225   N     0.05914   0.59349   0.79055   0.00000  Uiso   1.00
N226   N     0.59277   0.28787   0.26785   0.00000  Uiso   1.00
N227   N     0.38496   0.25226   0.09153   0.00000  Uiso   1.00
N228   N     0.03591   0.53126   0.79314   0.00000  Uiso   1.00
N229   N     0.56953   0.22564   0.27043   0.00000  Uiso   1.00
N230   N     0.36173   0.19003   0.09412   0.00000  Uiso   1.00
C231   C     0.12542   0.60557   0.60531   0.00000  Uiso   1.00
C232   C     0.43481   0.25370   0.32366   0.00000  Uiso   1.00
C233   C     0.42762   0.27278   0.36568   0.00000  Uiso   1.00
C234   C     0.73837   0.91734   0.07612   0.00000  Uiso   1.00
C235   C     0.70345   0.89461   0.15613   0.00000  Uiso   1.00
C236   C     0.15668   0.59467   0.60481   0.00000  Uiso   1.00
C237   C     0.19590   0.62017   0.60294   0.00000  Uiso   1.00
C238   C     0.21979   0.60449   0.60279   0.00000  Uiso   1.00
C239   C     0.27058   0.59362   0.60174   0.00000  Uiso   1.00
C240   C     0.09940   0.58485   0.55622   0.00000  Uiso   1.00
C241   C     0.09047   0.60210   0.51350   0.00000  Uiso   1.00
C242   C     0.06614   0.57816   0.47243   0.00000  Uiso   1.00
C243   C     0.02800   0.55205   0.39594   0.00000  Uiso   1.00
C244   C     0.09811   0.53239   0.60835   0.00000  Uiso   1.00
C245   C     0.75331   0.88062   0.99198   0.00000  Uiso   1.00
C246   C     0.73072   0.85848   0.03570   0.00000  Uiso   1.00
C247   C     0.72350   0.87752   0.07778   0.00000  Uiso   1.00
C248   C     0.14184   0.55492   0.60646   0.00000  Uiso   1.00
C249   C     0.16567   0.53920   0.60631   0.00000  Uiso   1.00
C250   C     0.20492   0.56467   0.60444   0.00000  Uiso   1.00
C251   C     0.08456   0.54510   0.55787   0.00000  Uiso   1.00
C252   C     0.06025   0.52113   0.51686   0.00000  Uiso   1.00
C253   C     0.05128   0.53834   0.47408   0.00000  Uiso   1.00
H254   H     0.47031   0.30318   0.27070   0.00000  Uiso   1.00
H255   H     0.43911   0.30354   0.36439   0.00000  Uiso   1.00
H256   H     0.20737   0.65093   0.60166   0.00000  Uiso   1.00
H257   H     0.10196   0.63286   0.51223   0.00000  Uiso   1.00
H258   H     0.73131   0.95308   0.13566   0.00000  Uiso   1.00
H259   H     0.27887   0.64938   0.59977   0.00000  Uiso   1.00
H260   H     0.05659   0.61129   0.41119   0.00000  Uiso   1.00
H261   H     0.08655   0.50144   0.60964   0.00000  Uiso   1.00
H262   H     0.71925   0.82772   0.03697   0.00000  Uiso   1.00
H263   H     0.15418   0.50844   0.60758   0.00000  Uiso   1.00
H264   H     0.04877   0.49038   0.51815   0.00000  Uiso   1.00
H265   H     0.68814   0.83743   0.14047   0.00000  Uiso   1.00
H266   H     0.23570   0.53373   0.60457   0.00000  Uiso   1.00
H267   H     0.01342   0.49564   0.41599   0.00000  Uiso   1.00
O268   O     0.68830   0.89305   0.19981   0.00000  Uiso   1.00
O269   O     0.30269   0.59860   0.60071   0.00000  Uiso   1.00
O270   O     0.01106   0.54862   0.35330   0.00000  Uiso   1.00
N271   N     0.72581   0.92683   0.12389   0.00000  Uiso   1.00
N272   N     0.25943   0.62120   0.60118   0.00000  Uiso   1.00
N273   N     0.05163   0.58559   0.42487   0.00000  Uiso   1.00
N274   N     0.70258   0.86460   0.12647   0.00000  Uiso   1.00
N275   N     0.23620   0.55897   0.60377   0.00000  Uiso   1.00
N276   N     0.02840   0.52336   0.42745   0.00000  Uiso   1.00
C277   C     0.06110   0.85319   0.93865   0.00000  Uiso   1.00
C278   C     0.41297   0.51444   0.65699   0.00000  Uiso   1.00
C279   C     0.39389   0.48817   0.69901   0.00000  Uiso   1.00
C280   C     0.74932   0.15436   0.40946   0.00000  Uiso   1.00
C281   C     0.77206   0.14218   0.48946   0.00000  Uiso   1.00
C282   C     0.07200   0.89534   0.93814   0.00000  Uiso   1.00
C283   C     0.04650   0.90906   0.93628   0.00000  Uiso   1.00
C284   C     0.06217   0.94862   0.93612   0.00000  Uiso   1.00
C285   C     0.07305   0.01029   0.93507   0.00000  Uiso   1.00
C286   C     0.08181   0.84788   0.88956   0.00000  Uiso   1.00
C287   C     0.06456   0.82170   0.84683   0.00000  Uiso   1.00
C288   C     0.08850   0.82131   0.80576   0.00000  Uiso   1.00
C289   C     0.11462   0.80929   0.72927   0.00000  Uiso   1.00
C290   C     0.13428   0.89905   0.94169   0.00000  Uiso   1.00
C291   C     0.78605   0.20602   0.32531   0.00000  Uiso   1.00
C292   C     0.80819   0.20558   0.36904   0.00000  Uiso   1.00
C293   C     0.78915   0.17931   0.41111   0.00000  Uiso   1.00
C294   C     0.11175   0.92025   0.93979   0.00000  Uiso   1.00
C295   C     0.12746   0.95980   0.93964   0.00000  Uiso   1.00
C296   C     0.10199   0.97358   0.93778   0.00000  Uiso   1.00
C297   C     0.12156   0.87279   0.89121   0.00000  Uiso   1.00
C298   C     0.14553   0.87245   0.85019   0.00000  Uiso   1.00
C299   C     0.12832   0.84627   0.80741   0.00000  Uiso   1.00
H300   H     0.36348   0.50046   0.60403   0.00000  Uiso   1.00
H301   H     0.36313   0.46890   0.69772   0.00000  Uiso   1.00
H302   H     0.01574   0.88978   0.93500   0.00000  Uiso   1.00
H303   H     0.03380   0.80243   0.84557   0.00000  Uiso   1.00
H304   H     0.71359   0.11157   0.46900   0.00000  Uiso   1.00
H305   H     0.01729   0.96283   0.93310   0.00000  Uiso   1.00
H306   H     0.05538   0.77864   0.74452   0.00000  Uiso   1.00
H307   H     0.16523   0.91845   0.94297   0.00000  Uiso   1.00
H308   H     0.83895   0.22486   0.37030   0.00000  Uiso   1.00
H309   H     0.15823   0.97907   0.94091   0.00000  Uiso   1.00
H310   H     0.17629   0.89173   0.85148   0.00000  Uiso   1.00
H311   H     0.82924   0.18404   0.47380   0.00000  Uiso   1.00
H312   H     0.13293   0.03530   0.93790   0.00000  Uiso   1.00
H313   H     0.17103   0.85112   0.74932   0.00000  Uiso   1.00
O314   O     0.77361   0.12858   0.53314   0.00000  Uiso   1.00
O315   O     0.06807   0.03742   0.93405   0.00000  Uiso   1.00
O316   O     0.11804   0.79577   0.68663   0.00000  Uiso   1.00
N317   N     0.73984   0.13231   0.45722   0.00000  Uiso   1.00
N318   N     0.04546   0.97156   0.93452   0.00000  Uiso   1.00
N319   N     0.08108   0.79937   0.75820   0.00000  Uiso   1.00
N320   N     0.80207   0.17131   0.45981   0.00000  Uiso   1.00
N321   N     0.10769   0.01056   0.93710   0.00000  Uiso   1.00
N322   N     0.14331   0.83837   0.76078   0.00000  Uiso   1.00
C323   C     0.72776   0.18652   0.27198   0.00000  Uiso   1.00
C324   C     0.07963   0.84778   0.99033   0.00000  Uiso   1.00
C325   C     0.06055   0.82151   0.03234   0.00000  Uiso   1.00
C326   C     0.41599   0.48769   0.74279   0.00000  Uiso   1.00
C327   C     0.43872   0.47551   0.82280   0.00000  Uiso   1.00
C328   C     0.73866   0.22868   0.27148   0.00000  Uiso   1.00
C329   C     0.71316   0.24240   0.26961   0.00000  Uiso   1.00
C330   C     0.72884   0.28196   0.26946   0.00000  Uiso   1.00
C331   C     0.73972   0.34362   0.26841   0.00000  Uiso   1.00
C332   C     0.74848   0.18122   0.22289   0.00000  Uiso   1.00
C333   C     0.73123   0.15504   0.18016   0.00000  Uiso   1.00
C334   C     0.75517   0.15465   0.13909   0.00000  Uiso   1.00
C335   C     0.78129   0.14262   0.06261   0.00000  Uiso   1.00
C336   C     0.80095   0.23239   0.27502   0.00000  Uiso   1.00
C337   C     0.45272   0.53936   0.65864   0.00000  Uiso   1.00
C338   C     0.47486   0.53891   0.70237   0.00000  Uiso   1.00
C339   C     0.45581   0.51265   0.74444   0.00000  Uiso   1.00
C340   C     0.77841   0.25359   0.27313   0.00000  Uiso   1.00
C341   C     0.79413   0.29314   0.27297   0.00000  Uiso   1.00
C342   C     0.76866   0.30691   0.27111   0.00000  Uiso   1.00
C343   C     0.78823   0.20613   0.22454   0.00000  Uiso   1.00
C344   C     0.81220   0.20578   0.18353   0.00000  Uiso   1.00
C345   C     0.79499   0.17960   0.14075   0.00000  Uiso   1.00
H346   H     0.03015   0.83380   0.93736   0.00000  Uiso   1.00
H347   H     0.02979   0.80223   0.03105   0.00000  Uiso   1.00
H348   H     0.68240   0.22311   0.26833   0.00000  Uiso   1.00
H349   H     0.70047   0.13577   0.17890   0.00000  Uiso   1.00
H350   H     0.38025   0.44490   0.80233   0.00000  Uiso   1.00
H351   H     0.68395   0.29616   0.26644   0.00000  Uiso   1.00
H352   H     0.72205   0.11197   0.07785   0.00000  Uiso   1.00
H353   H     0.83189   0.25178   0.27630   0.00000  Uiso   1.00
H354   H     0.50562   0.55819   0.70364   0.00000  Uiso   1.00
H355   H     0.82489   0.31241   0.27425   0.00000  Uiso   1.00
H356   H     0.84296   0.22506   0.18482   0.00000  Uiso   1.00
H357   H     0.49590   0.51738   0.80713   0.00000  Uiso   1.00
H358   H     0.79960   0.36864   0.27124   0.00000  Uiso   1.00
H359   H     0.83770   0.18445   0.08266   0.00000  Uiso   1.00
O360   O     0.44028   0.46191   0.86648   0.00000  Uiso   1.00
O361   O     0.73473   0.37075   0.26738   0.00000  Uiso   1.00
O362   O     0.78471   0.12911   0.01997   0.00000  Uiso   1.00
N363   N     0.40651   0.46565   0.79055   0.00000  Uiso   1.00
N364   N     0.71213   0.30490   0.26785   0.00000  Uiso   1.00
N365   N     0.74774   0.13271   0.09153   0.00000  Uiso   1.00
N366   N     0.46874   0.50465   0.79314   0.00000  Uiso   1.00
N367   N     0.77436   0.34390   0.27043   0.00000  Uiso   1.00
N368   N     0.80997   0.17170   0.09412   0.00000  Uiso   1.00
C369   C     0.39443   0.51986   0.60531   0.00000  Uiso   1.00
C370   C     0.74630   0.18111   0.32366   0.00000  Uiso   1.00
C371   C     0.72722   0.15484   0.36568   0.00000  Uiso   1.00
C372   C     0.08266   0.82102   0.07612   0.00000  Uiso   1.00
C373   C     0.10539   0.80884   0.15613   0.00000  Uiso   1.00
C374   C     0.40533   0.56201   0.60481   0.00000  Uiso   1.00
C375   C     0.37983   0.57573   0.60294   0.00000  Uiso   1.00
C376   C     0.39551   0.61529   0.60279   0.00000  Uiso   1.00
C377   C     0.40638   0.67696   0.60174   0.00000  Uiso   1.00
C378   C     0.41515   0.51455   0.55622   0.00000  Uiso   1.00
C379   C     0.39790   0.48837   0.51350   0.00000  Uiso   1.00
C380   C     0.42184   0.48798   0.47243   0.00000  Uiso   1.00
C381   C     0.44795   0.47596   0.39594   0.00000  Uiso   1.00
C382   C     0.46761   0.56572   0.60835   0.00000  Uiso   1.00
C383   C     0.11938   0.87269   0.99198   0.00000  Uiso   1.00
C384   C     0.14152   0.87225   0.03570   0.00000  Uiso   1.00
C385   C     0.12248   0.84598   0.07778   0.00000  Uiso   1.00
C386   C     0.44508   0.58692   0.60646   0.00000  Uiso   1.00
C387   C     0.46080   0.62647   0.60631   0.00000  Uiso   1.00
C388   C     0.43533   0.64025   0.60444   0.00000  Uiso   1.00
C389   C     0.45490   0.53946   0.55787   0.00000  Uiso   1.00
C390   C     0.47887   0.53911   0.51686   0.00000  Uiso   1.00
C391   C     0.46166   0.51294   0.47408   0.00000  Uiso   1.00
H392   H     0.69682   0.16713   0.27070   0.00000  Uiso   1.00
H393   H     0.69646   0.13557   0.36439   0.00000  Uiso   1.00
H394   H     0.34907   0.55644   0.60166   0.00000  Uiso   1.00
H395   H     0.36714   0.46910   0.51223   0.00000  Uiso   1.00
H396   H     0.04692   0.77824   0.13566   0.00000  Uiso   1.00
H397   H     0.35062   0.62949   0.59977   0.00000  Uiso   1.00
H398   H     0.38871   0.44531   0.41119   0.00000  Uiso   1.00
H399   H     0.49856   0.58512   0.60964   0.00000  Uiso   1.00
H400   H     0.17228   0.89153   0.03697   0.00000  Uiso   1.00
H401   H     0.49156   0.64574   0.60758   0.00000  Uiso   1.00
H402   H     0.50962   0.55839   0.51815   0.00000  Uiso   1.00
H403   H     0.16257   0.85071   0.14047   0.00000  Uiso   1.00
H404   H     0.46627   0.70197   0.60457   0.00000  Uiso   1.00
H405   H     0.50436   0.51778   0.41599   0.00000  Uiso   1.00
O406   O     0.10695   0.79525   0.19981   0.00000  Uiso   1.00
O407   O     0.40140   0.70409   0.60071   0.00000  Uiso   1.00
O408   O     0.45138   0.46244   0.35330   0.00000  Uiso   1.00
N409   N     0.07317   0.79898   0.12389   0.00000  Uiso   1.00
N410   N     0.37880   0.63823   0.60118   0.00000  Uiso   1.00
N411   N     0.41441   0.46604   0.42487   0.00000  Uiso   1.00
N412   N     0.13540   0.83798   0.12647   0.00000  Uiso   1.00
N413   N     0.44103   0.67723   0.60377   0.00000  Uiso   1.00
N414   N     0.47664   0.50504   0.42745   0.00000  Uiso   1.00
C415   C     0.20791   0.14681   0.56135   0.00000  Uiso   1.00
C416   C     0.89852   0.48556   0.84301   0.00000  Uiso   1.00
C417   C     0.90572   0.51183   0.80099   0.00000  Uiso   1.00
C418   C     0.59497   0.84564   0.09054   0.00000  Uiso   1.00
C419   C     0.62988   0.85782   0.01054   0.00000  Uiso   1.00
C420   C     0.17665   0.10466   0.56186   0.00000  Uiso   1.00
C421   C     0.13743   0.09094   0.56372   0.00000  Uiso   1.00
C422   C     0.11355   0.05138   0.56388   0.00000  Uiso   1.00
C423   C     0.06276   0.98971   0.56493   0.00000  Uiso   1.00
C424   C     0.23393   0.15212   0.61044   0.00000  Uiso   1.00
C425   C     0.24286   0.17830   0.65317   0.00000  Uiso   1.00
C426   C     0.26719   0.17869   0.69424   0.00000  Uiso   1.00
C427   C     0.30533   0.19071   0.77073   0.00000  Uiso   1.00
C428   C     0.23523   0.10095   0.55831   0.00000  Uiso   1.00
C429   C     0.58003   0.79398   0.17469   0.00000  Uiso   1.00
C430   C     0.60261   0.79442   0.13096   0.00000  Uiso   1.00
C431   C     0.60983   0.82069   0.08889   0.00000  Uiso   1.00
C432   C     0.19149   0.07975   0.56021   0.00000  Uiso   1.00
C433   C     0.16766   0.04020   0.56036   0.00000  Uiso   1.00
C434   C     0.12841   0.02642   0.56222   0.00000  Uiso   1.00
C435   C     0.24877   0.12721   0.60879   0.00000  Uiso   1.00
C436   C     0.27309   0.12755   0.64981   0.00000  Uiso   1.00
C437   C     0.28205   0.15373   0.69259   0.00000  Uiso   1.00
H438   H     0.86302   0.49954   0.89597   0.00000  Uiso   1.00
H439   H     0.89422   0.53110   0.80228   0.00000  Uiso   1.00
H440   H     0.12596   0.11022   0.56500   0.00000  Uiso   1.00
H441   H     0.23137   0.19757   0.65443   0.00000  Uiso   1.00
H442   H     0.60202   0.88843   0.03100   0.00000  Uiso   1.00
H443   H     0.05446   0.03717   0.56690   0.00000  Uiso   1.00
H444   H     0.27674   0.22136   0.75548   0.00000  Uiso   1.00
H445   H     0.24678   0.08155   0.55703   0.00000  Uiso   1.00
H446   H     0.61409   0.77514   0.12970   0.00000  Uiso   1.00
H447   H     0.17915   0.02093   0.55909   0.00000  Uiso   1.00
H448   H     0.28456   0.10827   0.64852   0.00000  Uiso   1.00
H449   H     0.64519   0.81596   0.02620   0.00000  Uiso   1.00
H450   H     0.09763   0.96470   0.56210   0.00000  Uiso   1.00
H451   H     0.31991   0.14888   0.75068   0.00000  Uiso   1.00
O452   O     0.64503   0.87142   0.96686   0.00000  Uiso   1.00
O453   O     0.03064   0.96258   0.56595   0.00000  Uiso   1.00
O454   O     0.32227   0.20423   0.81337   0.00000  Uiso   1.00
N455   N     0.60752   0.86769   0.04278   0.00000  Uiso   1.00
N456   N     0.07390   0.02844   0.56548   0.00000  Uiso   1.00
N457   N     0.28171   0.20063   0.74180   0.00000  Uiso   1.00
N458   N     0.63076   0.82869   0.04019   0.00000  Uiso   1.00
N459   N     0.09713   0.98944   0.56290   0.00000  Uiso   1.00
N460   N     0.30494   0.16163   0.73922   0.00000  Uiso   1.00
C461   C     0.87458   0.48014   0.89469   0.00000  Uiso   1.00
C462   C     0.56519   0.81889   0.17634   0.00000  Uiso   1.00
C463   C     0.57238   0.84516   0.13432   0.00000  Uiso   1.00
C464   C     0.26163   0.17898   0.42388   0.00000  Uiso   1.00
C465   C     0.29655   0.19116   0.34387   0.00000  Uiso   1.00
C466   C     0.84332   0.43799   0.89519   0.00000  Uiso   1.00
C467   C     0.80410   0.42427   0.89706   0.00000  Uiso   1.00
C468   C     0.78021   0.38471   0.89721   0.00000  Uiso   1.00
C469   C     0.72942   0.32304   0.89826   0.00000  Uiso   1.00
C470   C     0.90060   0.48545   0.94378   0.00000  Uiso   1.00
C471   C     0.90953   0.51163   0.98650   0.00000  Uiso   1.00
C472   C     0.93386   0.51202   0.02757   0.00000  Uiso   1.00
C473   C     0.97200   0.52404   0.10406   0.00000  Uiso   1.00
C474   C     0.90189   0.43428   0.89165   0.00000  Uiso   1.00
C475   C     0.24669   0.12731   0.50802   0.00000  Uiso   1.00
C476   C     0.26928   0.12775   0.46430   0.00000  Uiso   1.00
C477   C     0.27650   0.15402   0.42222   0.00000  Uiso   1.00
C478   C     0.85816   0.41308   0.89354   0.00000  Uiso   1.00
C479   C     0.83433   0.37353   0.89369   0.00000  Uiso   1.00
C480   C     0.79508   0.35975   0.89556   0.00000  Uiso   1.00
C481   C     0.91544   0.46054   0.94213   0.00000  Uiso   1.00
C482   C     0.93975   0.46089   0.98314   0.00000  Uiso   1.00
C483   C     0.94872   0.48706   0.02592   0.00000  Uiso   1.00
H484   H     0.52969   0.83287   0.22930   0.00000  Uiso   1.00
H485   H     0.56089   0.86443   0.13561   0.00000  Uiso   1.00
H486   H     0.79263   0.44356   0.89834   0.00000  Uiso   1.00
H487   H     0.89804   0.53090   0.98777   0.00000  Uiso   1.00
H488   H     0.26869   0.22176   0.36434   0.00000  Uiso   1.00
H489   H     0.72113   0.37051   0.90023   0.00000  Uiso   1.00
H490   H     0.94341   0.55469   0.08881   0.00000  Uiso   1.00
H491   H     0.91345   0.41488   0.89036   0.00000  Uiso   1.00
H492   H     0.28075   0.10847   0.46303   0.00000  Uiso   1.00
H493   H     0.84582   0.35426   0.89242   0.00000  Uiso   1.00
H494   H     0.95123   0.44161   0.98185   0.00000  Uiso   1.00
H495   H     0.31186   0.14929   0.35953   0.00000  Uiso   1.00
H496   H     0.76430   0.29803   0.89543   0.00000  Uiso   1.00
H497   H     0.98658   0.48222   0.08401   0.00000  Uiso   1.00
O498   O     0.31170   0.20475   0.30019   0.00000  Uiso   1.00
O499   O     0.69731   0.29591   0.89929   0.00000  Uiso   1.00
O500   O     0.98894   0.53756   0.14670   0.00000  Uiso   1.00
N501   N     0.27419   0.20102   0.37611   0.00000  Uiso   1.00
N502   N     0.74057   0.36177   0.89882   0.00000  Uiso   1.00
N503   N     0.94837   0.53396   0.07513   0.00000  Uiso   1.00
N504   N     0.29742   0.16202   0.37353   0.00000  Uiso   1.00
N505   N     0.76380   0.32277   0.89623   0.00000  Uiso   1.00
N506   N     0.97160   0.49496   0.07255   0.00000  Uiso   1.00
C507   C     0.54124   0.81348   0.22802   0.00000  Uiso   1.00
C508   C     0.23186   0.15222   0.50967   0.00000  Uiso   1.00
C509   C     0.23905   0.17849   0.46766   0.00000  Uiso   1.00
C510   C     0.92830   0.51231   0.75721   0.00000  Uiso   1.00
C511   C     0.96321   0.52449   0.67720   0.00000  Uiso   1.00
C512   C     0.50999   0.77132   0.22852   0.00000  Uiso   1.00
C513   C     0.47077   0.75760   0.23039   0.00000  Uiso   1.00
C514   C     0.44688   0.71804   0.23054   0.00000  Uiso   1.00
C515   C     0.39609   0.65638   0.23159   0.00000  Uiso   1.00
C516   C     0.56726   0.81878   0.27711   0.00000  Uiso   1.00
C517   C     0.57619   0.84496   0.31984   0.00000  Uiso   1.00
C518   C     0.60052   0.84535   0.36091   0.00000  Uiso   1.00
C519   C     0.63866   0.85738   0.43739   0.00000  Uiso   1.00
C520   C     0.56856   0.76761   0.22498   0.00000  Uiso   1.00
C521   C     0.91336   0.46064   0.84136   0.00000  Uiso   1.00
C522   C     0.93594   0.46109   0.79763   0.00000  Uiso   1.00
C523   C     0.94317   0.48735   0.75556   0.00000  Uiso   1.00
C524   C     0.52482   0.74641   0.22687   0.00000  Uiso   1.00
C525   C     0.50099   0.70686   0.22703   0.00000  Uiso   1.00
C526   C     0.46174   0.69309   0.22889   0.00000  Uiso   1.00
C527   C     0.58210   0.79387   0.27546   0.00000  Uiso   1.00
C528   C     0.60642   0.79422   0.31647   0.00000  Uiso   1.00
C529   C     0.61539   0.82040   0.35925   0.00000  Uiso   1.00
H530   H     0.19635   0.16620   0.56264   0.00000  Uiso   1.00
H531   H     0.22756   0.19777   0.46895   0.00000  Uiso   1.00
H532   H     0.45929   0.77689   0.23167   0.00000  Uiso   1.00
H533   H     0.56470   0.86423   0.32110   0.00000  Uiso   1.00
H534   H     0.93535   0.55510   0.69767   0.00000  Uiso   1.00
H535   H     0.38779   0.70384   0.23356   0.00000  Uiso   1.00
H536   H     0.61007   0.88803   0.42215   0.00000  Uiso   1.00
H537   H     0.58011   0.74822   0.22370   0.00000  Uiso   1.00
H538   H     0.94742   0.44181   0.79636   0.00000  Uiso   1.00
H539   H     0.51249   0.68759   0.22575   0.00000  Uiso   1.00
H540   H     0.61790   0.77494   0.31518   0.00000  Uiso   1.00
H541   H     0.97853   0.48262   0.69287   0.00000  Uiso   1.00
H542   H     0.43096   0.63136   0.22876   0.00000  Uiso   1.00
H543   H     0.65325   0.81555   0.41734   0.00000  Uiso   1.00
O544   O     0.97837   0.53809   0.63352   0.00000  Uiso   1.00
O545   O     0.36398   0.62925   0.23262   0.00000  Uiso   1.00
O546   O     0.65560   0.87089   0.48003   0.00000  Uiso   1.00
N547   N     0.94086   0.53435   0.70945   0.00000  Uiso   1.00
N548   N     0.40723   0.69510   0.23215   0.00000  Uiso   1.00
N549   N     0.61504   0.86729   0.40847   0.00000  Uiso   1.00
N550   N     0.96409   0.49535   0.70686   0.00000  Uiso   1.00
N551   N     0.43047   0.65610   0.22957   0.00000  Uiso   1.00
N552   N     0.63827   0.82830   0.40588   0.00000  Uiso   1.00
C553   C     0.93890   0.79209   0.56135   0.00000  Uiso   1.00
C554   C     0.58703   0.10148   0.84301   0.00000  Uiso   1.00
C555   C     0.60611   0.09428   0.80099   0.00000  Uiso   1.00
C556   C     0.25068   0.40503   0.09054   0.00000  Uiso   1.00
C557   C     0.22794   0.37012   0.01054   0.00000  Uiso   1.00
C558   C     0.92800   0.82335   0.56186   0.00000  Uiso   1.00
C559   C     0.95350   0.86257   0.56372   0.00000  Uiso   1.00
C560   C     0.93783   0.88645   0.56388   0.00000  Uiso   1.00
C561   C     0.92695   0.93724   0.56493   0.00000  Uiso   1.00
C562   C     0.91819   0.76607   0.61044   0.00000  Uiso   1.00
C563   C     0.93544   0.75714   0.65317   0.00000  Uiso   1.00
C564   C     0.91150   0.73281   0.69424   0.00000  Uiso   1.00
C565   C     0.88538   0.69467   0.77073   0.00000  Uiso   1.00
C566   C     0.86572   0.76477   0.55831   0.00000  Uiso   1.00
C567   C     0.21395   0.41997   0.17469   0.00000  Uiso   1.00
C568   C     0.19181   0.39739   0.13096   0.00000  Uiso   1.00
C569   C     0.21085   0.39017   0.08889   0.00000  Uiso   1.00
C570   C     0.88825   0.80851   0.56021   0.00000  Uiso   1.00
C571   C     0.87254   0.83234   0.56036   0.00000  Uiso   1.00
C572   C     0.89801   0.87159   0.56222   0.00000  Uiso   1.00
C573   C     0.87844   0.75123   0.60879   0.00000  Uiso   1.00
C574   C     0.85447   0.72691   0.64981   0.00000  Uiso   1.00
C575   C     0.87168   0.71795   0.69259   0.00000  Uiso   1.00
H576   H     0.63652   0.13698   0.89597   0.00000  Uiso   1.00
H577   H     0.63687   0.10578   0.80228   0.00000  Uiso   1.00
H578   H     0.98426   0.87404   0.56500   0.00000  Uiso   1.00
H579   H     0.96620   0.76863   0.65443   0.00000  Uiso   1.00
H580   H     0.28641   0.39798   0.03100   0.00000  Uiso   1.00
H581   H     0.98271   0.94554   0.56690   0.00000  Uiso   1.00
H582   H     0.94462   0.72326   0.75548   0.00000  Uiso   1.00
H583   H     0.83477   0.75322   0.55703   0.00000  Uiso   1.00
H584   H     0.16105   0.38591   0.12970   0.00000  Uiso   1.00
H585   H     0.84177   0.82085   0.55909   0.00000  Uiso   1.00
H586   H     0.82371   0.71544   0.64852   0.00000  Uiso   1.00
H587   H     0.17076   0.35481   0.02620   0.00000  Uiso   1.00
H588   H     0.86707   0.90237   0.56210   0.00000  Uiso   1.00
H589   H     0.82897   0.68009   0.75068   0.00000  Uiso   1.00
O590   O     0.22639   0.35497   0.96686   0.00000  Uiso   1.00
O591   O     0.93193   0.96936   0.56595   0.00000  Uiso   1.00
O592   O     0.88196   0.67773   0.81337   0.00000  Uiso   1.00
N593   N     0.26016   0.39248   0.04278   0.00000  Uiso   1.00
N594   N     0.95454   0.92610   0.56548   0.00000  Uiso   1.00
N595   N     0.91892   0.71829   0.74180   0.00000  Uiso   1.00
N596   N     0.19793   0.36924   0.04019   0.00000  Uiso   1.00
N597   N     0.89231   0.90287   0.56290   0.00000  Uiso   1.00
N598   N     0.85669   0.69506   0.73922   0.00000  Uiso   1.00
C599   C     0.60557   0.12542   0.89469   0.00000  Uiso   1.00
C600   C     0.25370   0.43481   0.17634   0.00000  Uiso   1.00
C601   C     0.27278   0.42762   0.13432   0.00000  Uiso   1.00
C602   C     0.91734   0.73837   0.42388   0.00000  Uiso   1.00
C603   C     0.89461   0.70345   0.34387   0.00000  Uiso   1.00
C604   C     0.59467   0.15668   0.89519   0.00000  Uiso   1.00
C605   C     0.62017   0.19590   0.89706   0.00000  Uiso   1.00
C606   C     0.60449   0.21979   0.89721   0.00000  Uiso   1.00
C607   C     0.59362   0.27058   0.89826   0.00000  Uiso   1.00
C608   C     0.58485   0.09940   0.94378   0.00000  Uiso   1.00
C609   C     0.60210   0.09047   0.98650   0.00000  Uiso   1.00
C610   C     0.57816   0.06614   0.02757   0.00000  Uiso   1.00
C611   C     0.55205   0.02800   0.10406   0.00000  Uiso   1.00
C612   C     0.53239   0.09811   0.89165   0.00000  Uiso   1.00
C613   C     0.88062   0.75331   0.50802   0.00000  Uiso   1.00
C614   C     0.85848   0.73072   0.46430   0.00000  Uiso   1.00
C615   C     0.87752   0.72350   0.42222   0.00000  Uiso   1.00
C616   C     0.55492   0.14184   0.89354   0.00000  Uiso   1.00
C617   C     0.53920   0.16567   0.89369   0.00000  Uiso   1.00
C618   C     0.56467   0.20492   0.89556   0.00000  Uiso   1.00
C619   C     0.54510   0.08456   0.94213   0.00000  Uiso   1.00
C620   C     0.52113   0.06025   0.98314   0.00000  Uiso   1.00
C621   C     0.53834   0.05128   0.02592   0.00000  Uiso   1.00
H622   H     0.30318   0.47031   0.22930   0.00000  Uiso   1.00
H623   H     0.30354   0.43911   0.13561   0.00000  Uiso   1.00
H624   H     0.65093   0.20737   0.89834   0.00000  Uiso   1.00
H625   H     0.63286   0.10196   0.98777   0.00000  Uiso   1.00
H626   H     0.95308   0.73131   0.36434   0.00000  Uiso   1.00
H627   H     0.64938   0.27887   0.90023   0.00000  Uiso   1.00
H628   H     0.61129   0.05659   0.08881   0.00000  Uiso   1.00
H629   H     0.50144   0.08655   0.89036   0.00000  Uiso   1.00
H630   H     0.82772   0.71925   0.46303   0.00000  Uiso   1.00
H631   H     0.50844   0.15418   0.89242   0.00000  Uiso   1.00
H632   H     0.49038   0.04877   0.98185   0.00000  Uiso   1.00
H633   H     0.83743   0.68814   0.35953   0.00000  Uiso   1.00
H634   H     0.53373   0.23570   0.89543   0.00000  Uiso   1.00
H635   H     0.49564   0.01342   0.08401   0.00000  Uiso   1.00
O636   O     0.89305   0.68830   0.30019   0.00000  Uiso   1.00
O637   O     0.59860   0.30269   0.89929   0.00000  Uiso   1.00
O638   O     0.54862   0.01106   0.14670   0.00000  Uiso   1.00
N639   N     0.92683   0.72581   0.37611   0.00000  Uiso   1.00
N640   N     0.62120   0.25943   0.89882   0.00000  Uiso   1.00
N641   N     0.58559   0.05163   0.07513   0.00000  Uiso   1.00
N642   N     0.86460   0.70258   0.37353   0.00000  Uiso   1.00
N643   N     0.55897   0.23620   0.89623   0.00000  Uiso   1.00
N644   N     0.52336   0.02840   0.07255   0.00000  Uiso   1.00
C645   C     0.27224   0.45876   0.22802   0.00000  Uiso   1.00
C646   C     0.92037   0.76814   0.50967   0.00000  Uiso   1.00
C647   C     0.93945   0.76095   0.46766   0.00000  Uiso   1.00
C648   C     0.58401   0.07170   0.75721   0.00000  Uiso   1.00
C649   C     0.56128   0.03679   0.67720   0.00000  Uiso   1.00
C650   C     0.26134   0.49001   0.22852   0.00000  Uiso   1.00
C651   C     0.28684   0.52923   0.23039   0.00000  Uiso   1.00
C652   C     0.27116   0.55312   0.23054   0.00000  Uiso   1.00
C653   C     0.26028   0.60391   0.23159   0.00000  Uiso   1.00
C654   C     0.25152   0.43274   0.27711   0.00000  Uiso   1.00
C655   C     0.26877   0.42381   0.31984   0.00000  Uiso   1.00
C656   C     0.24483   0.39948   0.36091   0.00000  Uiso   1.00
C657   C     0.21871   0.36134   0.43739   0.00000  Uiso   1.00
C658   C     0.19905   0.43144   0.22498   0.00000  Uiso   1.00
C659   C     0.54728   0.08664   0.84136   0.00000  Uiso   1.00
C660   C     0.52514   0.06406   0.79763   0.00000  Uiso   1.00
C661   C     0.54419   0.05683   0.75556   0.00000  Uiso   1.00
C662   C     0.22159   0.47518   0.22687   0.00000  Uiso   1.00
C663   C     0.20587   0.49901   0.22703   0.00000  Uiso   1.00
C664   C     0.23134   0.53826   0.22889   0.00000  Uiso   1.00
C665   C     0.21177   0.41790   0.27546   0.00000  Uiso   1.00
C666   C     0.18780   0.39358   0.31647   0.00000  Uiso   1.00
C667   C     0.20501   0.38461   0.35925   0.00000  Uiso   1.00
H668   H     0.96985   0.80365   0.56264   0.00000  Uiso   1.00
H669   H     0.97021   0.77244   0.46895   0.00000  Uiso   1.00
H670   H     0.31760   0.54071   0.23167   0.00000  Uiso   1.00
H671   H     0.29953   0.43530   0.32110   0.00000  Uiso   1.00
H672   H     0.61975   0.06465   0.69767   0.00000  Uiso   1.00
H673   H     0.31605   0.61221   0.23356   0.00000  Uiso   1.00
H674   H     0.27795   0.38993   0.42215   0.00000  Uiso   1.00
H675   H     0.16811   0.41989   0.22370   0.00000  Uiso   1.00
H676   H     0.49438   0.05258   0.79636   0.00000  Uiso   1.00
H677   H     0.17511   0.48751   0.22575   0.00000  Uiso   1.00
H678   H     0.15704   0.38210   0.31518   0.00000  Uiso   1.00
H679   H     0.50410   0.02147   0.69287   0.00000  Uiso   1.00
H680   H     0.20040   0.56904   0.22876   0.00000  Uiso   1.00
H681   H     0.16230   0.34675   0.41734   0.00000  Uiso   1.00
O682   O     0.55972   0.02163   0.63352   0.00000  Uiso   1.00
O683   O     0.26527   0.63602   0.23262   0.00000  Uiso   1.00
O684   O     0.21529   0.34440   0.48003   0.00000  Uiso   1.00
N685   N     0.59349   0.05914   0.70945   0.00000  Uiso   1.00
N686   N     0.28787   0.59277   0.23215   0.00000  Uiso   1.00
N687   N     0.25226   0.38496   0.40847   0.00000  Uiso   1.00
N688   N     0.53126   0.03591   0.70686   0.00000  Uiso   1.00
N689   N     0.22564   0.56953   0.22957   0.00000  Uiso   1.00
N690   N     0.19003   0.36173   0.40588   0.00000  Uiso   1.00
C691   C     0.85319   0.06110   0.56135   0.00000  Uiso   1.00
C692   C     0.51444   0.41297   0.84301   0.00000  Uiso   1.00
C693   C     0.48817   0.39389   0.80099   0.00000  Uiso   1.00
C694   C     0.15436   0.74932   0.09054   0.00000  Uiso   1.00
C695   C     0.14218   0.77206   0.01054   0.00000  Uiso   1.00
C696   C     0.89534   0.07200   0.56186   0.00000  Uiso   1.00
C697   C     0.90906   0.04650   0.56372   0.00000  Uiso   1.00
C698   C     0.94862   0.06217   0.56388   0.00000  Uiso   1.00
C699   C     0.01029   0.07305   0.56493   0.00000  Uiso   1.00
C700   C     0.84788   0.08181   0.61044   0.00000  Uiso   1.00
C701   C     0.82170   0.06456   0.65317   0.00000  Uiso   1.00
C702   C     0.82131   0.08850   0.69424   0.00000  Uiso   1.00
C703   C     0.80929   0.11462   0.77073   0.00000  Uiso   1.00
C704   C     0.89905   0.13428   0.55831   0.00000  Uiso   1.00
C705   C     0.20602   0.78605   0.17469   0.00000  Uiso   1.00
C706   C     0.20558   0.80819   0.13096   0.00000  Uiso   1.00
C707   C     0.17931   0.78915   0.08889   0.00000  Uiso   1.00
C708   C     0.92025   0.11175   0.56021   0.00000  Uiso   1.00
C709   C     0.95980   0.12746   0.56036   0.00000  Uiso   1.00
C710   C     0.97358   0.10199   0.56222   0.00000  Uiso   1.00
C711   C     0.87279   0.12156   0.60879   0.00000  Uiso   1.00
C712   C     0.87245   0.14553   0.64981   0.00000  Uiso   1.00
C713   C     0.84627   0.12832   0.69259   0.00000  Uiso   1.00
H714   H     0.50046   0.36348   0.89597   0.00000  Uiso   1.00
H715   H     0.46890   0.36313   0.80228   0.00000  Uiso   1.00
H716   H     0.88978   0.01574   0.56500   0.00000  Uiso   1.00
H717   H     0.80243   0.03380   0.65443   0.00000  Uiso   1.00
H718   H     0.11157   0.71359   0.03100   0.00000  Uiso   1.00
H719   H     0.96283   0.01729   0.56690   0.00000  Uiso   1.00
H720   H     0.77864   0.05538   0.75548   0.00000  Uiso   1.00
H721   H     0.91845   0.16523   0.55703   0.00000  Uiso   1.00
H722   H     0.22486   0.83895   0.12970   0.00000  Uiso   1.00
H723   H     0.97907   0.15823   0.55909   0.00000  Uiso   1.00
H724   H     0.89173   0.17629   0.64852   0.00000  Uiso   1.00
H725   H     0.18404   0.82924   0.02620   0.00000  Uiso   1.00
H726   H     0.03530   0.13293   0.56210   0.00000  Uiso   1.00
H727   H     0.85112   0.17103   0.75068   0.00000  Uiso   1.00
O728   O     0.12858   0.77361   0.96686   0.00000  Uiso   1.00
O729   O     0.03742   0.06807   0.56595   0.00000  Uiso   1.00
O730   O     0.79577   0.11804   0.81337   0.00000  Uiso   1.00
N731   N     0.13231   0.73984   0.04278   0.00000  Uiso   1.00
N732   N     0.97156   0.04546   0.56548   0.00000  Uiso   1.00
N733   N     0.79937   0.08108   0.74180   0.00000  Uiso   1.00
N734   N     0.17131   0.80207   0.04019   0.00000  Uiso   1.00
N735   N     0.01056   0.10769   0.56290   0.00000  Uiso   1.00
N736   N     0.83837   0.14331   0.73922   0.00000  Uiso   1.00
C737   C     0.51986   0.39443   0.89469   0.00000  Uiso   1.00
C738   C     0.18111   0.74630   0.17634   0.00000  Uiso   1.00
C739   C     0.15484   0.72722   0.13432   0.00000  Uiso   1.00
C740   C     0.82102   0.08266   0.42388   0.00000  Uiso   1.00
C741   C     0.80884   0.10539   0.34387   0.00000  Uiso   1.00
C742   C     0.56201   0.40533   0.89519   0.00000  Uiso   1.00
C743   C     0.57573   0.37983   0.89706   0.00000  Uiso   1.00
C744   C     0.61529   0.39551   0.89721   0.00000  Uiso   1.00
C745   C     0.67696   0.40638   0.89826   0.00000  Uiso   1.00
C746   C     0.51455   0.41515   0.94378   0.00000  Uiso   1.00
C747   C     0.48837   0.39790   0.98650   0.00000  Uiso   1.00
C748   C     0.48798   0.42184   0.02757   0.00000  Uiso   1.00
C749   C     0.47596   0.44795   0.10406   0.00000  Uiso   1.00
C750   C     0.56572   0.46761   0.89165   0.00000  Uiso   1.00
C751   C     0.87269   0.11938   0.50802   0.00000  Uiso   1.00
C752   C     0.87225   0.14152   0.46430   0.00000  Uiso   1.00
C753   C     0.84598   0.12248   0.42222   0.00000  Uiso   1.00
C754   C     0.58692   0.44508   0.89354   0.00000  Uiso   1.00
C755   C     0.62647   0.46080   0.89369   0.00000  Uiso   1.00
C756   C     0.64025   0.43533   0.89556   0.00000  Uiso   1.00
C757   C     0.53946   0.45490   0.94213   0.00000  Uiso   1.00
C758   C     0.53911   0.47887   0.98314   0.00000  Uiso   1.00
C759   C     0.51294   0.46166   0.02592   0.00000  Uiso   1.00
H760   H     0.16713   0.69682   0.22930   0.00000  Uiso   1.00
H761   H     0.13557   0.69646   0.13561   0.00000  Uiso   1.00
H762   H     0.55644   0.34907   0.89834   0.00000  Uiso   1.00
H763   H     0.46910   0.36714   0.98777   0.00000  Uiso   1.00
H764   H     0.77824   0.04692   0.36434   0.00000  Uiso   1.00
H765   H     0.62949   0.35062   0.90023   0.00000  Uiso   1.00
H766   H     0.44531   0.38871   0.08881   0.00000  Uiso   1.00
H767   H     0.58512   0.49856   0.89036   0.00000  Uiso   1.00
H768   H     0.89153   0.17228   0.46303   0.00000  Uiso   1.00
H769   H     0.64574   0.49156   0.89242   0.00000  Uiso   1.00
H770   H     0.55839   0.50962   0.98185   0.00000  Uiso   1.00
H771   H     0.85071   0.16257   0.35953   0.00000  Uiso   1.00
H772   H     0.70197   0.46627   0.89543   0.00000  Uiso   1.00
H773   H     0.51778   0.50436   0.08401   0.00000  Uiso   1.00
O774   O     0.79525   0.10695   0.30019   0.00000  Uiso   1.00
O775   O     0.70409   0.40140   0.89929   0.00000  Uiso   1.00
O776   O     0.46244   0.45138   0.14670   0.00000  Uiso   1.00
N777   N     0.79898   0.07317   0.37611   0.00000  Uiso   1.00
N778   N     0.63823   0.37880   0.89882   0.00000  Uiso   1.00
N779   N     0.46604   0.41441   0.07513   0.00000  Uiso   1.00
N780   N     0.83798   0.13540   0.37353   0.00000  Uiso   1.00
N781   N     0.67723   0.44103   0.89623   0.00000  Uiso   1.00
N782   N     0.50504   0.47664   0.07255   0.00000  Uiso   1.00
C783   C     0.18652   0.72776   0.22802   0.00000  Uiso   1.00
C784   C     0.84778   0.07963   0.50967   0.00000  Uiso   1.00
C785   C     0.82151   0.06055   0.46766   0.00000  Uiso   1.00
C786   C     0.48769   0.41599   0.75721   0.00000  Uiso   1.00
C787   C     0.47551   0.43872   0.67720   0.00000  Uiso   1.00
C788   C     0.22868   0.73866   0.22852   0.00000  Uiso   1.00
C789   C     0.24240   0.71316   0.23039   0.00000  Uiso   1.00
C790   C     0.28196   0.72884   0.23054   0.00000  Uiso   1.00
C791   C     0.34362   0.73972   0.23159   0.00000  Uiso   1.00
C792   C     0.18122   0.74848   0.27711   0.00000  Uiso   1.00
C793   C     0.15504   0.73123   0.31984   0.00000  Uiso   1.00
C794   C     0.15465   0.75517   0.36091   0.00000  Uiso   1.00
C795   C     0.14262   0.78129   0.43739   0.00000  Uiso   1.00
C796   C     0.23239   0.80095   0.22498   0.00000  Uiso   1.00
C797   C     0.53936   0.45272   0.84136   0.00000  Uiso   1.00
C798   C     0.53891   0.47486   0.79763   0.00000  Uiso   1.00
C799   C     0.51265   0.45581   0.75556   0.00000  Uiso   1.00
C800   C     0.25359   0.77841   0.22687   0.00000  Uiso   1.00
C801   C     0.29314   0.79413   0.22703   0.00000  Uiso   1.00
C802   C     0.30691   0.76866   0.22889   0.00000  Uiso   1.00
C803   C     0.20613   0.78823   0.27546   0.00000  Uiso   1.00
C804   C     0.20578   0.81220   0.31647   0.00000  Uiso   1.00
C805   C     0.17960   0.79499   0.35925   0.00000  Uiso   1.00
H806   H     0.83380   0.03015   0.56264   0.00000  Uiso   1.00
H807   H     0.80223   0.02979   0.46895   0.00000  Uiso   1.00
H808   H     0.22311   0.68240   0.23167   0.00000  Uiso   1.00
H809   H     0.13577   0.70047   0.32110   0.00000  Uiso   1.00
H810   H     0.44490   0.38025   0.69767   0.00000  Uiso   1.00
H811   H     0.29616   0.68395   0.23356   0.00000  Uiso   1.00
H812   H     0.11197   0.72205   0.42215   0.00000  Uiso   1.00
H813   H     0.25178   0.83189   0.22370   0.00000  Uiso   1.00
H814   H     0.55819   0.50562   0.79636   0.00000  Uiso   1.00
H815   H     0.31241   0.82489   0.22575   0.00000  Uiso   1.00
H816   H     0.22506   0.84296   0.31518   0.00000  Uiso   1.00
H817   H     0.51738   0.49590   0.69287   0.00000  Uiso   1.00
H818   H     0.36864   0.79960   0.22876   0.00000  Uiso   1.00
H819   H     0.18445   0.83770   0.41734   0.00000  Uiso   1.00
O820   O     0.46191   0.44028   0.63352   0.00000  Uiso   1.00
O821   O     0.37075   0.73473   0.23262   0.00000  Uiso   1.00
O822   O     0.12911   0.78471   0.48003   0.00000  Uiso   1.00
N823   N     0.46565   0.40651   0.70945   0.00000  Uiso   1.00
N824   N     0.30490   0.71213   0.23215   0.00000  Uiso   1.00
N825   N     0.13271   0.74774   0.40847   0.00000  Uiso   1.00
N826   N     0.50465   0.46874   0.70686   0.00000  Uiso   1.00
N827   N     0.34390   0.77436   0.22957   0.00000  Uiso   1.00
N828   N     0.17170   0.80997   0.40588   0.00000  Uiso   1.00
C829   C     0.85319   0.79209   0.06135   0.00000  Uiso   1.00
C830   C     0.51444   0.10148   0.34301   0.00000  Uiso   1.00
C831   C     0.48817   0.09428   0.30099   0.00000  Uiso   1.00
C832   C     0.15436   0.40503   0.59054   0.00000  Uiso   1.00
C833   C     0.14218   0.37012   0.51054   0.00000  Uiso   1.00
C834   C     0.89534   0.82335   0.06186   0.00000  Uiso   1.00
C835   C     0.90906   0.86257   0.06372   0.00000  Uiso   1.00
C836   C     0.94862   0.88645   0.06388   0.00000  Uiso   1.00
C837   C     0.01029   0.93724   0.06493   0.00000  Uiso   1.00
C838   C     0.84788   0.76607   0.11044   0.00000  Uiso   1.00
C839   C     0.82170   0.75714   0.15317   0.00000  Uiso   1.00
C840   C     0.82131   0.73281   0.19424   0.00000  Uiso   1.00
C841   C     0.80929   0.69467   0.27073   0.00000  Uiso   1.00
C842   C     0.89905   0.76477   0.05831   0.00000  Uiso   1.00
C843   C     0.20602   0.41997   0.67469   0.00000  Uiso   1.00
C844   C     0.20558   0.39739   0.63096   0.00000  Uiso   1.00
C845   C     0.17931   0.39017   0.58889   0.00000  Uiso   1.00
C846   C     0.92025   0.80851   0.06021   0.00000  Uiso   1.00
C847   C     0.95980   0.83234   0.06036   0.00000  Uiso   1.00
C848   C     0.97358   0.87159   0.06222   0.00000  Uiso   1.00
C849   C     0.87279   0.75123   0.10879   0.00000  Uiso   1.00
C850   C     0.87245   0.72691   0.14981   0.00000  Uiso   1.00
C851   C     0.84627   0.71795   0.19259   0.00000  Uiso   1.00
H852   H     0.50046   0.13698   0.39597   0.00000  Uiso   1.00
H853   H     0.46890   0.10578   0.30228   0.00000  Uiso   1.00
H854   H     0.88978   0.87404   0.06500   0.00000  Uiso   1.00
H855   H     0.80243   0.76863   0.15443   0.00000  Uiso   1.00
H856   H     0.11157   0.39798   0.53100   0.00000  Uiso   1.00
H857   H     0.96283   0.94554   0.06690   0.00000  Uiso   1.00
H858   H     0.77864   0.72326   0.25548   0.00000  Uiso   1.00
H859   H     0.91845   0.75322   0.05703   0.00000  Uiso   1.00
H860   H     0.22486   0.38591   0.62970   0.00000  Uiso   1.00
H861   H     0.97907   0.82085   0.05909   0.00000  Uiso   1.00
H862   H     0.89173   0.71544   0.14852   0.00000  Uiso   1.00
H863   H     0.18404   0.35481   0.52620   0.00000  Uiso   1.00
H864   H     0.03530   0.90237   0.06210   0.00000  Uiso   1.00
H865   H     0.85112   0.68009   0.25068   0.00000  Uiso   1.00
O866   O     0.12858   0.35497   0.46686   0.00000  Uiso   1.00
O867   O     0.03742   0.96936   0.06595   0.00000  Uiso   1.00
O868   O     0.79577   0.67773   0.31337   0.00000  Uiso   1.00
N869   N     0.13231   0.39248   0.54278   0.00000  Uiso   1.00
N870   N     0.97156   0.92610   0.06548   0.00000  Uiso   1.00
N871   N     0.79937   0.71829   0.24180   0.00000  Uiso   1.00
N872   N     0.17131   0.36924   0.54019   0.00000  Uiso   1.00
N873   N     0.01056   0.90287   0.06290   0.00000  Uiso   1.00
N874   N     0.83837   0.69506   0.23922   0.00000  Uiso   1.00
C875   C     0.51986   0.12542   0.39469   0.00000  Uiso   1.00
C876   C     0.18111   0.43481   0.67634   0.00000  Uiso   1.00
C877   C     0.15484   0.42762   0.63432   0.00000  Uiso   1.00
C878   C     0.82102   0.73837   0.92388   0.00000  Uiso   1.00
C879   C     0.80884   0.70345   0.84387   0.00000  Uiso   1.00
C880   C     0.56201   0.15668   0.39519   0.00000  Uiso   1.00
C881   C     0.57573   0.19590   0.39706   0.00000  Uiso   1.00
C882   C     0.61529   0.21979   0.39721   0.00000  Uiso   1.00
C883   C     0.67696   0.27058   0.39826   0.00000  Uiso   1.00
C884   C     0.51455   0.09940   0.44378   0.00000  Uiso   1.00
C885   C     0.48837   0.09047   0.48650   0.00000  Uiso   1.00
C886   C     0.48798   0.06614   0.52757   0.00000  Uiso   1.00
C887   C     0.47596   0.02800   0.60406   0.00000  Uiso   1.00
C888   C     0.56572   0.09811   0.39165   0.00000  Uiso   1.00
C889   C     0.87269   0.75331   0.00802   0.00000  Uiso   1.00
C890   C     0.87225   0.73072   0.96430   0.00000  Uiso   1.00
C891   C     0.84598   0.72350   0.92222   0.00000  Uiso   1.00
C892   C     0.58692   0.14184   0.39354   0.00000  Uiso   1.00
C893   C     0.62647   0.16567   0.39369   0.00000  Uiso   1.00
C894   C     0.64025   0.20492   0.39556   0.00000  Uiso   1.00
C895   C     0.53946   0.08456   0.44213   0.00000  Uiso   1.00
C896   C     0.53911   0.06025   0.48314   0.00000  Uiso   1.00
C897   C     0.51294   0.05128   0.52592   0.00000  Uiso   1.00
H898   H     0.16713   0.47031   0.72930   0.00000  Uiso   1.00
H899   H     0.13557   0.43911   0.63561   0.00000  Uiso   1.00
H900   H     0.55644   0.20737   0.39834   0.00000  Uiso   1.00
H901   H     0.46910   0.10196   0.48777   0.00000  Uiso   1.00
H902   H     0.77824   0.73131   0.86434   0.00000  Uiso   1.00
H903   H     0.62949   0.27887   0.40023   0.00000  Uiso   1.00
H904   H     0.44531   0.05659   0.58881   0.00000  Uiso   1.00
H905   H     0.58512   0.08655   0.39036   0.00000  Uiso   1.00
H906   H     0.89153   0.71925   0.96303   0.00000  Uiso   1.00
H907   H     0.64574   0.15418   0.39242   0.00000  Uiso   1.00
H908   H     0.55839   0.04877   0.48185   0.00000  Uiso   1.00
H909   H     0.85071   0.68814   0.85953   0.00000  Uiso   1.00
H910   H     0.70197   0.23570   0.39543   0.00000  Uiso   1.00
H911   H     0.51778   0.01342   0.58401   0.00000  Uiso   1.00
O912   O     0.79525   0.68830   0.80019   0.00000  Uiso   1.00
O913   O     0.70409   0.30269   0.39929   0.00000  Uiso   1.00
O914   O     0.46244   0.01106   0.64670   0.00000  Uiso   1.00
N915   N     0.79898   0.72581   0.87611   0.00000  Uiso   1.00
N916   N     0.63823   0.25943   0.39882   0.00000  Uiso   1.00
N917   N     0.46604   0.05163   0.57513   0.00000  Uiso   1.00
N918   N     0.83798   0.70258   0.87353   0.00000  Uiso   1.00
N919   N     0.67723   0.23620   0.39623   0.00000  Uiso   1.00
N920   N     0.50504   0.02840   0.57255   0.00000  Uiso   1.00
C921   C     0.18652   0.45876   0.72802   0.00000  Uiso   1.00
C922   C     0.84778   0.76814   0.00967   0.00000  Uiso   1.00
C923   C     0.82151   0.76095   0.96766   0.00000  Uiso   1.00
C924   C     0.48769   0.07170   0.25721   0.00000  Uiso   1.00
C925   C     0.47551   0.03679   0.17720   0.00000  Uiso   1.00
C926   C     0.22868   0.49001   0.72852   0.00000  Uiso   1.00
C927   C     0.24240   0.52923   0.73039   0.00000  Uiso   1.00
C928   C     0.28196   0.55312   0.73054   0.00000  Uiso   1.00
C929   C     0.34362   0.60391   0.73159   0.00000  Uiso   1.00
C930   C     0.18122   0.43274   0.77711   0.00000  Uiso   1.00
C931   C     0.15504   0.42381   0.81984   0.00000  Uiso   1.00
C932   C     0.15465   0.39948   0.86091   0.00000  Uiso   1.00
C933   C     0.14262   0.36134   0.93739   0.00000  Uiso   1.00
C934   C     0.23239   0.43144   0.72498   0.00000  Uiso   1.00
C935   C     0.53936   0.08664   0.34136   0.00000  Uiso   1.00
C936   C     0.53891   0.06406   0.29763   0.00000  Uiso   1.00
C937   C     0.51265   0.05683   0.25556   0.00000  Uiso   1.00
C938   C     0.25359   0.47518   0.72687   0.00000  Uiso   1.00
C939   C     0.29314   0.49901   0.72703   0.00000  Uiso   1.00
C940   C     0.30691   0.53826   0.72889   0.00000  Uiso   1.00
C941   C     0.20613   0.41790   0.77546   0.00000  Uiso   1.00
C942   C     0.20578   0.39358   0.81647   0.00000  Uiso   1.00
C943   C     0.17960   0.38461   0.85925   0.00000  Uiso   1.00
H944   H     0.83380   0.80365   0.06264   0.00000  Uiso   1.00
H945   H     0.80223   0.77244   0.96895   0.00000  Uiso   1.00
H946   H     0.22311   0.54071   0.73167   0.00000  Uiso   1.00
H947   H     0.13577   0.43530   0.82110   0.00000  Uiso   1.00
H948   H     0.44490   0.06465   0.19767   0.00000  Uiso   1.00
H949   H     0.29616   0.61221   0.73356   0.00000  Uiso   1.00
H950   H     0.11197   0.38993   0.92215   0.00000  Uiso   1.00
H951   H     0.25178   0.41989   0.72370   0.00000  Uiso   1.00
H952   H     0.55819   0.05258   0.29636   0.00000  Uiso   1.00
H953   H     0.31241   0.48751   0.72575   0.00000  Uiso   1.00
H954   H     0.22506   0.38210   0.81518   0.00000  Uiso   1.00
H955   H     0.51738   0.02147   0.19287   0.00000  Uiso   1.00
H956   H     0.36864   0.56904   0.72876   0.00000  Uiso   1.00
H957   H     0.18445   0.34675   0.91734   0.00000  Uiso   1.00
O958   O     0.46191   0.02163   0.13352   0.00000  Uiso   1.00
O959   O     0.37075   0.63602   0.73262   0.00000  Uiso   1.00
O960   O     0.12911   0.34440   0.98003   0.00000  Uiso   1.00
N961   N     0.46565   0.05914   0.20945   0.00000  Uiso   1.00
N962   N     0.30490   0.59277   0.73215   0.00000  Uiso   1.00
N963   N     0.13271   0.38496   0.90847   0.00000  Uiso   1.00
N964   N     0.50465   0.03591   0.20686   0.00000  Uiso   1.00
N965   N     0.34390   0.56953   0.72957   0.00000  Uiso   1.00
N966   N     0.17170   0.36173   0.90588   0.00000  Uiso   1.00
C967   C     0.20791   0.06110   0.06135   0.00000  Uiso   1.00
C968   C     0.89852   0.41297   0.34301   0.00000  Uiso   1.00
C969   C     0.90572   0.39389   0.30099   0.00000  Uiso   1.00
C970   C     0.59497   0.74932   0.59054   0.00000  Uiso   1.00
C971   C     0.62988   0.77206   0.51054   0.00000  Uiso   1.00
C972   C     0.17665   0.07200   0.06186   0.00000  Uiso   1.00
C973   C     0.13743   0.04650   0.06372   0.00000  Uiso   1.00
C974   C     0.11355   0.06217   0.06388   0.00000  Uiso   1.00
C975   C     0.06276   0.07305   0.06493   0.00000  Uiso   1.00
C976   C     0.23393   0.08181   0.11044   0.00000  Uiso   1.00
C977   C     0.24286   0.06456   0.15317   0.00000  Uiso   1.00
C978   C     0.26719   0.08850   0.19424   0.00000  Uiso   1.00
C979   C     0.30533   0.11462   0.27073   0.00000  Uiso   1.00
C980   C     0.23523   0.13428   0.05831   0.00000  Uiso   1.00
C981   C     0.58003   0.78605   0.67469   0.00000  Uiso   1.00
C982   C     0.60261   0.80819   0.63096   0.00000  Uiso   1.00
C983   C     0.60983   0.78915   0.58889   0.00000  Uiso   1.00
C984   C     0.19149   0.11175   0.06021   0.00000  Uiso   1.00
C985   C     0.16766   0.12746   0.06036   0.00000  Uiso   1.00
C986   C     0.12841   0.10199   0.06222   0.00000  Uiso   1.00
C987   C     0.24877   0.12156   0.10879   0.00000  Uiso   1.00
C988   C     0.27309   0.14553   0.14981   0.00000  Uiso   1.00
C989   C     0.28205   0.12832   0.19259   0.00000  Uiso   1.00
H990   H     0.86302   0.36348   0.39597   0.00000  Uiso   1.00
H991   H     0.89422   0.36313   0.30228   0.00000  Uiso   1.00
H992   H     0.12596   0.01574   0.06500   0.00000  Uiso   1.00
H993   H     0.23137   0.03380   0.15443   0.00000  Uiso   1.00
H994   H     0.60202   0.71359   0.53100   0.00000  Uiso   1.00
H995   H     0.05446   0.01729   0.06690   0.00000  Uiso   1.00
H996   H     0.27674   0.05538   0.25548   0.00000  Uiso   1.00
H997   H     0.24678   0.16523   0.05703   0.00000  Uiso   1.00
H998   H     0.61409   0.83895   0.62970   0.00000  Uiso   1.00
H999   H     0.17915   0.15823   0.05909   0.00000  Uiso   1.00
H1000  H     0.28456   0.17629   0.14852   0.00000  Uiso   1.00
H1001  H     0.64519   0.82924   0.52620   0.00000  Uiso   1.00
H1002  H     0.09763   0.13293   0.06210   0.00000  Uiso   1.00
H1003  H     0.31991   0.17103   0.25068   0.00000  Uiso   1.00
O1004  O     0.64503   0.77361   0.46686   0.00000  Uiso   1.00
O1005  O     0.03064   0.06807   0.06595   0.00000  Uiso   1.00
O1006  O     0.32227   0.11804   0.31337   0.00000  Uiso   1.00
N1007  N     0.60752   0.73984   0.54278   0.00000  Uiso   1.00
N1008  N     0.07390   0.04546   0.06548   0.00000  Uiso   1.00
N1009  N     0.28171   0.08108   0.24180   0.00000  Uiso   1.00
N1010  N     0.63076   0.80207   0.54019   0.00000  Uiso   1.00
N1011  N     0.09713   0.10769   0.06290   0.00000  Uiso   1.00
N1012  N     0.30494   0.14331   0.23922   0.00000  Uiso   1.00
C1013  C     0.87458   0.39443   0.39469   0.00000  Uiso   1.00
C1014  C     0.56519   0.74630   0.67634   0.00000  Uiso   1.00
C1015  C     0.57238   0.72722   0.63432   0.00000  Uiso   1.00
C1016  C     0.26163   0.08266   0.92388   0.00000  Uiso   1.00
C1017  C     0.29655   0.10539   0.84387   0.00000  Uiso   1.00
C1018  C     0.84332   0.40533   0.39519   0.00000  Uiso   1.00
C1019  C     0.80410   0.37983   0.39706   0.00000  Uiso   1.00
C1020  C     0.78021   0.39551   0.39721   0.00000  Uiso   1.00
C1021  C     0.72942   0.40638   0.39826   0.00000  Uiso   1.00
C1022  C     0.90060   0.41515   0.44378   0.00000  Uiso   1.00
C1023  C     0.90953   0.39790   0.48650   0.00000  Uiso   1.00
C1024  C     0.93386   0.42184   0.52757   0.00000  Uiso   1.00
C1025  C     0.97200   0.44795   0.60406   0.00000  Uiso   1.00
C1026  C     0.90189   0.46761   0.39165   0.00000  Uiso   1.00
C1027  C     0.24669   0.11938   0.00802   0.00000  Uiso   1.00
C1028  C     0.26928   0.14152   0.96430   0.00000  Uiso   1.00
C1029  C     0.27650   0.12248   0.92222   0.00000  Uiso   1.00
C1030  C     0.85816   0.44508   0.39354   0.00000  Uiso   1.00
C1031  C     0.83433   0.46080   0.39369   0.00000  Uiso   1.00
C1032  C     0.79508   0.43533   0.39556   0.00000  Uiso   1.00
C1033  C     0.91544   0.45490   0.44213   0.00000  Uiso   1.00
C1034  C     0.93975   0.47887   0.48314   0.00000  Uiso   1.00
C1035  C     0.94872   0.46166   0.52592   0.00000  Uiso   1.00
H1036  H     0.52969   0.69682   0.72930   0.00000  Uiso   1.00
H1037  H     0.56089   0.69646   0.63561   0.00000  Uiso   1.00
H1038  H     0.79263   0.34907   0.39834   0.00000  Uiso   1.00
H1039  H     0.89804   0.36714   0.48777   0.00000  Uiso   1.00
H1040  H     0.26869   0.04692   0.86434   0.00000  Uiso   1.00
H1041  H     0.72113   0.35062   0.40023   0.00000  Uiso   1.00
H1042  H     0.94341   0.38871   0.58881   0.00000  Uiso   1.00
H1043  H     0.91345   0.49856   0.39036   0.00000  Uiso   1.00
H1044  H     0.28075   0.17228   0.96303   0.00000  Uiso   1.00
H1045  H     0.84582   0.49156   0.39242   0.00000  Uiso   1.00
H1046  H     0.95123   0.50962   0.48185   0.00000  Uiso   1.00
H1047  H     0.31186   0.16257   0.85953   0.00000  Uiso   1.00
H1048  H     0.76430   0.46627   0.39543   0.00000  Uiso   1.00
H1049  H     0.98658   0.50436   0.58401   0.00000  Uiso   1.00
O1050  O     0.31170   0.10695   0.80019   0.00000  Uiso   1.00
O1051  O     0.69731   0.40140   0.39929   0.00000  Uiso   1.00
O1052  O     0.98894   0.45138   0.64670   0.00000  Uiso   1.00
N1053  N     0.27419   0.07317   0.87611   0.00000  Uiso   1.00
N1054  N     0.74057   0.37880   0.39882   0.00000  Uiso   1.00
N1055  N     0.94837   0.41441   0.57513   0.00000  Uiso   1.00
N1056  N     0.29742   0.13540   0.87353   0.00000  Uiso   1.00
N1057  N     0.76380   0.44103   0.39623   0.00000  Uiso   1.00
N1058  N     0.97160   0.47664   0.57255   0.00000  Uiso   1.00
C1059  C     0.54124   0.72776   0.72802   0.00000  Uiso   1.00
C1060  C     0.23186   0.07963   0.00967   0.00000  Uiso   1.00
C1061  C     0.23905   0.06055   0.96766   0.00000  Uiso   1.00
C1062  C     0.92830   0.41599   0.25721   0.00000  Uiso   1.00
C1063  C     0.96321   0.43872   0.17720   0.00000  Uiso   1.00
C1064  C     0.50999   0.73866   0.72852   0.00000  Uiso   1.00
C1065  C     0.47077   0.71316   0.73039   0.00000  Uiso   1.00
C1066  C     0.44688   0.72884   0.73054   0.00000  Uiso   1.00
C1067  C     0.39609   0.73972   0.73159   0.00000  Uiso   1.00
C1068  C     0.56726   0.74848   0.77711   0.00000  Uiso   1.00
C1069  C     0.57619   0.73123   0.81984   0.00000  Uiso   1.00
C1070  C     0.60052   0.75517   0.86091   0.00000  Uiso   1.00
C1071  C     0.63866   0.78129   0.93739   0.00000  Uiso   1.00
C1072  C     0.56856   0.80095   0.72498   0.00000  Uiso   1.00
C1073  C     0.91336   0.45272   0.34136   0.00000  Uiso   1.00
C1074  C     0.93594   0.47486   0.29763   0.00000  Uiso   1.00
C1075  C     0.94317   0.45581   0.25556   0.00000  Uiso   1.00
C1076  C     0.52482   0.77841   0.72687   0.00000  Uiso   1.00
C1077  C     0.50099   0.79413   0.72703   0.00000  Uiso   1.00
C1078  C     0.46174   0.76866   0.72889   0.00000  Uiso   1.00
C1079  C     0.58210   0.78823   0.77546   0.00000  Uiso   1.00
C1080  C     0.60642   0.81220   0.81647   0.00000  Uiso   1.00
C1081  C     0.61539   0.79499   0.85925   0.00000  Uiso   1.00
H1082  H     0.19635   0.03015   0.06264   0.00000  Uiso   1.00
H1083  H     0.22756   0.02979   0.96895   0.00000  Uiso   1.00
H1084  H     0.45929   0.68240   0.73167   0.00000  Uiso   1.00
H1085  H     0.56470   0.70047   0.82110   0.00000  Uiso   1.00
H1086  H     0.93535   0.38025   0.19767   0.00000  Uiso   1.00
H1087  H     0.38779   0.68395   0.73356   0.00000  Uiso   1.00
H1088  H     0.61007   0.72205   0.92215   0.00000  Uiso   1.00
H1089  H     0.58011   0.83189   0.72370   0.00000  Uiso   1.00
H1090  H     0.94742   0.50562   0.29636   0.00000  Uiso   1.00
H1091  H     0.51249   0.82489   0.72575   0.00000  Uiso   1.00
H1092  H     0.61790   0.84296   0.81518   0.00000  Uiso   1.00
H1093  H     0.97853   0.49590   0.19287   0.00000  Uiso   1.00
H1094  H     0.43096   0.79960   0.72876   0.00000  Uiso   1.00
H1095  H     0.65325   0.83770   0.91734   0.00000  Uiso   1.00
O1096  O     0.97837   0.44028   0.13352   0.00000  Uiso   1.00
O1097  O     0.36398   0.73473   0.73262   0.00000  Uiso   1.00
O1098  O     0.65560   0.78471   0.98003   0.00000  Uiso   1.00
N1099  N     0.94086   0.40651   0.20945   0.00000  Uiso   1.00
N1100  N     0.40723   0.71213   0.73215   0.00000  Uiso   1.00
N1101  N     0.61504   0.74774   0.90847   0.00000  Uiso   1.00
N1102  N     0.96409   0.46874   0.20686   0.00000  Uiso   1.00
N1103  N     0.43047   0.77436   0.72957   0.00000  Uiso   1.00
N1104  N     0.63827   0.80997   0.90588   0.00000  Uiso   1.00
C1105  C     0.93890   0.14681   0.06135   0.00000  Uiso   1.00
C1106  C     0.58703   0.48556   0.34301   0.00000  Uiso   1.00
C1107  C     0.60611   0.51183   0.30099   0.00000  Uiso   1.00
C1108  C     0.25068   0.84564   0.59054   0.00000  Uiso   1.00
C1109  C     0.22794   0.85782   0.51054   0.00000  Uiso   1.00
C1110  C     0.92800   0.10466   0.06186   0.00000  Uiso   1.00
C1111  C     0.95350   0.09094   0.06372   0.00000  Uiso   1.00
C1112  C     0.93783   0.05138   0.06388   0.00000  Uiso   1.00
C1113  C     0.92695   0.98971   0.06493   0.00000  Uiso   1.00
C1114  C     0.91819   0.15212   0.11044   0.00000  Uiso   1.00
C1115  C     0.93544   0.17830   0.15317   0.00000  Uiso   1.00
C1116  C     0.91150   0.17869   0.19424   0.00000  Uiso   1.00
C1117  C     0.88538   0.19071   0.27073   0.00000  Uiso   1.00
C1118  C     0.86572   0.10095   0.05831   0.00000  Uiso   1.00
C1119  C     0.21395   0.79398   0.67469   0.00000  Uiso   1.00
C1120  C     0.19181   0.79442   0.63096   0.00000  Uiso   1.00
C1121  C     0.21085   0.82069   0.58889   0.00000  Uiso   1.00
C1122  C     0.88825   0.07975   0.06021   0.00000  Uiso   1.00
C1123  C     0.87254   0.04020   0.06036   0.00000  Uiso   1.00
C1124  C     0.89801   0.02642   0.06222   0.00000  Uiso   1.00
C1125  C     0.87844   0.12721   0.10879   0.00000  Uiso   1.00
C1126  C     0.85447   0.12755   0.14981   0.00000  Uiso   1.00
C1127  C     0.87168   0.15373   0.19259   0.00000  Uiso   1.00
H1128  H     0.63652   0.49954   0.39597   0.00000  Uiso   1.00
H1129  H     0.63687   0.53110   0.30228   0.00000  Uiso   1.00
H1130  H     0.98426   0.11022   0.06500   0.00000  Uiso   1.00
H1131  H     0.96620   0.19757   0.15443   0.00000  Uiso   1.00
H1132  H     0.28641   0.88843   0.53100   0.00000  Uiso   1.00
H1133  H     0.98271   0.03717   0.06690   0.00000  Uiso   1.00
H1134  H     0.94462   0.22136   0.25548   0.00000  Uiso   1.00
H1135  H     0.83477   0.08155   0.05703   0.00000  Uiso   1.00
H1136  H     0.16105   0.77514   0.62970   0.00000  Uiso   1.00
H1137  H     0.84177   0.02093   0.05909   0.00000  Uiso   1.00
H1138  H     0.82371   0.10827   0.14852   0.00000  Uiso   1.00
H1139  H     0.17076   0.81596   0.52620   0.00000  Uiso   1.00
H1140  H     0.86707   0.96470   0.06210   0.00000  Uiso   1.00
H1141  H     0.82897   0.14888   0.25068   0.00000  Uiso   1.00
O1142  O     0.22639   0.87142   0.46686   0.00000  Uiso   1.00
O1143  O     0.93193   0.96258   0.06595   0.00000  Uiso   1.00
O1144  O     0.88196   0.20423   0.31337   0.00000  Uiso   1.00
N1145  N     0.26016   0.86769   0.54278   0.00000  Uiso   1.00
N1146  N     0.95454   0.02844   0.06548   0.00000  Uiso   1.00
N1147  N     0.91892   0.20063   0.24180   0.00000  Uiso   1.00
N1148  N     0.19793   0.82869   0.54019   0.00000  Uiso   1.00
N1149  N     0.89231   0.98944   0.06290   0.00000  Uiso   1.00
N1150  N     0.85669   0.16163   0.23922   0.00000  Uiso   1.00
C1151  C     0.60557   0.48014   0.39469   0.00000  Uiso   1.00
C1152  C     0.25370   0.81889   0.67634   0.00000  Uiso   1.00
C1153  C     0.27278   0.84516   0.63432   0.00000  Uiso   1.00
C1154  C     0.91734   0.17898   0.92388   0.00000  Uiso   1.00
C1155  C     0.89461   0.19116   0.84387   0.00000  Uiso   1.00
C1156  C     0.59467   0.43799   0.39519   0.00000  Uiso   1.00
C1157  C     0.62017   0.42427   0.39706   0.00000  Uiso   1.00
C1158  C     0.60449   0.38471   0.39721   0.00000  Uiso   1.00
C1159  C     0.59362   0.32304   0.39826   0.00000  Uiso   1.00
C1160  C     0.58485   0.48545   0.44378   0.00000  Uiso   1.00
C1161  C     0.60210   0.51163   0.48650   0.00000  Uiso   1.00
C1162  C     0.57816   0.51202   0.52757   0.00000  Uiso   1.00
C1163  C     0.55205   0.52404   0.60406   0.00000  Uiso   1.00
C1164  C     0.53239   0.43428   0.39165   0.00000  Uiso   1.00
C1165  C     0.88062   0.12731   0.00802   0.00000  Uiso   1.00
C1166  C     0.85848   0.12775   0.96430   0.00000  Uiso   1.00
C1167  C     0.87752   0.15402   0.92222   0.00000  Uiso   1.00
C1168  C     0.55492   0.41308   0.39354   0.00000  Uiso   1.00
C1169  C     0.53920   0.37353   0.39369   0.00000  Uiso   1.00
C1170  C     0.56467   0.35975   0.39556   0.00000  Uiso   1.00
C1171  C     0.54510   0.46054   0.44213   0.00000  Uiso   1.00
C1172  C     0.52113   0.46089   0.48314   0.00000  Uiso   1.00
C1173  C     0.53834   0.48706   0.52592   0.00000  Uiso   1.00
H1174  H     0.30318   0.83287   0.72930   0.00000  Uiso   1.00
H1175  H     0.30354   0.86443   0.63561   0.00000  Uiso   1.00
H1176  H     0.65093   0.44356   0.39834   0.00000  Uiso   1.00
H1177  H     0.63286   0.53090   0.48777   0.00000  Uiso   1.00
H1178  H     0.95308   0.22176   0.86434   0.00000  Uiso   1.00
H1179  H     0.64938   0.37051   0.40023   0.00000  Uiso   1.00
H1180  H     0.61129   0.55469   0.58881   0.00000  Uiso   1.00
H1181  H     0.50144   0.41488   0.39036   0.00000  Uiso   1.00
H1182  H     0.82772   0.10847   0.96303   0.00000  Uiso   1.00
H1183  H     0.50844   0.35426   0.39242   0.00000  Uiso   1.00
H1184  H     0.49038   0.44161   0.48185   0.00000  Uiso   1.00
H1185  H     0.83743   0.14929   0.85953   0.00000  Uiso   1.00
H1186  H     0.53373   0.29803   0.39543   0.00000  Uiso   1.00
H1187  H     0.49564   0.48222   0.58401   0.00000  Uiso   1.00
O1188  O     0.89305   0.20475   0.80019   0.00000  Uiso   1.00
O1189  O     0.59860   0.29591   0.39929   0.00000  Uiso   1.00
O1190  O     0.54862   0.53756   0.64670   0.00000  Uiso   1.00
N1191  N     0.92683   0.20102   0.87611   0.00000  Uiso   1.00
N1192  N     0.62120   0.36177   0.39882   0.00000  Uiso   1.00
N1193  N     0.58559   0.53396   0.57513   0.00000  Uiso   1.00
N1194  N     0.86460   0.16202   0.87353   0.00000  Uiso   1.00
N1195  N     0.55897   0.32277   0.39623   0.00000  Uiso   1.00
N1196  N     0.52336   0.49496   0.57255   0.00000  Uiso   1.00
C1197  C     0.27224   0.81348   0.72802   0.00000  Uiso   1.00
C1198  C     0.92037   0.15222   0.00967   0.00000  Uiso   1.00
C1199  C     0.93945   0.17849   0.96766   0.00000  Uiso   1.00
C1200  C     0.58401   0.51231   0.25721   0.00000  Uiso   1.00
C1201  C     0.56128   0.52449   0.17720   0.00000  Uiso   1.00
C1202  C     0.26134   0.77132   0.72852   0.00000  Uiso   1.00
C1203  C     0.28684   0.75760   0.73039   0.00000  Uiso   1.00
C1204  C     0.27116   0.71804   0.73054   0.00000  Uiso   1.00
C1205  C     0.26028   0.65638   0.73159   0.00000  Uiso   1.00
C1206  C     0.25152   0.81878   0.77711   0.00000  Uiso   1.00
C1207  C     0.26877   0.84496   0.81984   0.00000  Uiso   1.00
C1208  C     0.24483   0.84535   0.86091   0.00000  Uiso   1.00
C1209  C     0.21871   0.85738   0.93739   0.00000  Uiso   1.00
C1210  C     0.19905   0.76761   0.72498   0.00000  Uiso   1.00
C1211  C     0.54728   0.46064   0.34136   0.00000  Uiso   1.00
C1212  C     0.52514   0.46109   0.29763   0.00000  Uiso   1.00
C1213  C     0.54419   0.48735   0.25556   0.00000  Uiso   1.00
C1214  C     0.22159   0.74641   0.72687   0.00000  Uiso   1.00
C1215  C     0.20587   0.70686   0.72703   0.00000  Uiso   1.00
C1216  C     0.23134   0.69309   0.72889   0.00000  Uiso   1.00
C1217  C     0.21177   0.79387   0.77546   0.00000  Uiso   1.00
C1218  C     0.18780   0.79422   0.81647   0.00000  Uiso   1.00
C1219  C     0.20501   0.82040   0.85925   0.00000  Uiso   1.00
H1220  H     0.96985   0.16620   0.06264   0.00000  Uiso   1.00
H1221  H     0.97021   0.19777   0.96895   0.00000  Uiso   1.00
H1222  H     0.31760   0.77689   0.73167   0.00000  Uiso   1.00
H1223  H     0.29953   0.86423   0.82110   0.00000  Uiso   1.00
H1224  H     0.61975   0.55510   0.19767   0.00000  Uiso   1.00
H1225  H     0.31605   0.70384   0.73356   0.00000  Uiso   1.00
H1226  H     0.27795   0.88803   0.92215   0.00000  Uiso   1.00
H1227  H     0.16811   0.74822   0.72370   0.00000  Uiso   1.00
H1228  H     0.49438   0.44181   0.29636   0.00000  Uiso   1.00
H1229  H     0.17511   0.68759   0.72575   0.00000  Uiso   1.00
H1230  H     0.15704   0.77494   0.81518   0.00000  Uiso   1.00
H1231  H     0.50410   0.48262   0.19287   0.00000  Uiso   1.00
H1232  H     0.20040   0.63136   0.72876   0.00000  Uiso   1.00
H1233  H     0.16230   0.81555   0.91734   0.00000  Uiso   1.00
O1234  O     0.55972   0.53809   0.13352   0.00000  Uiso   1.00
O1235  O     0.26527   0.62925   0.73262   0.00000  Uiso   1.00
O1236  O     0.21529   0.87089   0.98003   0.00000  Uiso   1.00
N1237  N     0.59349   0.53435   0.20945   0.00000  Uiso   1.00
N1238  N     0.28787   0.69510   0.73215   0.00000  Uiso   1.00
N1239  N     0.25226   0.86729   0.90847   0.00000  Uiso   1.00
N1240  N     0.53126   0.49535   0.20686   0.00000  Uiso   1.00
N1241  N     0.22564   0.65610   0.72957   0.00000  Uiso   1.00
N1242  N     0.19003   0.82830   0.90588   0.00000  Uiso   1.00
C1243  C     0.79209   0.85319   0.43865   0.00000  Uiso   1.00
C1244  C     0.10148   0.51444   0.15699   0.00000  Uiso   1.00
C1245  C     0.09428   0.48817   0.19901   0.00000  Uiso   1.00
C1246  C     0.40503   0.15436   0.90946   0.00000  Uiso   1.00
C1247  C     0.37012   0.14218   0.98946   0.00000  Uiso   1.00
C1248  C     0.82335   0.89534   0.43814   0.00000  Uiso   1.00
C1249  C     0.86257   0.90906   0.43628   0.00000  Uiso   1.00
C1250  C     0.88645   0.94862   0.43612   0.00000  Uiso   1.00
C1251  C     0.93724   0.01029   0.43507   0.00000  Uiso   1.00
C1252  C     0.76607   0.84788   0.38956   0.00000  Uiso   1.00
C1253  C     0.75714   0.82170   0.34683   0.00000  Uiso   1.00
C1254  C     0.73281   0.82131   0.30576   0.00000  Uiso   1.00
C1255  C     0.69467   0.80929   0.22927   0.00000  Uiso   1.00
C1256  C     0.76477   0.89905   0.44169   0.00000  Uiso   1.00
C1257  C     0.41997   0.20602   0.82531   0.00000  Uiso   1.00
C1258  C     0.39739   0.20558   0.86904   0.00000  Uiso   1.00
C1259  C     0.39017   0.17931   0.91111   0.00000  Uiso   1.00
C1260  C     0.80851   0.92025   0.43979   0.00000  Uiso   1.00
C1261  C     0.83234   0.95980   0.43964   0.00000  Uiso   1.00
C1262  C     0.87159   0.97358   0.43778   0.00000  Uiso   1.00
C1263  C     0.75123   0.87279   0.39121   0.00000  Uiso   1.00
C1264  C     0.72691   0.87245   0.35019   0.00000  Uiso   1.00
C1265  C     0.71795   0.84627   0.30741   0.00000  Uiso   1.00
H1266  H     0.13698   0.50046   0.10403   0.00000  Uiso   1.00
H1267  H     0.10578   0.46890   0.19772   0.00000  Uiso   1.00
H1268  H     0.87404   0.88978   0.43500   0.00000  Uiso   1.00
H1269  H     0.76863   0.80243   0.34557   0.00000  Uiso   1.00
H1270  H     0.39798   0.11157   0.96900   0.00000  Uiso   1.00
H1271  H     0.94554   0.96283   0.43310   0.00000  Uiso   1.00
H1272  H     0.72326   0.77864   0.24452   0.00000  Uiso   1.00
H1273  H     0.75322   0.91845   0.44297   0.00000  Uiso   1.00
H1274  H     0.38591   0.22486   0.87030   0.00000  Uiso   1.00
H1275  H     0.82085   0.97907   0.44091   0.00000  Uiso   1.00
H1276  H     0.71544   0.89173   0.35148   0.00000  Uiso   1.00
H1277  H     0.35481   0.18404   0.97380   0.00000  Uiso   1.00
H1278  H     0.90237   0.03530   0.43790   0.00000  Uiso   1.00
H1279  H     0.68009   0.85112   0.24932   0.00000  Uiso   1.00
O1280  O     0.35497   0.12858   0.03314   0.00000  Uiso   1.00
O1281  O     0.96936   0.03742   0.43405   0.00000  Uiso   1.00
O1282  O     0.67773   0.79577   0.18663   0.00000  Uiso   1.00
N1283  N     0.39248   0.13231   0.95722   0.00000  Uiso   1.00
N1284  N     0.92610   0.97156   0.43452   0.00000  Uiso   1.00
N1285  N     0.71829   0.79937   0.25820   0.00000  Uiso   1.00
N1286  N     0.36924   0.17131   0.95981   0.00000  Uiso   1.00
N1287  N     0.90287   0.01056   0.43710   0.00000  Uiso   1.00
N1288  N     0.69506   0.83837   0.26078   0.00000  Uiso   1.00
C1289  C     0.45876   0.18652   0.77198   0.00000  Uiso   1.00
C1290  C     0.76814   0.84778   0.49033   0.00000  Uiso   1.00
C1291  C     0.76095   0.82151   0.53234   0.00000  Uiso   1.00
C1292  C     0.07170   0.48769   0.24279   0.00000  Uiso   1.00
C1293  C     0.03679   0.47551   0.32280   0.00000  Uiso   1.00
C1294  C     0.49001   0.22868   0.77148   0.00000  Uiso   1.00
C1295  C     0.52923   0.24240   0.76961   0.00000  Uiso   1.00
C1296  C     0.55312   0.28196   0.76946   0.00000  Uiso   1.00
C1297  C     0.60391   0.34362   0.76841   0.00000  Uiso   1.00
C1298  C     0.43274   0.18122   0.72289   0.00000  Uiso   1.00
C1299  C     0.42381   0.15504   0.68016   0.00000  Uiso   1.00
C1300  C     0.39948   0.15465   0.63909   0.00000  Uiso   1.00
C1301  C     0.36134   0.14262   0.56261   0.00000  Uiso   1.00
C1302  C     0.43144   0.23239   0.77502   0.00000  Uiso   1.00
C1303  C     0.08664   0.53936   0.15864   0.00000  Uiso   1.00
C1304  C     0.06406   0.53891   0.20237   0.00000  Uiso   1.00
C1305  C     0.05683   0.51265   0.24444   0.00000  Uiso   1.00
C1306  C     0.47518   0.25359   0.77313   0.00000  Uiso   1.00
C1307  C     0.49901   0.29314   0.77297   0.00000  Uiso   1.00
C1308  C     0.53826   0.30691   0.77111   0.00000  Uiso   1.00
C1309  C     0.41790   0.20613   0.72454   0.00000  Uiso   1.00
C1310  C     0.39358   0.20578   0.68353   0.00000  Uiso   1.00
C1311  C     0.38461   0.17960   0.64075   0.00000  Uiso   1.00
H1312  H     0.80365   0.83380   0.43736   0.00000  Uiso   1.00
H1313  H     0.77244   0.80223   0.53105   0.00000  Uiso   1.00
H1314  H     0.54071   0.22311   0.76833   0.00000  Uiso   1.00
H1315  H     0.43530   0.13577   0.67890   0.00000  Uiso   1.00
H1316  H     0.06465   0.44490   0.30233   0.00000  Uiso   1.00
H1317  H     0.61221   0.29616   0.76644   0.00000  Uiso   1.00
H1318  H     0.38993   0.11197   0.57785   0.00000  Uiso   1.00
H1319  H     0.41989   0.25178   0.77630   0.00000  Uiso   1.00
H1320  H     0.05258   0.55819   0.20364   0.00000  Uiso   1.00
H1321  H     0.48751   0.31241   0.77425   0.00000  Uiso   1.00
H1322  H     0.38210   0.22506   0.68482   0.00000  Uiso   1.00
H1323  H     0.02147   0.51738   0.30713   0.00000  Uiso   1.00
H1324  H     0.56904   0.36864   0.77124   0.00000  Uiso   1.00
H1325  H     0.34675   0.18445   0.58266   0.00000  Uiso   1.00
O1326  O     0.02163   0.46191   0.36648   0.00000  Uiso   1.00
O1327  O     0.63602   0.37075   0.76738   0.00000  Uiso   1.00
O1328  O     0.34440   0.12911   0.51997   0.00000  Uiso   1.00
N1329  N     0.05914   0.46565   0.29055   0.00000  Uiso   1.00
N1330  N     0.59277   0.30490   0.76785   0.00000  Uiso   1.00
N1331  N     0.38496   0.13271   0.59153   0.00000  Uiso   1.00
N1332  N     0.03591   0.50465   0.29314   0.00000  Uiso   1.00
N1333  N     0.56953   0.34390   0.77043   0.00000  Uiso   1.00
N1334  N     0.36173   0.17170   0.59412   0.00000  Uiso   1.00
C1335  C     0.12542   0.51986   0.10531   0.00000  Uiso   1.00
C1336  C     0.43481   0.18111   0.82366   0.00000  Uiso   1.00
C1337  C     0.42762   0.15484   0.86568   0.00000  Uiso   1.00
C1338  C     0.73837   0.82102   0.57612   0.00000  Uiso   1.00
C1339  C     0.70345   0.80884   0.65613   0.00000  Uiso   1.00
C1340  C     0.15668   0.56201   0.10481   0.00000  Uiso   1.00
C1341  C     0.19590   0.57573   0.10294   0.00000  Uiso   1.00
C1342  C     0.21979   0.61529   0.10279   0.00000  Uiso   1.00
C1343  C     0.27058   0.67696   0.10174   0.00000  Uiso   1.00
C1344  C     0.09940   0.51455   0.05622   0.00000  Uiso   1.00
C1345  C     0.09047   0.48837   0.01350   0.00000  Uiso   1.00
C1346  C     0.06614   0.48798   0.97243   0.00000  Uiso   1.00
C1347  C     0.02800   0.47596   0.89594   0.00000  Uiso   1.00
C1348  C     0.09811   0.56572   0.10835   0.00000  Uiso   1.00
C1349  C     0.75331   0.87269   0.49198   0.00000  Uiso   1.00
C1350  C     0.73072   0.87225   0.53570   0.00000  Uiso   1.00
C1351  C     0.72350   0.84598   0.57778   0.00000  Uiso   1.00
C1352  C     0.14184   0.58692   0.10646   0.00000  Uiso   1.00
C1353  C     0.16567   0.62647   0.10631   0.00000  Uiso   1.00
C1354  C     0.20492   0.64025   0.10444   0.00000  Uiso   1.00
C1355  C     0.08456   0.53946   0.05787   0.00000  Uiso   1.00
C1356  C     0.06025   0.53911   0.01686   0.00000  Uiso   1.00
C1357  C     0.05128   0.51294   0.97408   0.00000  Uiso   1.00
H1358  H     0.47031   0.16713   0.77070   0.00000  Uiso   1.00
H1359  H     0.43911   0.13557   0.86439   0.00000  Uiso   1.00
H1360  H     0.20737   0.55644   0.10166   0.00000  Uiso   1.00
H1361  H     0.10196   0.46910   0.01223   0.00000  Uiso   1.00
H1362  H     0.73131   0.77824   0.63566   0.00000  Uiso   1.00
H1363  H     0.27887   0.62949   0.09977   0.00000  Uiso   1.00
H1364  H     0.05659   0.44531   0.91119   0.00000  Uiso   1.00
H1365  H     0.08655   0.58512   0.10964   0.00000  Uiso   1.00
H1366  H     0.71925   0.89153   0.53697   0.00000  Uiso   1.00
H1367  H     0.15418   0.64574   0.10758   0.00000  Uiso   1.00
H1368  H     0.04877   0.55839   0.01815   0.00000  Uiso   1.00
H1369  H     0.68814   0.85071   0.64047   0.00000  Uiso   1.00
H1370  H     0.23570   0.70197   0.10457   0.00000  Uiso   1.00
H1371  H     0.01342   0.51778   0.91599   0.00000  Uiso   1.00
O1372  O     0.68830   0.79525   0.69981   0.00000  Uiso   1.00
O1373  O     0.30269   0.70409   0.10071   0.00000  Uiso   1.00
O1374  O     0.01106   0.46244   0.85330   0.00000  Uiso   1.00
N1375  N     0.72581   0.79898   0.62389   0.00000  Uiso   1.00
N1376  N     0.25943   0.63823   0.10118   0.00000  Uiso   1.00
N1377  N     0.05163   0.46604   0.92487   0.00000  Uiso   1.00
N1378  N     0.70258   0.83798   0.62647   0.00000  Uiso   1.00
N1379  N     0.23620   0.67723   0.10377   0.00000  Uiso   1.00
N1380  N     0.02840   0.50504   0.92745   0.00000  Uiso   1.00
C1381  C     0.06110   0.20791   0.43865   0.00000  Uiso   1.00
C1382  C     0.41297   0.89852   0.15699   0.00000  Uiso   1.00
C1383  C     0.39389   0.90572   0.19901   0.00000  Uiso   1.00
C1384  C     0.74932   0.59497   0.90946   0.00000  Uiso   1.00
C1385  C     0.77206   0.62988   0.98946   0.00000  Uiso   1.00
C1386  C     0.07200   0.17665   0.43814   0.00000  Uiso   1.00
C1387  C     0.04650   0.13743   0.43628   0.00000  Uiso   1.00
C1388  C     0.06217   0.11355   0.43612   0.00000  Uiso   1.00
C1389  C     0.07305   0.06276   0.43507   0.00000  Uiso   1.00
C1390  C     0.08181   0.23393   0.38956   0.00000  Uiso   1.00
C1391  C     0.06456   0.24286   0.34683   0.00000  Uiso   1.00
C1392  C     0.08850   0.26719   0.30576   0.00000  Uiso   1.00
C1393  C     0.11462   0.30533   0.22927   0.00000  Uiso   1.00
C1394  C     0.13428   0.23523   0.44169   0.00000  Uiso   1.00
C1395  C     0.78605   0.58003   0.82531   0.00000  Uiso   1.00
C1396  C     0.80819   0.60261   0.86904   0.00000  Uiso   1.00
C1397  C     0.78915   0.60983   0.91111   0.00000  Uiso   1.00
C1398  C     0.11175   0.19149   0.43979   0.00000  Uiso   1.00
C1399  C     0.12746   0.16766   0.43964   0.00000  Uiso   1.00
C1400  C     0.10199   0.12841   0.43778   0.00000  Uiso   1.00
C1401  C     0.12156   0.24877   0.39121   0.00000  Uiso   1.00
C1402  C     0.14553   0.27309   0.35019   0.00000  Uiso   1.00
C1403  C     0.12832   0.28205   0.30741   0.00000  Uiso   1.00
H1404  H     0.36348   0.86302   0.10403   0.00000  Uiso   1.00
H1405  H     0.36313   0.89422   0.19772   0.00000  Uiso   1.00
H1406  H     0.01574   0.12596   0.43500   0.00000  Uiso   1.00
H1407  H     0.03380   0.23137   0.34557   0.00000  Uiso   1.00
H1408  H     0.71359   0.60202   0.96900   0.00000  Uiso   1.00
H1409  H     0.01729   0.05446   0.43310   0.00000  Uiso   1.00
H1410  H     0.05538   0.27674   0.24452   0.00000  Uiso   1.00
H1411  H     0.16523   0.24678   0.44297   0.00000  Uiso   1.00
H1412  H     0.83895   0.61409   0.87030   0.00000  Uiso   1.00
H1413  H     0.15823   0.17915   0.44091   0.00000  Uiso   1.00
H1414  H     0.17629   0.28456   0.35148   0.00000  Uiso   1.00
H1415  H     0.82924   0.64519   0.97380   0.00000  Uiso   1.00
H1416  H     0.13293   0.09763   0.43790   0.00000  Uiso   1.00
H1417  H     0.17103   0.31991   0.24932   0.00000  Uiso   1.00
O1418  O     0.77361   0.64503   0.03314   0.00000  Uiso   1.00
O1419  O     0.06807   0.03064   0.43405   0.00000  Uiso   1.00
O1420  O     0.11804   0.32227   0.18663   0.00000  Uiso   1.00
N1421  N     0.73984   0.60752   0.95722   0.00000  Uiso   1.00
N1422  N     0.04546   0.07390   0.43452   0.00000  Uiso   1.00
N1423  N     0.08108   0.28171   0.25820   0.00000  Uiso   1.00
N1424  N     0.80207   0.63076   0.95981   0.00000  Uiso   1.00
N1425  N     0.10769   0.09713   0.43710   0.00000  Uiso   1.00
N1426  N     0.14331   0.30494   0.26078   0.00000  Uiso   1.00
C1427  C     0.72776   0.54124   0.77198   0.00000  Uiso   1.00
C1428  C     0.07963   0.23186   0.49033   0.00000  Uiso   1.00
C1429  C     0.06055   0.23905   0.53234   0.00000  Uiso   1.00
C1430  C     0.41599   0.92830   0.24279   0.00000  Uiso   1.00
C1431  C     0.43872   0.96321   0.32280   0.00000  Uiso   1.00
C1432  C     0.73866   0.50999   0.77148   0.00000  Uiso   1.00
C1433  C     0.71316   0.47077   0.76961   0.00000  Uiso   1.00
C1434  C     0.72884   0.44688   0.76946   0.00000  Uiso   1.00
C1435  C     0.73972   0.39609   0.76841   0.00000  Uiso   1.00
C1436  C     0.74848   0.56726   0.72289   0.00000  Uiso   1.00
C1437  C     0.73123   0.57619   0.68016   0.00000  Uiso   1.00
C1438  C     0.75517   0.60052   0.63909   0.00000  Uiso   1.00
C1439  C     0.78129   0.63866   0.56261   0.00000  Uiso   1.00
C1440  C     0.80095   0.56856   0.77502   0.00000  Uiso   1.00
C1441  C     0.45272   0.91336   0.15864   0.00000  Uiso   1.00
C1442  C     0.47486   0.93594   0.20237   0.00000  Uiso   1.00
C1443  C     0.45581   0.94317   0.24444   0.00000  Uiso   1.00
C1444  C     0.77841   0.52482   0.77313   0.00000  Uiso   1.00
C1445  C     0.79413   0.50099   0.77297   0.00000  Uiso   1.00
C1446  C     0.76866   0.46174   0.77111   0.00000  Uiso   1.00
C1447  C     0.78823   0.58210   0.72454   0.00000  Uiso   1.00
C1448  C     0.81220   0.60642   0.68353   0.00000  Uiso   1.00
C1449  C     0.79499   0.61539   0.64075   0.00000  Uiso   1.00
H1450  H     0.03015   0.19635   0.43736   0.00000  Uiso   1.00
H1451  H     0.02979   0.22756   0.53105   0.00000  Uiso   1.00
H1452  H     0.68240   0.45929   0.76833   0.00000  Uiso   1.00
H1453  H     0.70047   0.56470   0.67890   0.00000  Uiso   1.00
H1454  H     0.38025   0.93535   0.30233   0.00000  Uiso   1.00
H1455  H     0.68395   0.38779   0.76644   0.00000  Uiso   1.00
H1456  H     0.72205   0.61007   0.57785   0.00000  Uiso   1.00
H1457  H     0.83189   0.58011   0.77630   0.00000  Uiso   1.00
H1458  H     0.50562   0.94742   0.20364   0.00000  Uiso   1.00
H1459  H     0.82489   0.51249   0.77425   0.00000  Uiso   1.00
H1460  H     0.84296   0.61790   0.68482   0.00000  Uiso   1.00
H1461  H     0.49590   0.97853   0.30713   0.00000  Uiso   1.00
H1462  H     0.79960   0.43096   0.77124   0.00000  Uiso   1.00
H1463  H     0.83770   0.65325   0.58266   0.00000  Uiso   1.00
O1464  O     0.44028   0.97837   0.36648   0.00000  Uiso   1.00
O1465  O     0.73473   0.36398   0.76738   0.00000  Uiso   1.00
O1466  O     0.78471   0.65560   0.51997   0.00000  Uiso   1.00
N1467  N     0.40651   0.94086   0.29055   0.00000  Uiso   1.00
N1468  N     0.71213   0.40723   0.76785   0.00000  Uiso   1.00
N1469  N     0.74774   0.61504   0.59153   0.00000  Uiso   1.00
N1470  N     0.46874   0.96409   0.29314   0.00000  Uiso   1.00
N1471  N     0.77436   0.43047   0.77043   0.00000  Uiso   1.00
N1472  N     0.80997   0.63827   0.59412   0.00000  Uiso   1.00
C1473  C     0.39443   0.87458   0.10531   0.00000  Uiso   1.00
C1474  C     0.74630   0.56519   0.82366   0.00000  Uiso   1.00
C1475  C     0.72722   0.57238   0.86568   0.00000  Uiso   1.00
C1476  C     0.08266   0.26163   0.57612   0.00000  Uiso   1.00
C1477  C     0.10539   0.29655   0.65613   0.00000  Uiso   1.00
C1478  C     0.40533   0.84332   0.10481   0.00000  Uiso   1.00
C1479  C     0.37983   0.80410   0.10294   0.00000  Uiso   1.00
C1480  C     0.39551   0.78021   0.10279   0.00000  Uiso   1.00
C1481  C     0.40638   0.72942   0.10174   0.00000  Uiso   1.00
C1482  C     0.41515   0.90060   0.05622   0.00000  Uiso   1.00
C1483  C     0.39790   0.90953   0.01350   0.00000  Uiso   1.00
C1484  C     0.42184   0.93386   0.97243   0.00000  Uiso   1.00
C1485  C     0.44795   0.97200   0.89594   0.00000  Uiso   1.00
C1486  C     0.46761   0.90189   0.10835   0.00000  Uiso   1.00
C1487  C     0.11938   0.24669   0.49198   0.00000  Uiso   1.00
C1488  C     0.14152   0.26928   0.53570   0.00000  Uiso   1.00
C1489  C     0.12248   0.27650   0.57778   0.00000  Uiso   1.00
C1490  C     0.44508   0.85816   0.10646   0.00000  Uiso   1.00
C1491  C     0.46080   0.83433   0.10631   0.00000  Uiso   1.00
C1492  C     0.43533   0.79508   0.10444   0.00000  Uiso   1.00
C1493  C     0.45490   0.91544   0.05787   0.00000  Uiso   1.00
C1494  C     0.47887   0.93975   0.01686   0.00000  Uiso   1.00
C1495  C     0.46166   0.94872   0.97408   0.00000  Uiso   1.00
H1496  H     0.69682   0.52969   0.77070   0.00000  Uiso   1.00
H1497  H     0.69646   0.56089   0.86439   0.00000  Uiso   1.00
H1498  H     0.34907   0.79263   0.10166   0.00000  Uiso   1.00
H1499  H     0.36714   0.89804   0.01223   0.00000  Uiso   1.00
H1500  H     0.04692   0.26869   0.63566   0.00000  Uiso   1.00
H1501  H     0.35062   0.72113   0.09977   0.00000  Uiso   1.00
H1502  H     0.38871   0.94341   0.91119   0.00000  Uiso   1.00
H1503  H     0.49856   0.91345   0.10964   0.00000  Uiso   1.00
H1504  H     0.17228   0.28075   0.53697   0.00000  Uiso   1.00
H1505  H     0.49156   0.84582   0.10758   0.00000  Uiso   1.00
H1506  H     0.50962   0.95123   0.01815   0.00000  Uiso   1.00
H1507  H     0.16257   0.31186   0.64047   0.00000  Uiso   1.00
H1508  H     0.46627   0.76430   0.10457   0.00000  Uiso   1.00
H1509  H     0.50436   0.98658   0.91599   0.00000  Uiso   1.00
O1510  O     0.10695   0.31170   0.69981   0.00000  Uiso   1.00
O1511  O     0.40140   0.69731   0.10071   0.00000  Uiso   1.00
O1512  O     0.45138   0.98894   0.85330   0.00000  Uiso   1.00
N1513  N     0.07317   0.27419   0.62389   0.00000  Uiso   1.00
N1514  N     0.37880   0.74057   0.10118   0.00000  Uiso   1.00
N1515  N     0.41441   0.94837   0.92487   0.00000  Uiso   1.00
N1516  N     0.13540   0.29742   0.62647   0.00000  Uiso   1.00
N1517  N     0.44103   0.76380   0.10377   0.00000  Uiso   1.00
N1518  N     0.47664   0.97160   0.92745   0.00000  Uiso   1.00
C1519  C     0.14681   0.93890   0.43865   0.00000  Uiso   1.00
C1520  C     0.48556   0.58703   0.15699   0.00000  Uiso   1.00
C1521  C     0.51183   0.60611   0.19901   0.00000  Uiso   1.00
C1522  C     0.84564   0.25068   0.90946   0.00000  Uiso   1.00
C1523  C     0.85782   0.22794   0.98946   0.00000  Uiso   1.00
C1524  C     0.10466   0.92800   0.43814   0.00000  Uiso   1.00
C1525  C     0.09094   0.95350   0.43628   0.00000  Uiso   1.00
C1526  C     0.05138   0.93783   0.43612   0.00000  Uiso   1.00
C1527  C     0.98971   0.92695   0.43507   0.00000  Uiso   1.00
C1528  C     0.15212   0.91819   0.38956   0.00000  Uiso   1.00
C1529  C     0.17830   0.93544   0.34683   0.00000  Uiso   1.00
C1530  C     0.17869   0.91150   0.30576   0.00000  Uiso   1.00
C1531  C     0.19071   0.88538   0.22927   0.00000  Uiso   1.00
C1532  C     0.10095   0.86572   0.44169   0.00000  Uiso   1.00
C1533  C     0.79398   0.21395   0.82531   0.00000  Uiso   1.00
C1534  C     0.79442   0.19181   0.86904   0.00000  Uiso   1.00
C1535  C     0.82069   0.21085   0.91111   0.00000  Uiso   1.00
C1536  C     0.07975   0.88825   0.43979   0.00000  Uiso   1.00
C1537  C     0.04020   0.87254   0.43964   0.00000  Uiso   1.00
C1538  C     0.02642   0.89801   0.43778   0.00000  Uiso   1.00
C1539  C     0.12721   0.87844   0.39121   0.00000  Uiso   1.00
C1540  C     0.12755   0.85447   0.35019   0.00000  Uiso   1.00
C1541  C     0.15373   0.87168   0.30741   0.00000  Uiso   1.00
H1542  H     0.49954   0.63652   0.10403   0.00000  Uiso   1.00
H1543  H     0.53110   0.63687   0.19772   0.00000  Uiso   1.00
H1544  H     0.11022   0.98426   0.43500   0.00000  Uiso   1.00
H1545  H     0.19757   0.96620   0.34557   0.00000  Uiso   1.00
H1546  H     0.88843   0.28641   0.96900   0.00000  Uiso   1.00
H1547  H     0.03717   0.98271   0.43310   0.00000  Uiso   1.00
H1548  H     0.22136   0.94462   0.24452   0.00000  Uiso   1.00
H1549  H     0.08155   0.83477   0.44297   0.00000  Uiso   1.00
H1550  H     0.77514   0.16105   0.87030   0.00000  Uiso   1.00
H1551  H     0.02093   0.84177   0.44091   0.00000  Uiso   1.00
H1552  H     0.10827   0.82371   0.35148   0.00000  Uiso   1.00
H1553  H     0.81596   0.17076   0.97380   0.00000  Uiso   1.00
H1554  H     0.96470   0.86707   0.43790   0.00000  Uiso   1.00
H1555  H     0.14888   0.82897   0.24932   0.00000  Uiso   1.00
O1556  O     0.87142   0.22639   0.03314   0.00000  Uiso   1.00
O1557  O     0.96258   0.93193   0.43405   0.00000  Uiso   1.00
O1558  O     0.20423   0.88196   0.18663   0.00000  Uiso   1.00
N1559  N     0.86769   0.26016   0.95722   0.00000  Uiso   1.00
N1560  N     0.02844   0.95454   0.43452   0.00000  Uiso   1.00
N1561  N     0.20063   0.91892   0.25820   0.00000  Uiso   1.00
N1562  N     0.82869   0.19793   0.95981   0.00000  Uiso   1.00
N1563  N     0.98944   0.89231   0.43710   0.00000  Uiso   1.00
N1564  N     0.16163   0.85669   0.26078   0.00000  Uiso   1.00
C1565  C     0.81348   0.27224   0.77198   0.00000  Uiso   1.00
C1566  C     0.15222   0.92037   0.49033   0.00000  Uiso   1.00
C1567  C     0.17849   0.93945   0.53234   0.00000  Uiso   1.00
C1568  C     0.51231   0.58401   0.24279   0.00000  Uiso   1.00
C1569  C     0.52449   0.56128   0.32280   0.00000  Uiso   1.00
C1570  C     0.77132   0.26134   0.77148   0.00000  Uiso   1.00
C1571  C     0.75760   0.28684   0.76961   0.00000  Uiso   1.00
C1572  C     0.71804   0.27116   0.76946   0.00000  Uiso   1.00
C1573  C     0.65638   0.26028   0.76841   0.00000  Uiso   1.00
C1574  C     0.81878   0.25152   0.72289   0.00000  Uiso   1.00
C1575  C     0.84496   0.26877   0.68016   0.00000  Uiso   1.00
C1576  C     0.84535   0.24483   0.63909   0.00000  Uiso   1.00
C1577  C     0.85738   0.21871   0.56261   0.00000  Uiso   1.00
C1578  C     0.76761   0.19905   0.77502   0.00000  Uiso   1.00
C1579  C     0.46064   0.54728   0.15864   0.00000  Uiso   1.00
C1580  C     0.46109   0.52514   0.20237   0.00000  Uiso   1.00
C1581  C     0.48735   0.54419   0.24444   0.00000  Uiso   1.00
C1582  C     0.74641   0.22159   0.77313   0.00000  Uiso   1.00
C1583  C     0.70686   0.20587   0.77297   0.00000  Uiso   1.00
C1584  C     0.69309   0.23134   0.77111   0.00000  Uiso   1.00
C1585  C     0.79387   0.21177   0.72454   0.00000  Uiso   1.00
C1586  C     0.79422   0.18780   0.68353   0.00000  Uiso   1.00
C1587  C     0.82040   0.20501   0.64075   0.00000  Uiso   1.00
H1588  H     0.16620   0.96985   0.43736   0.00000  Uiso   1.00
H1589  H     0.19777   0.97021   0.53105   0.00000  Uiso   1.00
H1590  H     0.77689   0.31760   0.76833   0.00000  Uiso   1.00
H1591  H     0.86423   0.29953   0.67890   0.00000  Uiso   1.00
H1592  H     0.55510   0.61975   0.30233   0.00000  Uiso   1.00
H1593  H     0.70384   0.31605   0.76644   0.00000  Uiso   1.00
H1594  H     0.88803   0.27795   0.57785   0.00000  Uiso   1.00
H1595  H     0.74822   0.16811   0.77630   0.00000  Uiso   1.00
H1596  H     0.44181   0.49438   0.20364   0.00000  Uiso   1.00
H1597  H     0.68759   0.17511   0.77425   0.00000  Uiso   1.00
H1598  H     0.77494   0.15704   0.68482   0.00000  Uiso   1.00
H1599  H     0.48262   0.50410   0.30713   0.00000  Uiso   1.00
H1600  H     0.63136   0.20040   0.77124   0.00000  Uiso   1.00
H1601  H     0.81555   0.16230   0.58266   0.00000  Uiso   1.00
O1602  O     0.53809   0.55972   0.36648   0.00000  Uiso   1.00
O1603  O     0.62925   0.26527   0.76738   0.00000  Uiso   1.00
O1604  O     0.87089   0.21529   0.51997   0.00000  Uiso   1.00
N1605  N     0.53435   0.59349   0.29055   0.00000  Uiso   1.00
N1606  N     0.69510   0.28787   0.76785   0.00000  Uiso   1.00
N1607  N     0.86729   0.25226   0.59153   0.00000  Uiso   1.00
N1608  N     0.49535   0.53126   0.29314   0.00000  Uiso   1.00
N1609  N     0.65610   0.22564   0.77043   0.00000  Uiso   1.00
N1610  N     0.82830   0.19003   0.59412   0.00000  Uiso   1.00
C1611  C     0.48014   0.60557   0.10531   0.00000  Uiso   1.00
C1612  C     0.81889   0.25370   0.82366   0.00000  Uiso   1.00
C1613  C     0.84516   0.27278   0.86568   0.00000  Uiso   1.00
C1614  C     0.17898   0.91734   0.57612   0.00000  Uiso   1.00
C1615  C     0.19116   0.89461   0.65613   0.00000  Uiso   1.00
C1616  C     0.43799   0.59467   0.10481   0.00000  Uiso   1.00
C1617  C     0.42427   0.62017   0.10294   0.00000  Uiso   1.00
C1618  C     0.38471   0.60449   0.10279   0.00000  Uiso   1.00
C1619  C     0.32304   0.59362   0.10174   0.00000  Uiso   1.00
C1620  C     0.48545   0.58485   0.05622   0.00000  Uiso   1.00
C1621  C     0.51163   0.60210   0.01350   0.00000  Uiso   1.00
C1622  C     0.51202   0.57816   0.97243   0.00000  Uiso   1.00
C1623  C     0.52404   0.55205   0.89594   0.00000  Uiso   1.00
C1624  C     0.43428   0.53239   0.10835   0.00000  Uiso   1.00
C1625  C     0.12731   0.88062   0.49198   0.00000  Uiso   1.00
C1626  C     0.12775   0.85848   0.53570   0.00000  Uiso   1.00
C1627  C     0.15402   0.87752   0.57778   0.00000  Uiso   1.00
C1628  C     0.41308   0.55492   0.10646   0.00000  Uiso   1.00
C1629  C     0.37353   0.53920   0.10631   0.00000  Uiso   1.00
C1630  C     0.35975   0.56467   0.10444   0.00000  Uiso   1.00
C1631  C     0.46054   0.54510   0.05787   0.00000  Uiso   1.00
C1632  C     0.46089   0.52113   0.01686   0.00000  Uiso   1.00
C1633  C     0.48706   0.53834   0.97408   0.00000  Uiso   1.00
H1634  H     0.83287   0.30318   0.77070   0.00000  Uiso   1.00
H1635  H     0.86443   0.30354   0.86439   0.00000  Uiso   1.00
H1636  H     0.44356   0.65093   0.10166   0.00000  Uiso   1.00
H1637  H     0.53090   0.63286   0.01223   0.00000  Uiso   1.00
H1638  H     0.22176   0.95308   0.63566   0.00000  Uiso   1.00
H1639  H     0.37051   0.64938   0.09977   0.00000  Uiso   1.00
H1640  H     0.55469   0.61129   0.91119   0.00000  Uiso   1.00
H1641  H     0.41488   0.50144   0.10964   0.00000  Uiso   1.00
H1642  H     0.10847   0.82772   0.53697   0.00000  Uiso   1.00
H1643  H     0.35426   0.50844   0.10758   0.00000  Uiso   1.00
H1644  H     0.44161   0.49038   0.01815   0.00000  Uiso   1.00
H1645  H     0.14929   0.83743   0.64047   0.00000  Uiso   1.00
H1646  H     0.29803   0.53373   0.10457   0.00000  Uiso   1.00
H1647  H     0.48222   0.49564   0.91599   0.00000  Uiso   1.00
O1648  O     0.20475   0.89305   0.69981   0.00000  Uiso   1.00
O1649  O     0.29591   0.59860   0.10071   0.00000  Uiso   1.00
O1650  O     0.53756   0.54862   0.85330   0.00000  Uiso   1.00
N1651  N     0.20102   0.92683   0.62389   0.00000  Uiso   1.00
N1652  N     0.36177   0.62120   0.10118   0.00000  Uiso   1.00
N1653  N     0.53396   0.58559   0.92487   0.00000  Uiso   1.00
N1654  N     0.16202   0.86460   0.62647   0.00000  Uiso   1.00
N1655  N     0.32277   0.55897   0.10377   0.00000  Uiso   1.00
N1656  N     0.49496   0.52336   0.92745   0.00000  Uiso   1.00
