data_job_05221
_audit_creation_date              2018-12-19
_audit_creation_method            'Materials Studio'
_symmetry_space_group_name_H-M    'P1'
_symmetry_Int_Tables_number       1
_symmetry_cell_setting            triclinic
loop_
_symmetry_equiv_pos_as_xyz
  x,y,z
_cell_length_a                    25.1148
_cell_length_b                    12.3606
_cell_length_c                    41.9830
_cell_angle_alpha                 90.0000
_cell_angle_beta                  90.0000
_cell_angle_gamma                 90.0000
loop_
_atom_site_label
_atom_site_type_symbol
_atom_site_fract_x
_atom_site_fract_y
_atom_site_fract_z
_atom_site_U_iso_or_equiv
_atom_site_adp_type
_atom_site_occupancy
C1     C     0.09193   0.86607   0.81394   0.00000  Uiso   1.00
C2     C     0.09576   0.75682   0.79722   0.00000  Uiso   1.00
C3     C     0.05304   0.69281   0.78804   0.00000  Uiso   1.00
C4     C     0.06487   0.59560   0.77306   0.00000  Uiso   1.00
C5     C     0.06280   0.43079   0.74797   0.00000  Uiso   1.00
C6     C     0.12421   0.85522   0.84454   0.00000  Uiso   1.00
C7     C     0.10541   0.87395   0.87513   0.00000  Uiso   1.00
C8     C     0.14121   0.85959   0.89998   0.00000  Uiso   1.00
C9     C     0.18332   0.84762   0.94834   0.00000  Uiso   1.00
C10    C     0.12228   0.94588   0.79303   0.00000  Uiso   1.00
C11    C     0.10187   0.04086   0.78031   0.00000  Uiso   1.00
C12    C     0.13605   0.10284   0.76180   0.00000  Uiso   1.00
C13    C     0.17517   0.23164   0.73017   0.00000  Uiso   1.00
C14    C     0.18892   0.80726   0.80367   0.00000  Uiso   1.00
C15    C     0.14844   0.72488   0.79165   0.00000  Uiso   1.00
C16    C     0.16034   0.62774   0.77668   0.00000  Uiso   1.00
C17    C     0.11765   0.56360   0.76747   0.00000  Uiso   1.00
C18    C     0.17689   0.82327   0.83896   0.00000  Uiso   1.00
C19    C     0.21272   0.80889   0.86377   0.00000  Uiso   1.00
C20    C     0.19398   0.82759   0.89439   0.00000  Uiso   1.00
C21    C     0.17496   0.91393   0.78745   0.00000  Uiso   1.00
C22    C     0.20918   0.97579   0.76895   0.00000  Uiso   1.00
C23    C     0.18882   0.07084   0.75621   0.00000  Uiso   1.00
H24    H     0.05092   0.89094   0.81829   0.00000  Uiso   1.00
H25    H     0.01227   0.71756   0.79236   0.00000  Uiso   1.00
H26    H     0.06465   0.89868   0.87944   0.00000  Uiso   1.00
H27    H     0.06110   0.06555   0.78463   0.00000  Uiso   1.00
H28    H     0.99266   0.51122   0.76117   0.00000  Uiso   1.00
H29    H     0.10310   0.89317   0.94478   0.00000  Uiso   1.00
H30    H     0.09563   0.24506   0.74486   0.00000  Uiso   1.00
H31    H     0.22993   0.78240   0.79933   0.00000  Uiso   1.00
H32    H     0.20111   0.60305   0.77236   0.00000  Uiso   1.00
H33    H     0.25348   0.78417   0.85944   0.00000  Uiso   1.00
H34    H     0.24994   0.95104   0.76464   0.00000  Uiso   1.00
H35    H     0.14593   0.41827   0.74494   0.00000  Uiso   1.00
H36    H     0.25637   0.80023   0.92855   0.00000  Uiso   1.00
H37    H     0.24890   0.15211   0.72863   0.00000  Uiso   1.00
O38    O     0.04711   0.34871   0.73567   0.00000  Uiso   1.00
O39    O     0.19200   0.84983   0.97655   0.00000  Uiso   1.00
O40    O     0.18219   0.31149   0.71427   0.00000  Uiso   1.00
N41    N     0.03269   0.51397   0.76105   0.00000  Uiso   1.00
N42    N     0.13594   0.87105   0.93271   0.00000  Uiso   1.00
N43    N     0.12896   0.20005   0.74581   0.00000  Uiso   1.00
N44    N     0.11516   0.46395   0.75231   0.00000  Uiso   1.00
N45    N     0.21841   0.82104   0.92397   0.00000  Uiso   1.00
N46    N     0.21143   0.15004   0.73708   0.00000  Uiso   1.00
C47    C     0.09009   0.14133   0.61304   0.00000  Uiso   1.00
C48    C     0.09540   0.25204   0.62875   0.00000  Uiso   1.00
C49    C     0.05356   0.31709   0.63871   0.00000  Uiso   1.00
C50    C     0.06671   0.41556   0.65253   0.00000  Uiso   1.00
C51    C     0.06689   0.58260   0.67634   0.00000  Uiso   1.00
C52    C     0.11974   0.14922   0.58143   0.00000  Uiso   1.00
C53    C     0.09836   0.12781   0.55160   0.00000  Uiso   1.00
C54    C     0.13201   0.13972   0.52560   0.00000  Uiso   1.00
C55    C     0.16998   0.14706   0.47594   0.00000  Uiso   1.00
C56    C     0.12212   0.06328   0.63363   0.00000  Uiso   1.00
C57    C     0.10275   0.96960   0.64769   0.00000  Uiso   1.00
C58    C     0.13841   0.90914   0.66563   0.00000  Uiso   1.00
C59    C     0.18008   0.78305   0.69703   0.00000  Uiso   1.00
C60    C     0.18786   0.20051   0.61988   0.00000  Uiso   1.00
C61    C     0.14851   0.28418   0.63246   0.00000  Uiso   1.00
C62    C     0.16173   0.38258   0.64628   0.00000  Uiso   1.00
C63    C     0.11992   0.44777   0.65626   0.00000  Uiso   1.00
C64    C     0.17285   0.18137   0.58514   0.00000  Uiso   1.00
C65    C     0.20654   0.19330   0.55918   0.00000  Uiso   1.00
C66    C     0.18521   0.17192   0.52932   0.00000  Uiso   1.00
C67    C     0.17523   0.09543   0.63735   0.00000  Uiso   1.00
C68    C     0.21093   0.03509   0.65527   0.00000  Uiso   1.00
C69    C     0.19162   0.94134   0.66936   0.00000  Uiso   1.00
H70    H     0.04874   0.11630   0.61014   0.00000  Uiso   1.00
H71    H     0.01247   0.29219   0.63582   0.00000  Uiso   1.00
H72    H     0.05726   0.10293   0.54873   0.00000  Uiso   1.00
H73    H     0.06165   0.94475   0.64481   0.00000  Uiso   1.00
H74    H     0.99566   0.50140   0.66592   0.00000  Uiso   1.00
H75    H     0.09013   0.10229   0.48229   0.00000  Uiso   1.00
H76    H     0.09939   0.76874   0.68488   0.00000  Uiso   1.00
H77    H     0.22921   0.22554   0.62278   0.00000  Uiso   1.00
H78    H     0.20283   0.40743   0.64916   0.00000  Uiso   1.00
H79    H     0.24763   0.21817   0.56206   0.00000  Uiso   1.00
H80    H     0.25202   0.05999   0.65814   0.00000  Uiso   1.00
H81    H     0.15017   0.59494   0.67674   0.00000  Uiso   1.00
H82    H     0.24464   0.19582   0.49311   0.00000  Uiso   1.00
H83    H     0.25390   0.86228   0.69571   0.00000  Uiso   1.00
O84    O     0.05231   0.66587   0.68845   0.00000  Uiso   1.00
O85    O     0.17624   0.14223   0.44753   0.00000  Uiso   1.00
O86    O     0.18839   0.70463   0.71333   0.00000  Uiso   1.00
N87    N     0.03565   0.49844   0.66486   0.00000  Uiso   1.00
N88    N     0.12396   0.12532   0.49317   0.00000  Uiso   1.00
N89    N     0.13262   0.81346   0.68257   0.00000  Uiso   1.00
N90    N     0.11879   0.54877   0.67068   0.00000  Uiso   1.00
N91    N     0.20710   0.17565   0.49899   0.00000  Uiso   1.00
N92    N     0.21576   0.86379   0.68839   0.00000  Uiso   1.00
C93    C     0.40807   0.13393   0.31394   0.00000  Uiso   1.00
C94    C     0.40424   0.24318   0.29722   0.00000  Uiso   1.00
C95    C     0.44696   0.30719   0.28804   0.00000  Uiso   1.00
C96    C     0.43513   0.40440   0.27306   0.00000  Uiso   1.00
C97    C     0.43720   0.56921   0.24797   0.00000  Uiso   1.00
C98    C     0.37579   0.14478   0.34454   0.00000  Uiso   1.00
C99    C     0.39459   0.12605   0.37513   0.00000  Uiso   1.00
C100   C     0.35879   0.14041   0.39998   0.00000  Uiso   1.00
C101   C     0.31668   0.15238   0.44834   0.00000  Uiso   1.00
C102   C     0.37772   0.05412   0.29303   0.00000  Uiso   1.00
C103   C     0.39813   0.95914   0.28031   0.00000  Uiso   1.00
C104   C     0.36395   0.89716   0.26180   0.00000  Uiso   1.00
C105   C     0.32483   0.76836   0.23017   0.00000  Uiso   1.00
C106   C     0.31108   0.19274   0.30367   0.00000  Uiso   1.00
C107   C     0.35156   0.27512   0.29165   0.00000  Uiso   1.00
C108   C     0.33966   0.37226   0.27668   0.00000  Uiso   1.00
C109   C     0.38235   0.43640   0.26747   0.00000  Uiso   1.00
C110   C     0.32311   0.17673   0.33896   0.00000  Uiso   1.00
C111   C     0.28728   0.19111   0.36377   0.00000  Uiso   1.00
C112   C     0.30602   0.17241   0.39439   0.00000  Uiso   1.00
C113   C     0.32504   0.08607   0.28745   0.00000  Uiso   1.00
C114   C     0.29082   0.02421   0.26895   0.00000  Uiso   1.00
C115   C     0.31118   0.92916   0.25621   0.00000  Uiso   1.00
H116   H     0.44908   0.10906   0.31829   0.00000  Uiso   1.00
H117   H     0.48773   0.28244   0.29236   0.00000  Uiso   1.00
H118   H     0.43535   0.10132   0.37944   0.00000  Uiso   1.00
H119   H     0.43890   0.93445   0.28463   0.00000  Uiso   1.00
H120   H     0.50734   0.48878   0.26117   0.00000  Uiso   1.00
H121   H     0.39690   0.10683   0.44478   0.00000  Uiso   1.00
H122   H     0.40437   0.75494   0.24486   0.00000  Uiso   1.00
H123   H     0.27007   0.21760   0.29933   0.00000  Uiso   1.00
H124   H     0.29889   0.39695   0.27236   0.00000  Uiso   1.00
H125   H     0.24652   0.21583   0.35944   0.00000  Uiso   1.00
H126   H     0.25006   0.04896   0.26464   0.00000  Uiso   1.00
H127   H     0.35407   0.58173   0.24494   0.00000  Uiso   1.00
H128   H     0.24363   0.19977   0.42855   0.00000  Uiso   1.00
H129   H     0.25110   0.84789   0.22863   0.00000  Uiso   1.00
O130   O     0.45289   0.65129   0.23567   0.00000  Uiso   1.00
O131   O     0.30800   0.15017   0.47655   0.00000  Uiso   1.00
O132   O     0.31781   0.68851   0.21427   0.00000  Uiso   1.00
N133   N     0.46731   0.48603   0.26105   0.00000  Uiso   1.00
N134   N     0.36406   0.12895   0.43271   0.00000  Uiso   1.00
N135   N     0.37104   0.79995   0.24581   0.00000  Uiso   1.00
N136   N     0.38484   0.53605   0.25231   0.00000  Uiso   1.00
N137   N     0.28159   0.17896   0.42397   0.00000  Uiso   1.00
N138   N     0.28857   0.84996   0.23708   0.00000  Uiso   1.00
C139   C     0.40991   0.85867   0.11304   0.00000  Uiso   1.00
C140   C     0.40460   0.74796   0.12875   0.00000  Uiso   1.00
C141   C     0.44644   0.68291   0.13871   0.00000  Uiso   1.00
C142   C     0.43329   0.58444   0.15253   0.00000  Uiso   1.00
C143   C     0.43311   0.41740   0.17634   0.00000  Uiso   1.00
C144   C     0.38026   0.85078   0.08143   0.00000  Uiso   1.00
C145   C     0.40164   0.87219   0.05160   0.00000  Uiso   1.00
C146   C     0.36799   0.86028   0.02560   0.00000  Uiso   1.00
C147   C     0.33002   0.85294   0.97594   0.00000  Uiso   1.00
C148   C     0.37788   0.93672   0.13363   0.00000  Uiso   1.00
C149   C     0.39725   0.03040   0.14769   0.00000  Uiso   1.00
C150   C     0.36159   0.09086   0.16563   0.00000  Uiso   1.00
C151   C     0.31992   0.21695   0.19703   0.00000  Uiso   1.00
C152   C     0.31214   0.79949   0.11988   0.00000  Uiso   1.00
C153   C     0.35149   0.71582   0.13246   0.00000  Uiso   1.00
C154   C     0.33827   0.61742   0.14628   0.00000  Uiso   1.00
C155   C     0.38008   0.55223   0.15626   0.00000  Uiso   1.00
C156   C     0.32715   0.81863   0.08514   0.00000  Uiso   1.00
C157   C     0.29346   0.80670   0.05918   0.00000  Uiso   1.00
C158   C     0.31479   0.82808   0.02932   0.00000  Uiso   1.00
C159   C     0.32477   0.90457   0.13735   0.00000  Uiso   1.00
C160   C     0.28907   0.96491   0.15527   0.00000  Uiso   1.00
C161   C     0.30838   0.05866   0.16936   0.00000  Uiso   1.00
H162   H     0.45126   0.88370   0.11014   0.00000  Uiso   1.00
H163   H     0.48753   0.70781   0.13582   0.00000  Uiso   1.00
H164   H     0.44274   0.89707   0.04873   0.00000  Uiso   1.00
H165   H     0.43835   0.05525   0.14481   0.00000  Uiso   1.00
H166   H     0.50434   0.49860   0.16592   0.00000  Uiso   1.00
H167   H     0.40987   0.89771   0.98229   0.00000  Uiso   1.00
H168   H     0.40061   0.23126   0.18488   0.00000  Uiso   1.00
H169   H     0.27079   0.77446   0.12278   0.00000  Uiso   1.00
H170   H     0.29717   0.59257   0.14916   0.00000  Uiso   1.00
H171   H     0.25237   0.78183   0.06206   0.00000  Uiso   1.00
H172   H     0.24798   0.94001   0.15814   0.00000  Uiso   1.00
H173   H     0.34983   0.40506   0.17674   0.00000  Uiso   1.00
H174   H     0.25536   0.80418   0.99311   0.00000  Uiso   1.00
H175   H     0.24610   0.13772   0.19571   0.00000  Uiso   1.00
O176   O     0.44769   0.33413   0.18845   0.00000  Uiso   1.00
O177   O     0.32376   0.85777   0.94753   0.00000  Uiso   1.00
O178   O     0.31161   0.29537   0.21333   0.00000  Uiso   1.00
N179   N     0.46435   0.50156   0.16486   0.00000  Uiso   1.00
N180   N     0.37604   0.87468   0.99317   0.00000  Uiso   1.00
N181   N     0.36738   0.18654   0.18257   0.00000  Uiso   1.00
N182   N     0.38121   0.45123   0.17068   0.00000  Uiso   1.00
N183   N     0.29290   0.82435   0.99899   0.00000  Uiso   1.00
N184   N     0.28424   0.13621   0.18839   0.00000  Uiso   1.00
C185   C     0.90807   0.36607   0.68606   0.00000  Uiso   1.00
C186   C     0.90424   0.25682   0.70278   0.00000  Uiso   1.00
C187   C     0.94696   0.19281   0.71196   0.00000  Uiso   1.00
C188   C     0.93513   0.09560   0.72694   0.00000  Uiso   1.00
C189   C     0.93720   0.93079   0.75203   0.00000  Uiso   1.00
C190   C     0.87579   0.35522   0.65546   0.00000  Uiso   1.00
C191   C     0.89459   0.37395   0.62487   0.00000  Uiso   1.00
C192   C     0.85879   0.35959   0.60002   0.00000  Uiso   1.00
C193   C     0.81668   0.34762   0.55166   0.00000  Uiso   1.00
C194   C     0.87772   0.44588   0.70697   0.00000  Uiso   1.00
C195   C     0.89813   0.54086   0.71969   0.00000  Uiso   1.00
C196   C     0.86395   0.60284   0.73820   0.00000  Uiso   1.00
C197   C     0.82483   0.73164   0.76983   0.00000  Uiso   1.00
C198   C     0.81108   0.30726   0.69633   0.00000  Uiso   1.00
C199   C     0.85156   0.22488   0.70835   0.00000  Uiso   1.00
C200   C     0.83966   0.12774   0.72332   0.00000  Uiso   1.00
C201   C     0.88235   0.06360   0.73253   0.00000  Uiso   1.00
C202   C     0.82311   0.32327   0.66104   0.00000  Uiso   1.00
C203   C     0.78728   0.30889   0.63623   0.00000  Uiso   1.00
C204   C     0.80602   0.32759   0.60561   0.00000  Uiso   1.00
C205   C     0.82504   0.41393   0.71255   0.00000  Uiso   1.00
C206   C     0.79082   0.47579   0.73105   0.00000  Uiso   1.00
C207   C     0.81118   0.57084   0.74379   0.00000  Uiso   1.00
H208   H     0.94908   0.39094   0.68171   0.00000  Uiso   1.00
H209   H     0.98773   0.21756   0.70764   0.00000  Uiso   1.00
H210   H     0.93535   0.39868   0.62056   0.00000  Uiso   1.00
H211   H     0.93890   0.56555   0.71537   0.00000  Uiso   1.00
H212   H     0.00734   0.01122   0.73883   0.00000  Uiso   1.00
H213   H     0.89690   0.39317   0.55522   0.00000  Uiso   1.00
H214   H     0.90437   0.74506   0.75514   0.00000  Uiso   1.00
H215   H     0.77007   0.28240   0.70067   0.00000  Uiso   1.00
H216   H     0.79889   0.10305   0.72764   0.00000  Uiso   1.00
H217   H     0.74652   0.28417   0.64056   0.00000  Uiso   1.00
H218   H     0.75006   0.45104   0.73536   0.00000  Uiso   1.00
H219   H     0.85407   0.91827   0.75506   0.00000  Uiso   1.00
H220   H     0.74363   0.30023   0.57145   0.00000  Uiso   1.00
H221   H     0.75110   0.65211   0.77137   0.00000  Uiso   1.00
O222   O     0.95289   0.84871   0.76433   0.00000  Uiso   1.00
O223   O     0.80800   0.34983   0.52345   0.00000  Uiso   1.00
O224   O     0.81781   0.81149   0.78573   0.00000  Uiso   1.00
N225   N     0.96731   0.01397   0.73895   0.00000  Uiso   1.00
N226   N     0.86406   0.37105   0.56729   0.00000  Uiso   1.00
N227   N     0.87104   0.70005   0.75419   0.00000  Uiso   1.00
N228   N     0.88484   0.96395   0.74769   0.00000  Uiso   1.00
N229   N     0.78159   0.32104   0.57603   0.00000  Uiso   1.00
N230   N     0.78857   0.65004   0.76292   0.00000  Uiso   1.00
C231   C     0.90991   0.64133   0.88696   0.00000  Uiso   1.00
C232   C     0.90460   0.75204   0.87125   0.00000  Uiso   1.00
C233   C     0.94644   0.81709   0.86129   0.00000  Uiso   1.00
C234   C     0.93329   0.91556   0.84747   0.00000  Uiso   1.00
C235   C     0.93311   0.08260   0.82366   0.00000  Uiso   1.00
C236   C     0.88026   0.64922   0.91857   0.00000  Uiso   1.00
C237   C     0.90164   0.62781   0.94840   0.00000  Uiso   1.00
C238   C     0.86799   0.63972   0.97440   0.00000  Uiso   1.00
C239   C     0.83002   0.64706   0.02406   0.00000  Uiso   1.00
C240   C     0.87788   0.56328   0.86637   0.00000  Uiso   1.00
C241   C     0.89725   0.46960   0.85231   0.00000  Uiso   1.00
C242   C     0.86159   0.40914   0.83437   0.00000  Uiso   1.00
C243   C     0.81992   0.28305   0.80297   0.00000  Uiso   1.00
C244   C     0.81214   0.70051   0.88012   0.00000  Uiso   1.00
C245   C     0.85149   0.78418   0.86754   0.00000  Uiso   1.00
C246   C     0.83827   0.88258   0.85372   0.00000  Uiso   1.00
C247   C     0.88008   0.94777   0.84374   0.00000  Uiso   1.00
C248   C     0.82715   0.68137   0.91486   0.00000  Uiso   1.00
C249   C     0.79346   0.69330   0.94082   0.00000  Uiso   1.00
C250   C     0.81479   0.67192   0.97068   0.00000  Uiso   1.00
C251   C     0.82477   0.59543   0.86265   0.00000  Uiso   1.00
C252   C     0.78907   0.53509   0.84473   0.00000  Uiso   1.00
C253   C     0.80838   0.44134   0.83064   0.00000  Uiso   1.00
H254   H     0.95126   0.61630   0.88986   0.00000  Uiso   1.00
H255   H     0.98753   0.79219   0.86418   0.00000  Uiso   1.00
H256   H     0.94274   0.60293   0.95127   0.00000  Uiso   1.00
H257   H     0.93835   0.44475   0.85519   0.00000  Uiso   1.00
H258   H     0.00434   0.00140   0.83408   0.00000  Uiso   1.00
H259   H     0.90987   0.60229   0.01771   0.00000  Uiso   1.00
H260   H     0.90061   0.26874   0.81512   0.00000  Uiso   1.00
H261   H     0.77079   0.72554   0.87722   0.00000  Uiso   1.00
H262   H     0.79717   0.90743   0.85084   0.00000  Uiso   1.00
H263   H     0.75237   0.71817   0.93794   0.00000  Uiso   1.00
H264   H     0.74798   0.55999   0.84186   0.00000  Uiso   1.00
H265   H     0.84983   0.09494   0.82326   0.00000  Uiso   1.00
H266   H     0.75536   0.69582   0.00689   0.00000  Uiso   1.00
H267   H     0.74610   0.36228   0.80429   0.00000  Uiso   1.00
O268   O     0.94769   0.16587   0.81155   0.00000  Uiso   1.00
O269   O     0.82376   0.64223   0.05247   0.00000  Uiso   1.00
O270   O     0.81161   0.20463   0.78667   0.00000  Uiso   1.00
N271   N     0.96435   0.99844   0.83514   0.00000  Uiso   1.00
N272   N     0.87604   0.62532   0.00683   0.00000  Uiso   1.00
N273   N     0.86738   0.31346   0.81743   0.00000  Uiso   1.00
N274   N     0.88121   0.04877   0.82932   0.00000  Uiso   1.00
N275   N     0.79290   0.67565   0.00101   0.00000  Uiso   1.00
N276   N     0.78424   0.36379   0.81161   0.00000  Uiso   1.00
C277   C     0.59193   0.63393   0.18606   0.00000  Uiso   1.00
C278   C     0.59576   0.74318   0.20278   0.00000  Uiso   1.00
C279   C     0.55304   0.80719   0.21196   0.00000  Uiso   1.00
C280   C     0.56487   0.90440   0.22694   0.00000  Uiso   1.00
C281   C     0.56280   0.06921   0.25203   0.00000  Uiso   1.00
C282   C     0.62421   0.64478   0.15546   0.00000  Uiso   1.00
C283   C     0.60541   0.62605   0.12487   0.00000  Uiso   1.00
C284   C     0.64121   0.64041   0.10002   0.00000  Uiso   1.00
C285   C     0.68332   0.65238   0.05166   0.00000  Uiso   1.00
C286   C     0.62228   0.55412   0.20697   0.00000  Uiso   1.00
C287   C     0.60187   0.45914   0.21969   0.00000  Uiso   1.00
C288   C     0.63605   0.39716   0.23820   0.00000  Uiso   1.00
C289   C     0.67517   0.26836   0.26983   0.00000  Uiso   1.00
C290   C     0.68892   0.69274   0.19633   0.00000  Uiso   1.00
C291   C     0.64844   0.77512   0.20835   0.00000  Uiso   1.00
C292   C     0.66034   0.87226   0.22332   0.00000  Uiso   1.00
C293   C     0.61765   0.93640   0.23253   0.00000  Uiso   1.00
C294   C     0.67689   0.67673   0.16104   0.00000  Uiso   1.00
C295   C     0.71272   0.69111   0.13623   0.00000  Uiso   1.00
C296   C     0.69398   0.67241   0.10561   0.00000  Uiso   1.00
C297   C     0.67496   0.58607   0.21255   0.00000  Uiso   1.00
C298   C     0.70918   0.52421   0.23105   0.00000  Uiso   1.00
C299   C     0.68882   0.42916   0.24379   0.00000  Uiso   1.00
H300   H     0.55092   0.60906   0.18171   0.00000  Uiso   1.00
H301   H     0.51227   0.78244   0.20764   0.00000  Uiso   1.00
H302   H     0.56465   0.60132   0.12056   0.00000  Uiso   1.00
H303   H     0.56110   0.43445   0.21537   0.00000  Uiso   1.00
H304   H     0.49266   0.98878   0.23883   0.00000  Uiso   1.00
H305   H     0.60310   0.60683   0.05522   0.00000  Uiso   1.00
H306   H     0.59563   0.25494   0.25514   0.00000  Uiso   1.00
H307   H     0.72993   0.71760   0.20067   0.00000  Uiso   1.00
H308   H     0.70111   0.89695   0.22764   0.00000  Uiso   1.00
H309   H     0.75348   0.71583   0.14056   0.00000  Uiso   1.00
H310   H     0.74994   0.54896   0.23536   0.00000  Uiso   1.00
H311   H     0.64593   0.08173   0.25506   0.00000  Uiso   1.00
H312   H     0.75637   0.69977   0.07145   0.00000  Uiso   1.00
H313   H     0.74890   0.34789   0.27137   0.00000  Uiso   1.00
O314   O     0.54711   0.15129   0.26433   0.00000  Uiso   1.00
O315   O     0.69200   0.65017   0.02345   0.00000  Uiso   1.00
O316   O     0.68219   0.18851   0.28573   0.00000  Uiso   1.00
N317   N     0.53269   0.98603   0.23895   0.00000  Uiso   1.00
N318   N     0.63594   0.62895   0.06729   0.00000  Uiso   1.00
N319   N     0.62896   0.29995   0.25419   0.00000  Uiso   1.00
N320   N     0.61516   0.03605   0.24769   0.00000  Uiso   1.00
N321   N     0.71841   0.67896   0.07603   0.00000  Uiso   1.00
N322   N     0.71143   0.34996   0.26292   0.00000  Uiso   1.00
C323   C     0.59009   0.35867   0.38696   0.00000  Uiso   1.00
C324   C     0.59540   0.24796   0.37125   0.00000  Uiso   1.00
C325   C     0.55356   0.18291   0.36129   0.00000  Uiso   1.00
C326   C     0.56671   0.08444   0.34747   0.00000  Uiso   1.00
C327   C     0.56689   0.91740   0.32366   0.00000  Uiso   1.00
C328   C     0.61974   0.35078   0.41857   0.00000  Uiso   1.00
C329   C     0.59836   0.37219   0.44840   0.00000  Uiso   1.00
C330   C     0.63201   0.36028   0.47440   0.00000  Uiso   1.00
C331   C     0.66998   0.35294   0.52406   0.00000  Uiso   1.00
C332   C     0.62212   0.43672   0.36637   0.00000  Uiso   1.00
C333   C     0.60275   0.53040   0.35231   0.00000  Uiso   1.00
C334   C     0.63841   0.59086   0.33437   0.00000  Uiso   1.00
C335   C     0.68008   0.71695   0.30297   0.00000  Uiso   1.00
C336   C     0.68786   0.29949   0.38012   0.00000  Uiso   1.00
C337   C     0.64851   0.21582   0.36754   0.00000  Uiso   1.00
C338   C     0.66173   0.11742   0.35372   0.00000  Uiso   1.00
C339   C     0.61992   0.05223   0.34374   0.00000  Uiso   1.00
C340   C     0.67285   0.31863   0.41486   0.00000  Uiso   1.00
C341   C     0.70654   0.30670   0.44082   0.00000  Uiso   1.00
C342   C     0.68521   0.32808   0.47068   0.00000  Uiso   1.00
C343   C     0.67523   0.40457   0.36265   0.00000  Uiso   1.00
C344   C     0.71093   0.46491   0.34473   0.00000  Uiso   1.00
C345   C     0.69162   0.55866   0.33064   0.00000  Uiso   1.00
H346   H     0.54874   0.38370   0.38986   0.00000  Uiso   1.00
H347   H     0.51247   0.20781   0.36418   0.00000  Uiso   1.00
H348   H     0.55726   0.39707   0.45127   0.00000  Uiso   1.00
H349   H     0.56165   0.55525   0.35519   0.00000  Uiso   1.00
H350   H     0.49566   0.99860   0.33408   0.00000  Uiso   1.00
H351   H     0.59013   0.39771   0.51771   0.00000  Uiso   1.00
H352   H     0.59939   0.73126   0.31512   0.00000  Uiso   1.00
H353   H     0.72921   0.27446   0.37722   0.00000  Uiso   1.00
H354   H     0.70283   0.09257   0.35084   0.00000  Uiso   1.00
H355   H     0.74763   0.28183   0.43794   0.00000  Uiso   1.00
H356   H     0.75202   0.44001   0.34186   0.00000  Uiso   1.00
H357   H     0.65017   0.90506   0.32326   0.00000  Uiso   1.00
H358   H     0.74464   0.30418   0.50689   0.00000  Uiso   1.00
H359   H     0.75390   0.63772   0.30429   0.00000  Uiso   1.00
O360   O     0.55231   0.83413   0.31155   0.00000  Uiso   1.00
O361   O     0.67624   0.35777   0.55247   0.00000  Uiso   1.00
O362   O     0.68839   0.79537   0.28667   0.00000  Uiso   1.00
N363   N     0.53565   0.00156   0.33514   0.00000  Uiso   1.00
N364   N     0.62396   0.37468   0.50683   0.00000  Uiso   1.00
N365   N     0.63262   0.68654   0.31743   0.00000  Uiso   1.00
N366   N     0.61879   0.95123   0.32932   0.00000  Uiso   1.00
N367   N     0.70710   0.32435   0.50101   0.00000  Uiso   1.00
N368   N     0.71576   0.63621   0.31161   0.00000  Uiso   1.00
C369   C     0.90807   0.13393   0.18606   0.00000  Uiso   1.00
C370   C     0.90424   0.24318   0.20278   0.00000  Uiso   1.00
C371   C     0.94696   0.30719   0.21196   0.00000  Uiso   1.00
C372   C     0.93513   0.40440   0.22694   0.00000  Uiso   1.00
C373   C     0.93720   0.56921   0.25203   0.00000  Uiso   1.00
C374   C     0.87579   0.14478   0.15546   0.00000  Uiso   1.00
C375   C     0.89459   0.12605   0.12487   0.00000  Uiso   1.00
C376   C     0.85879   0.14041   0.10002   0.00000  Uiso   1.00
C377   C     0.81668   0.15238   0.05166   0.00000  Uiso   1.00
C378   C     0.87772   0.05412   0.20697   0.00000  Uiso   1.00
C379   C     0.89813   0.95914   0.21969   0.00000  Uiso   1.00
C380   C     0.86395   0.89716   0.23820   0.00000  Uiso   1.00
C381   C     0.82483   0.76836   0.26983   0.00000  Uiso   1.00
C382   C     0.81108   0.19274   0.19633   0.00000  Uiso   1.00
C383   C     0.85156   0.27512   0.20835   0.00000  Uiso   1.00
C384   C     0.83966   0.37226   0.22332   0.00000  Uiso   1.00
C385   C     0.88235   0.43640   0.23253   0.00000  Uiso   1.00
C386   C     0.82311   0.17673   0.16104   0.00000  Uiso   1.00
C387   C     0.78728   0.19111   0.13623   0.00000  Uiso   1.00
C388   C     0.80602   0.17241   0.10561   0.00000  Uiso   1.00
C389   C     0.82504   0.08607   0.21255   0.00000  Uiso   1.00
C390   C     0.79082   0.02421   0.23105   0.00000  Uiso   1.00
C391   C     0.81118   0.92916   0.24379   0.00000  Uiso   1.00
H392   H     0.94908   0.10906   0.18171   0.00000  Uiso   1.00
H393   H     0.98773   0.28244   0.20764   0.00000  Uiso   1.00
H394   H     0.93535   0.10132   0.12056   0.00000  Uiso   1.00
H395   H     0.93890   0.93445   0.21537   0.00000  Uiso   1.00
H396   H     0.00734   0.48878   0.23883   0.00000  Uiso   1.00
H397   H     0.89690   0.10683   0.05522   0.00000  Uiso   1.00
H398   H     0.90437   0.75494   0.25514   0.00000  Uiso   1.00
H399   H     0.77007   0.21760   0.20067   0.00000  Uiso   1.00
H400   H     0.79889   0.39695   0.22764   0.00000  Uiso   1.00
H401   H     0.74652   0.21583   0.14056   0.00000  Uiso   1.00
H402   H     0.75006   0.04896   0.23536   0.00000  Uiso   1.00
H403   H     0.85407   0.58173   0.25506   0.00000  Uiso   1.00
H404   H     0.74363   0.19977   0.07145   0.00000  Uiso   1.00
H405   H     0.75110   0.84789   0.27137   0.00000  Uiso   1.00
O406   O     0.95289   0.65129   0.26433   0.00000  Uiso   1.00
O407   O     0.80800   0.15017   0.02345   0.00000  Uiso   1.00
O408   O     0.81781   0.68851   0.28573   0.00000  Uiso   1.00
N409   N     0.96731   0.48603   0.23895   0.00000  Uiso   1.00
N410   N     0.86406   0.12895   0.06729   0.00000  Uiso   1.00
N411   N     0.87104   0.79995   0.25419   0.00000  Uiso   1.00
N412   N     0.88484   0.53605   0.24769   0.00000  Uiso   1.00
N413   N     0.78159   0.17896   0.07603   0.00000  Uiso   1.00
N414   N     0.78857   0.84996   0.26292   0.00000  Uiso   1.00
C415   C     0.90991   0.85867   0.38696   0.00000  Uiso   1.00
C416   C     0.90460   0.74796   0.37125   0.00000  Uiso   1.00
C417   C     0.94644   0.68291   0.36129   0.00000  Uiso   1.00
C418   C     0.93329   0.58444   0.34747   0.00000  Uiso   1.00
C419   C     0.93311   0.41740   0.32366   0.00000  Uiso   1.00
C420   C     0.88026   0.85078   0.41857   0.00000  Uiso   1.00
C421   C     0.90164   0.87219   0.44840   0.00000  Uiso   1.00
C422   C     0.86799   0.86028   0.47440   0.00000  Uiso   1.00
C423   C     0.83002   0.85294   0.52406   0.00000  Uiso   1.00
C424   C     0.87788   0.93672   0.36637   0.00000  Uiso   1.00
C425   C     0.89725   0.03040   0.35231   0.00000  Uiso   1.00
C426   C     0.86159   0.09086   0.33437   0.00000  Uiso   1.00
C427   C     0.81992   0.21695   0.30297   0.00000  Uiso   1.00
C428   C     0.81214   0.79949   0.38012   0.00000  Uiso   1.00
C429   C     0.85149   0.71582   0.36754   0.00000  Uiso   1.00
C430   C     0.83827   0.61742   0.35372   0.00000  Uiso   1.00
C431   C     0.88008   0.55223   0.34374   0.00000  Uiso   1.00
C432   C     0.82715   0.81863   0.41486   0.00000  Uiso   1.00
C433   C     0.79346   0.80670   0.44082   0.00000  Uiso   1.00
C434   C     0.81479   0.82808   0.47068   0.00000  Uiso   1.00
C435   C     0.82477   0.90457   0.36265   0.00000  Uiso   1.00
C436   C     0.78907   0.96491   0.34473   0.00000  Uiso   1.00
C437   C     0.80838   0.05866   0.33064   0.00000  Uiso   1.00
H438   H     0.95126   0.88370   0.38986   0.00000  Uiso   1.00
H439   H     0.98753   0.70781   0.36418   0.00000  Uiso   1.00
H440   H     0.94274   0.89707   0.45127   0.00000  Uiso   1.00
H441   H     0.93835   0.05525   0.35519   0.00000  Uiso   1.00
H442   H     0.00434   0.49860   0.33408   0.00000  Uiso   1.00
H443   H     0.90987   0.89771   0.51771   0.00000  Uiso   1.00
H444   H     0.90061   0.23126   0.31512   0.00000  Uiso   1.00
H445   H     0.77079   0.77446   0.37722   0.00000  Uiso   1.00
H446   H     0.79717   0.59257   0.35084   0.00000  Uiso   1.00
H447   H     0.75237   0.78183   0.43794   0.00000  Uiso   1.00
H448   H     0.74798   0.94001   0.34186   0.00000  Uiso   1.00
H449   H     0.84983   0.40506   0.32326   0.00000  Uiso   1.00
H450   H     0.75536   0.80418   0.50689   0.00000  Uiso   1.00
H451   H     0.74610   0.13772   0.30429   0.00000  Uiso   1.00
O452   O     0.94769   0.33413   0.31155   0.00000  Uiso   1.00
O453   O     0.82376   0.85777   0.55247   0.00000  Uiso   1.00
O454   O     0.81161   0.29537   0.28667   0.00000  Uiso   1.00
N455   N     0.96435   0.50156   0.33514   0.00000  Uiso   1.00
N456   N     0.87604   0.87468   0.50683   0.00000  Uiso   1.00
N457   N     0.86738   0.18654   0.31743   0.00000  Uiso   1.00
N458   N     0.88121   0.45123   0.32932   0.00000  Uiso   1.00
N459   N     0.79290   0.82435   0.50101   0.00000  Uiso   1.00
N460   N     0.78424   0.13621   0.31161   0.00000  Uiso   1.00
C461   C     0.59193   0.86607   0.68606   0.00000  Uiso   1.00
C462   C     0.59576   0.75682   0.70278   0.00000  Uiso   1.00
C463   C     0.55304   0.69281   0.71196   0.00000  Uiso   1.00
C464   C     0.56487   0.59560   0.72694   0.00000  Uiso   1.00
C465   C     0.56280   0.43079   0.75203   0.00000  Uiso   1.00
C466   C     0.62421   0.85522   0.65546   0.00000  Uiso   1.00
C467   C     0.60541   0.87395   0.62487   0.00000  Uiso   1.00
C468   C     0.64121   0.85959   0.60002   0.00000  Uiso   1.00
C469   C     0.68332   0.84762   0.55166   0.00000  Uiso   1.00
C470   C     0.62228   0.94588   0.70697   0.00000  Uiso   1.00
C471   C     0.60187   0.04086   0.71969   0.00000  Uiso   1.00
C472   C     0.63605   0.10284   0.73820   0.00000  Uiso   1.00
C473   C     0.67517   0.23164   0.76983   0.00000  Uiso   1.00
C474   C     0.68892   0.80726   0.69633   0.00000  Uiso   1.00
C475   C     0.64844   0.72488   0.70835   0.00000  Uiso   1.00
C476   C     0.66034   0.62774   0.72332   0.00000  Uiso   1.00
C477   C     0.61765   0.56360   0.73253   0.00000  Uiso   1.00
C478   C     0.67689   0.82327   0.66104   0.00000  Uiso   1.00
C479   C     0.71272   0.80889   0.63623   0.00000  Uiso   1.00
C480   C     0.69398   0.82759   0.60561   0.00000  Uiso   1.00
C481   C     0.67496   0.91393   0.71255   0.00000  Uiso   1.00
C482   C     0.70918   0.97579   0.73105   0.00000  Uiso   1.00
C483   C     0.68882   0.07084   0.74379   0.00000  Uiso   1.00
H484   H     0.55092   0.89094   0.68171   0.00000  Uiso   1.00
H485   H     0.51227   0.71756   0.70764   0.00000  Uiso   1.00
H486   H     0.56465   0.89868   0.62056   0.00000  Uiso   1.00
H487   H     0.56110   0.06555   0.71537   0.00000  Uiso   1.00
H488   H     0.49266   0.51122   0.73883   0.00000  Uiso   1.00
H489   H     0.60310   0.89317   0.55522   0.00000  Uiso   1.00
H490   H     0.59563   0.24506   0.75514   0.00000  Uiso   1.00
H491   H     0.72993   0.78240   0.70067   0.00000  Uiso   1.00
H492   H     0.70111   0.60305   0.72764   0.00000  Uiso   1.00
H493   H     0.75348   0.78417   0.64056   0.00000  Uiso   1.00
H494   H     0.74994   0.95104   0.73536   0.00000  Uiso   1.00
H495   H     0.64593   0.41827   0.75506   0.00000  Uiso   1.00
H496   H     0.75637   0.80023   0.57145   0.00000  Uiso   1.00
H497   H     0.74890   0.15211   0.77137   0.00000  Uiso   1.00
O498   O     0.54711   0.34871   0.76433   0.00000  Uiso   1.00
O499   O     0.69200   0.84983   0.52345   0.00000  Uiso   1.00
O500   O     0.68219   0.31149   0.78573   0.00000  Uiso   1.00
N501   N     0.53269   0.51397   0.73895   0.00000  Uiso   1.00
N502   N     0.63594   0.87105   0.56729   0.00000  Uiso   1.00
N503   N     0.62896   0.20005   0.75419   0.00000  Uiso   1.00
N504   N     0.61516   0.46395   0.74769   0.00000  Uiso   1.00
N505   N     0.71841   0.82104   0.57603   0.00000  Uiso   1.00
N506   N     0.71143   0.15004   0.76292   0.00000  Uiso   1.00
C507   C     0.59009   0.14133   0.88696   0.00000  Uiso   1.00
C508   C     0.59540   0.25204   0.87125   0.00000  Uiso   1.00
C509   C     0.55356   0.31709   0.86129   0.00000  Uiso   1.00
C510   C     0.56671   0.41556   0.84747   0.00000  Uiso   1.00
C511   C     0.56689   0.58260   0.82366   0.00000  Uiso   1.00
C512   C     0.61974   0.14922   0.91857   0.00000  Uiso   1.00
C513   C     0.59836   0.12781   0.94840   0.00000  Uiso   1.00
C514   C     0.63201   0.13972   0.97440   0.00000  Uiso   1.00
C515   C     0.66998   0.14706   0.02406   0.00000  Uiso   1.00
C516   C     0.62212   0.06328   0.86637   0.00000  Uiso   1.00
C517   C     0.60275   0.96960   0.85231   0.00000  Uiso   1.00
C518   C     0.63841   0.90914   0.83437   0.00000  Uiso   1.00
C519   C     0.68008   0.78305   0.80297   0.00000  Uiso   1.00
C520   C     0.68786   0.20051   0.88012   0.00000  Uiso   1.00
C521   C     0.64851   0.28418   0.86754   0.00000  Uiso   1.00
C522   C     0.66173   0.38258   0.85372   0.00000  Uiso   1.00
C523   C     0.61992   0.44777   0.84374   0.00000  Uiso   1.00
C524   C     0.67285   0.18137   0.91486   0.00000  Uiso   1.00
C525   C     0.70654   0.19330   0.94082   0.00000  Uiso   1.00
C526   C     0.68521   0.17192   0.97068   0.00000  Uiso   1.00
C527   C     0.67523   0.09543   0.86265   0.00000  Uiso   1.00
C528   C     0.71093   0.03509   0.84473   0.00000  Uiso   1.00
C529   C     0.69162   0.94134   0.83064   0.00000  Uiso   1.00
H530   H     0.54874   0.11630   0.88986   0.00000  Uiso   1.00
H531   H     0.51247   0.29219   0.86418   0.00000  Uiso   1.00
H532   H     0.55726   0.10293   0.95127   0.00000  Uiso   1.00
H533   H     0.56165   0.94475   0.85519   0.00000  Uiso   1.00
H534   H     0.49566   0.50140   0.83408   0.00000  Uiso   1.00
H535   H     0.59013   0.10229   0.01771   0.00000  Uiso   1.00
H536   H     0.59939   0.76874   0.81512   0.00000  Uiso   1.00
H537   H     0.72921   0.22554   0.87722   0.00000  Uiso   1.00
H538   H     0.70283   0.40743   0.85084   0.00000  Uiso   1.00
H539   H     0.74763   0.21817   0.93794   0.00000  Uiso   1.00
H540   H     0.75202   0.05999   0.84186   0.00000  Uiso   1.00
H541   H     0.65017   0.59494   0.82326   0.00000  Uiso   1.00
H542   H     0.74464   0.19582   0.00689   0.00000  Uiso   1.00
H543   H     0.75390   0.86228   0.80429   0.00000  Uiso   1.00
O544   O     0.55231   0.66587   0.81155   0.00000  Uiso   1.00
O545   O     0.67624   0.14223   0.05247   0.00000  Uiso   1.00
O546   O     0.68839   0.70463   0.78667   0.00000  Uiso   1.00
N547   N     0.53565   0.49844   0.83514   0.00000  Uiso   1.00
N548   N     0.62396   0.12532   0.00683   0.00000  Uiso   1.00
N549   N     0.63262   0.81346   0.81743   0.00000  Uiso   1.00
N550   N     0.61879   0.54877   0.82932   0.00000  Uiso   1.00
N551   N     0.70710   0.17565   0.00101   0.00000  Uiso   1.00
N552   N     0.71576   0.86379   0.81161   0.00000  Uiso   1.00
C553   C     0.09193   0.63393   0.31394   0.00000  Uiso   1.00
C554   C     0.09576   0.74318   0.29722   0.00000  Uiso   1.00
C555   C     0.05304   0.80719   0.28804   0.00000  Uiso   1.00
C556   C     0.06487   0.90440   0.27306   0.00000  Uiso   1.00
C557   C     0.06280   0.06921   0.24797   0.00000  Uiso   1.00
C558   C     0.12421   0.64478   0.34454   0.00000  Uiso   1.00
C559   C     0.10541   0.62605   0.37513   0.00000  Uiso   1.00
C560   C     0.14121   0.64041   0.39998   0.00000  Uiso   1.00
C561   C     0.18332   0.65238   0.44834   0.00000  Uiso   1.00
C562   C     0.12228   0.55412   0.29303   0.00000  Uiso   1.00
C563   C     0.10187   0.45914   0.28031   0.00000  Uiso   1.00
C564   C     0.13605   0.39716   0.26180   0.00000  Uiso   1.00
C565   C     0.17517   0.26836   0.23017   0.00000  Uiso   1.00
C566   C     0.18892   0.69274   0.30367   0.00000  Uiso   1.00
C567   C     0.14844   0.77512   0.29165   0.00000  Uiso   1.00
C568   C     0.16034   0.87226   0.27668   0.00000  Uiso   1.00
C569   C     0.11765   0.93640   0.26747   0.00000  Uiso   1.00
C570   C     0.17689   0.67673   0.33896   0.00000  Uiso   1.00
C571   C     0.21272   0.69111   0.36377   0.00000  Uiso   1.00
C572   C     0.19398   0.67241   0.39439   0.00000  Uiso   1.00
C573   C     0.17496   0.58607   0.28745   0.00000  Uiso   1.00
C574   C     0.20918   0.52421   0.26895   0.00000  Uiso   1.00
C575   C     0.18882   0.42916   0.25621   0.00000  Uiso   1.00
H576   H     0.05092   0.60906   0.31829   0.00000  Uiso   1.00
H577   H     0.01227   0.78244   0.29236   0.00000  Uiso   1.00
H578   H     0.06465   0.60132   0.37944   0.00000  Uiso   1.00
H579   H     0.06110   0.43445   0.28463   0.00000  Uiso   1.00
H580   H     0.99266   0.98878   0.26117   0.00000  Uiso   1.00
H581   H     0.10310   0.60683   0.44478   0.00000  Uiso   1.00
H582   H     0.09563   0.25494   0.24486   0.00000  Uiso   1.00
H583   H     0.22993   0.71760   0.29933   0.00000  Uiso   1.00
H584   H     0.20111   0.89695   0.27236   0.00000  Uiso   1.00
H585   H     0.25348   0.71583   0.35944   0.00000  Uiso   1.00
H586   H     0.24994   0.54896   0.26464   0.00000  Uiso   1.00
H587   H     0.14593   0.08173   0.24494   0.00000  Uiso   1.00
H588   H     0.25637   0.69977   0.42855   0.00000  Uiso   1.00
H589   H     0.24890   0.34789   0.22863   0.00000  Uiso   1.00
O590   O     0.04711   0.15129   0.23567   0.00000  Uiso   1.00
O591   O     0.19200   0.65017   0.47655   0.00000  Uiso   1.00
O592   O     0.18219   0.18851   0.21427   0.00000  Uiso   1.00
N593   N     0.03269   0.98603   0.26105   0.00000  Uiso   1.00
N594   N     0.13594   0.62895   0.43271   0.00000  Uiso   1.00
N595   N     0.12896   0.29995   0.24581   0.00000  Uiso   1.00
N596   N     0.11516   0.03605   0.25231   0.00000  Uiso   1.00
N597   N     0.21841   0.67896   0.42397   0.00000  Uiso   1.00
N598   N     0.21143   0.34996   0.23708   0.00000  Uiso   1.00
C599   C     0.09009   0.35867   0.11304   0.00000  Uiso   1.00
C600   C     0.09540   0.24796   0.12875   0.00000  Uiso   1.00
C601   C     0.05356   0.18291   0.13871   0.00000  Uiso   1.00
C602   C     0.06671   0.08444   0.15253   0.00000  Uiso   1.00
C603   C     0.06689   0.91740   0.17634   0.00000  Uiso   1.00
C604   C     0.11974   0.35078   0.08143   0.00000  Uiso   1.00
C605   C     0.09836   0.37219   0.05160   0.00000  Uiso   1.00
C606   C     0.13201   0.36028   0.02560   0.00000  Uiso   1.00
C607   C     0.16998   0.35294   0.97594   0.00000  Uiso   1.00
C608   C     0.12212   0.43672   0.13363   0.00000  Uiso   1.00
C609   C     0.10275   0.53040   0.14769   0.00000  Uiso   1.00
C610   C     0.13841   0.59086   0.16563   0.00000  Uiso   1.00
C611   C     0.18008   0.71695   0.19703   0.00000  Uiso   1.00
C612   C     0.18786   0.29949   0.11988   0.00000  Uiso   1.00
C613   C     0.14851   0.21582   0.13246   0.00000  Uiso   1.00
C614   C     0.16173   0.11742   0.14628   0.00000  Uiso   1.00
C615   C     0.11992   0.05223   0.15626   0.00000  Uiso   1.00
C616   C     0.17285   0.31863   0.08514   0.00000  Uiso   1.00
C617   C     0.20654   0.30670   0.05918   0.00000  Uiso   1.00
C618   C     0.18521   0.32808   0.02932   0.00000  Uiso   1.00
C619   C     0.17523   0.40457   0.13735   0.00000  Uiso   1.00
C620   C     0.21093   0.46491   0.15527   0.00000  Uiso   1.00
C621   C     0.19162   0.55866   0.16936   0.00000  Uiso   1.00
H622   H     0.04874   0.38370   0.11014   0.00000  Uiso   1.00
H623   H     0.01247   0.20781   0.13582   0.00000  Uiso   1.00
H624   H     0.05726   0.39707   0.04873   0.00000  Uiso   1.00
H625   H     0.06165   0.55525   0.14481   0.00000  Uiso   1.00
H626   H     0.99566   0.99860   0.16592   0.00000  Uiso   1.00
H627   H     0.09013   0.39771   0.98229   0.00000  Uiso   1.00
H628   H     0.09939   0.73126   0.18488   0.00000  Uiso   1.00
H629   H     0.22921   0.27446   0.12278   0.00000  Uiso   1.00
H630   H     0.20283   0.09257   0.14916   0.00000  Uiso   1.00
H631   H     0.24763   0.28183   0.06206   0.00000  Uiso   1.00
H632   H     0.25202   0.44001   0.15814   0.00000  Uiso   1.00
H633   H     0.15017   0.90506   0.17674   0.00000  Uiso   1.00
H634   H     0.24464   0.30418   0.99311   0.00000  Uiso   1.00
H635   H     0.25390   0.63772   0.19571   0.00000  Uiso   1.00
O636   O     0.05231   0.83413   0.18845   0.00000  Uiso   1.00
O637   O     0.17624   0.35777   0.94753   0.00000  Uiso   1.00
O638   O     0.18839   0.79537   0.21333   0.00000  Uiso   1.00
N639   N     0.03565   0.00156   0.16486   0.00000  Uiso   1.00
N640   N     0.12396   0.37468   0.99317   0.00000  Uiso   1.00
N641   N     0.13262   0.68654   0.18257   0.00000  Uiso   1.00
N642   N     0.11879   0.95123   0.17068   0.00000  Uiso   1.00
N643   N     0.20710   0.32435   0.99899   0.00000  Uiso   1.00
N644   N     0.21576   0.63621   0.18839   0.00000  Uiso   1.00
C645   C     0.40807   0.36607   0.81394   0.00000  Uiso   1.00
C646   C     0.40424   0.25682   0.79722   0.00000  Uiso   1.00
C647   C     0.44696   0.19281   0.78804   0.00000  Uiso   1.00
C648   C     0.43513   0.09560   0.77306   0.00000  Uiso   1.00
C649   C     0.43720   0.93079   0.74797   0.00000  Uiso   1.00
C650   C     0.37579   0.35522   0.84454   0.00000  Uiso   1.00
C651   C     0.39459   0.37395   0.87513   0.00000  Uiso   1.00
C652   C     0.35879   0.35959   0.89998   0.00000  Uiso   1.00
C653   C     0.31668   0.34762   0.94834   0.00000  Uiso   1.00
C654   C     0.37772   0.44588   0.79303   0.00000  Uiso   1.00
C655   C     0.39813   0.54086   0.78031   0.00000  Uiso   1.00
C656   C     0.36395   0.60284   0.76180   0.00000  Uiso   1.00
C657   C     0.32483   0.73164   0.73017   0.00000  Uiso   1.00
C658   C     0.31108   0.30726   0.80367   0.00000  Uiso   1.00
C659   C     0.35156   0.22488   0.79165   0.00000  Uiso   1.00
C660   C     0.33966   0.12774   0.77668   0.00000  Uiso   1.00
C661   C     0.38235   0.06360   0.76747   0.00000  Uiso   1.00
C662   C     0.32311   0.32327   0.83896   0.00000  Uiso   1.00
C663   C     0.28728   0.30889   0.86377   0.00000  Uiso   1.00
C664   C     0.30602   0.32759   0.89439   0.00000  Uiso   1.00
C665   C     0.32504   0.41393   0.78745   0.00000  Uiso   1.00
C666   C     0.29082   0.47579   0.76895   0.00000  Uiso   1.00
C667   C     0.31118   0.57084   0.75621   0.00000  Uiso   1.00
H668   H     0.44908   0.39094   0.81829   0.00000  Uiso   1.00
H669   H     0.48773   0.21756   0.79236   0.00000  Uiso   1.00
H670   H     0.43535   0.39868   0.87944   0.00000  Uiso   1.00
H671   H     0.43890   0.56555   0.78463   0.00000  Uiso   1.00
H672   H     0.50734   0.01122   0.76117   0.00000  Uiso   1.00
H673   H     0.39690   0.39317   0.94478   0.00000  Uiso   1.00
H674   H     0.40437   0.74506   0.74486   0.00000  Uiso   1.00
H675   H     0.27007   0.28240   0.79933   0.00000  Uiso   1.00
H676   H     0.29889   0.10305   0.77236   0.00000  Uiso   1.00
H677   H     0.24652   0.28417   0.85944   0.00000  Uiso   1.00
H678   H     0.25006   0.45104   0.76464   0.00000  Uiso   1.00
H679   H     0.35407   0.91827   0.74494   0.00000  Uiso   1.00
H680   H     0.24363   0.30023   0.92855   0.00000  Uiso   1.00
H681   H     0.25110   0.65211   0.72863   0.00000  Uiso   1.00
O682   O     0.45289   0.84871   0.73567   0.00000  Uiso   1.00
O683   O     0.30800   0.34983   0.97655   0.00000  Uiso   1.00
O684   O     0.31781   0.81149   0.71427   0.00000  Uiso   1.00
N685   N     0.46731   0.01397   0.76105   0.00000  Uiso   1.00
N686   N     0.36406   0.37105   0.93271   0.00000  Uiso   1.00
N687   N     0.37104   0.70005   0.74581   0.00000  Uiso   1.00
N688   N     0.38484   0.96395   0.75231   0.00000  Uiso   1.00
N689   N     0.28159   0.32104   0.92397   0.00000  Uiso   1.00
N690   N     0.28857   0.65004   0.73708   0.00000  Uiso   1.00
C691   C     0.40991   0.64133   0.61304   0.00000  Uiso   1.00
C692   C     0.40460   0.75204   0.62875   0.00000  Uiso   1.00
C693   C     0.44644   0.81709   0.63871   0.00000  Uiso   1.00
C694   C     0.43329   0.91556   0.65253   0.00000  Uiso   1.00
C695   C     0.43311   0.08260   0.67634   0.00000  Uiso   1.00
C696   C     0.38026   0.64922   0.58143   0.00000  Uiso   1.00
C697   C     0.40164   0.62781   0.55160   0.00000  Uiso   1.00
C698   C     0.36799   0.63972   0.52560   0.00000  Uiso   1.00
C699   C     0.33002   0.64706   0.47594   0.00000  Uiso   1.00
C700   C     0.37788   0.56328   0.63363   0.00000  Uiso   1.00
C701   C     0.39725   0.46960   0.64769   0.00000  Uiso   1.00
C702   C     0.36159   0.40914   0.66563   0.00000  Uiso   1.00
C703   C     0.31992   0.28305   0.69703   0.00000  Uiso   1.00
C704   C     0.31214   0.70051   0.61988   0.00000  Uiso   1.00
C705   C     0.35149   0.78418   0.63246   0.00000  Uiso   1.00
C706   C     0.33827   0.88258   0.64628   0.00000  Uiso   1.00
C707   C     0.38008   0.94777   0.65626   0.00000  Uiso   1.00
C708   C     0.32715   0.68137   0.58514   0.00000  Uiso   1.00
C709   C     0.29346   0.69330   0.55918   0.00000  Uiso   1.00
C710   C     0.31479   0.67192   0.52932   0.00000  Uiso   1.00
C711   C     0.32477   0.59543   0.63735   0.00000  Uiso   1.00
C712   C     0.28907   0.53509   0.65527   0.00000  Uiso   1.00
C713   C     0.30838   0.44134   0.66936   0.00000  Uiso   1.00
H714   H     0.45126   0.61630   0.61014   0.00000  Uiso   1.00
H715   H     0.48753   0.79219   0.63582   0.00000  Uiso   1.00
H716   H     0.44274   0.60293   0.54873   0.00000  Uiso   1.00
H717   H     0.43835   0.44475   0.64481   0.00000  Uiso   1.00
H718   H     0.50434   0.00140   0.66592   0.00000  Uiso   1.00
H719   H     0.40987   0.60229   0.48229   0.00000  Uiso   1.00
H720   H     0.40061   0.26874   0.68488   0.00000  Uiso   1.00
H721   H     0.27079   0.72554   0.62278   0.00000  Uiso   1.00
H722   H     0.29717   0.90743   0.64916   0.00000  Uiso   1.00
H723   H     0.25237   0.71817   0.56206   0.00000  Uiso   1.00
H724   H     0.24798   0.55999   0.65814   0.00000  Uiso   1.00
H725   H     0.34983   0.09494   0.67674   0.00000  Uiso   1.00
H726   H     0.25536   0.69582   0.49311   0.00000  Uiso   1.00
H727   H     0.24610   0.36228   0.69571   0.00000  Uiso   1.00
O728   O     0.44769   0.16587   0.68845   0.00000  Uiso   1.00
O729   O     0.32376   0.64223   0.44753   0.00000  Uiso   1.00
O730   O     0.31161   0.20463   0.71333   0.00000  Uiso   1.00
N731   N     0.46435   0.99844   0.66486   0.00000  Uiso   1.00
N732   N     0.37604   0.62532   0.49317   0.00000  Uiso   1.00
N733   N     0.36738   0.31346   0.68257   0.00000  Uiso   1.00
N734   N     0.38121   0.04877   0.67068   0.00000  Uiso   1.00
N735   N     0.29290   0.67565   0.49899   0.00000  Uiso   1.00
N736   N     0.28424   0.36379   0.68839   0.00000  Uiso   1.00
