data_job_05696
_audit_creation_date              2018-12-19
_audit_creation_method            'Materials Studio'
_symmetry_space_group_name_H-M    'P1'
_symmetry_Int_Tables_number       1
_symmetry_cell_setting            triclinic
loop_
_symmetry_equiv_pos_as_xyz
  x,y,z
_cell_length_a                    17.0019
_cell_length_b                    44.7245
_cell_length_c                    14.8533
_cell_angle_alpha                 90.0000
_cell_angle_beta                  90.0000
_cell_angle_gamma                 90.0000
loop_
_atom_site_label
_atom_site_type_symbol
_atom_site_fract_x
_atom_site_fract_y
_atom_site_fract_z
_atom_site_U_iso_or_equiv
_atom_site_adp_type
_atom_site_occupancy
C1     C     0.35320   0.44258   0.63171   0.00000  Uiso   1.00
C2     C     0.28222   0.46209   0.65375   0.00000  Uiso   1.00
C3     C     0.24699   0.48245   0.59589   0.00000  Uiso   1.00
C4     C     0.18266   0.49814   0.62878   0.00000  Uiso   1.00
C5     C     0.07673   0.52914   0.64969   0.00000  Uiso   1.00
C6     C     0.41471   0.44952   0.70344   0.00000  Uiso   1.00
C7     C     0.49090   0.45930   0.68735   0.00000  Uiso   1.00
C8     C     0.53810   0.46441   0.76206   0.00000  Uiso   1.00
C9     C     0.63790   0.47588   0.86011   0.00000  Uiso   1.00
C10    C     0.32730   0.41041   0.64846   0.00000  Uiso   1.00
C11    C     0.33000   0.38731   0.58617   0.00000  Uiso   1.00
C12    C     0.30362   0.35949   0.61461   0.00000  Uiso   1.00
C13    C     0.26769   0.31023   0.62730   0.00000  Uiso   1.00
C14    C     0.30158   0.43425   0.79299   0.00000  Uiso   1.00
C15    C     0.25418   0.45757   0.74135   0.00000  Uiso   1.00
C16    C     0.18988   0.47323   0.77433   0.00000  Uiso   1.00
C17    C     0.15456   0.49361   0.71654   0.00000  Uiso   1.00
C18    C     0.38668   0.44500   0.79103   0.00000  Uiso   1.00
C19    C     0.43378   0.45009   0.86579   0.00000  Uiso   1.00
C20    C     0.51001   0.45988   0.84982   0.00000  Uiso   1.00
C21    C     0.29926   0.40589   0.73607   0.00000  Uiso   1.00
C22    C     0.27288   0.37810   0.76461   0.00000  Uiso   1.00
C23    C     0.27554   0.35495   0.70237   0.00000  Uiso   1.00
H24    H     0.37503   0.44610   0.56351   0.00000  Uiso   1.00
H25    H     0.26871   0.48594   0.52811   0.00000  Uiso   1.00
H26    H     0.51258   0.46280   0.61955   0.00000  Uiso   1.00
H27    H     0.35170   0.39082   0.51838   0.00000  Uiso   1.00
H28    H     0.13849   0.52813   0.52750   0.00000  Uiso   1.00
H29    H     0.65270   0.47932   0.72031   0.00000  Uiso   1.00
H30    H     0.31346   0.32753   0.50698   0.00000  Uiso   1.00
H31    H     0.27975   0.43073   0.86119   0.00000  Uiso   1.00
H32    H     0.16820   0.46973   0.84213   0.00000  Uiso   1.00
H33    H     0.41207   0.44659   0.93357   0.00000  Uiso   1.00
H34    H     0.25119   0.37460   0.83240   0.00000  Uiso   1.00
H35    H     0.05691   0.51497   0.78237   0.00000  Uiso   1.00
H36    H     0.57113   0.46617   0.97518   0.00000  Uiso   1.00
H37    H     0.23188   0.31437   0.76186   0.00000  Uiso   1.00
O38    O     0.02605   0.54749   0.63704   0.00000  Uiso   1.00
O39    O     0.70069   0.48346   0.88999   0.00000  Uiso   1.00
O40    O     0.25561   0.28431   0.61011   0.00000  Uiso   1.00
N41    N     0.13459   0.51968   0.59010   0.00000  Uiso   1.00
N42    N     0.61535   0.47405   0.77036   0.00000  Uiso   1.00
N43    N     0.29820   0.33214   0.57093   0.00000  Uiso   1.00
N44    N     0.09069   0.51259   0.72724   0.00000  Uiso   1.00
N45    N     0.57145   0.46697   0.90751   0.00000  Uiso   1.00
N46    N     0.25431   0.32505   0.70807   0.00000  Uiso   1.00
C47    C     0.35320   0.94258   0.13171   0.00000  Uiso   1.00
C48    C     0.28222   0.96209   0.15375   0.00000  Uiso   1.00
C49    C     0.24699   0.98245   0.09589   0.00000  Uiso   1.00
C50    C     0.18266   0.99814   0.12878   0.00000  Uiso   1.00
C51    C     0.07673   0.02914   0.14969   0.00000  Uiso   1.00
C52    C     0.41471   0.94952   0.20344   0.00000  Uiso   1.00
C53    C     0.49090   0.95930   0.18735   0.00000  Uiso   1.00
C54    C     0.53810   0.96441   0.26206   0.00000  Uiso   1.00
C55    C     0.63790   0.97588   0.36011   0.00000  Uiso   1.00
C56    C     0.32730   0.91041   0.14846   0.00000  Uiso   1.00
C57    C     0.33000   0.88731   0.08617   0.00000  Uiso   1.00
C58    C     0.30362   0.85949   0.11461   0.00000  Uiso   1.00
C59    C     0.26769   0.81023   0.12730   0.00000  Uiso   1.00
C60    C     0.30158   0.93425   0.29299   0.00000  Uiso   1.00
C61    C     0.25418   0.95757   0.24135   0.00000  Uiso   1.00
C62    C     0.18988   0.97323   0.27433   0.00000  Uiso   1.00
C63    C     0.15456   0.99361   0.21654   0.00000  Uiso   1.00
C64    C     0.38668   0.94500   0.29103   0.00000  Uiso   1.00
C65    C     0.43378   0.95009   0.36579   0.00000  Uiso   1.00
C66    C     0.51001   0.95988   0.34982   0.00000  Uiso   1.00
C67    C     0.29926   0.90589   0.23607   0.00000  Uiso   1.00
C68    C     0.27288   0.87810   0.26461   0.00000  Uiso   1.00
C69    C     0.27554   0.85495   0.20237   0.00000  Uiso   1.00
H70    H     0.37503   0.94610   0.06351   0.00000  Uiso   1.00
H71    H     0.26871   0.98594   0.02811   0.00000  Uiso   1.00
H72    H     0.51258   0.96280   0.11955   0.00000  Uiso   1.00
H73    H     0.35170   0.89082   0.01838   0.00000  Uiso   1.00
H74    H     0.13849   0.02813   0.02750   0.00000  Uiso   1.00
H75    H     0.65270   0.97932   0.22031   0.00000  Uiso   1.00
H76    H     0.31346   0.82753   0.00698   0.00000  Uiso   1.00
H77    H     0.27975   0.93073   0.36119   0.00000  Uiso   1.00
H78    H     0.16820   0.96973   0.34213   0.00000  Uiso   1.00
H79    H     0.41207   0.94659   0.43357   0.00000  Uiso   1.00
H80    H     0.25119   0.87460   0.33240   0.00000  Uiso   1.00
H81    H     0.05691   0.01497   0.28237   0.00000  Uiso   1.00
H82    H     0.57113   0.96617   0.47518   0.00000  Uiso   1.00
H83    H     0.23188   0.81437   0.26186   0.00000  Uiso   1.00
O84    O     0.02605   0.04749   0.13704   0.00000  Uiso   1.00
O85    O     0.70069   0.98346   0.38999   0.00000  Uiso   1.00
O86    O     0.25561   0.78431   0.11011   0.00000  Uiso   1.00
N87    N     0.13459   0.01968   0.09010   0.00000  Uiso   1.00
N88    N     0.61535   0.97405   0.27036   0.00000  Uiso   1.00
N89    N     0.29820   0.83214   0.07093   0.00000  Uiso   1.00
N90    N     0.09069   0.01259   0.22724   0.00000  Uiso   1.00
N91    N     0.57145   0.96697   0.40751   0.00000  Uiso   1.00
N92    N     0.25431   0.82505   0.20807   0.00000  Uiso   1.00
C93    C     0.85320   0.44258   0.13171   0.00000  Uiso   1.00
C94    C     0.78222   0.46209   0.15375   0.00000  Uiso   1.00
C95    C     0.74699   0.48245   0.09589   0.00000  Uiso   1.00
C96    C     0.68266   0.49814   0.12878   0.00000  Uiso   1.00
C97    C     0.57673   0.52914   0.14969   0.00000  Uiso   1.00
C98    C     0.91471   0.44952   0.20344   0.00000  Uiso   1.00
C99    C     0.99090   0.45930   0.18735   0.00000  Uiso   1.00
C100   C     0.03810   0.46441   0.26206   0.00000  Uiso   1.00
C101   C     0.13790   0.47588   0.36011   0.00000  Uiso   1.00
C102   C     0.82730   0.41041   0.14846   0.00000  Uiso   1.00
C103   C     0.83000   0.38731   0.08617   0.00000  Uiso   1.00
C104   C     0.80362   0.35949   0.11461   0.00000  Uiso   1.00
C105   C     0.76769   0.31023   0.12730   0.00000  Uiso   1.00
C106   C     0.80158   0.43425   0.29299   0.00000  Uiso   1.00
C107   C     0.75418   0.45757   0.24135   0.00000  Uiso   1.00
C108   C     0.68988   0.47323   0.27433   0.00000  Uiso   1.00
C109   C     0.65456   0.49361   0.21654   0.00000  Uiso   1.00
C110   C     0.88668   0.44500   0.29103   0.00000  Uiso   1.00
C111   C     0.93378   0.45009   0.36579   0.00000  Uiso   1.00
C112   C     0.01001   0.45988   0.34982   0.00000  Uiso   1.00
C113   C     0.79926   0.40589   0.23607   0.00000  Uiso   1.00
C114   C     0.77288   0.37810   0.26461   0.00000  Uiso   1.00
C115   C     0.77554   0.35495   0.20237   0.00000  Uiso   1.00
H116   H     0.87503   0.44610   0.06351   0.00000  Uiso   1.00
H117   H     0.76871   0.48594   0.02811   0.00000  Uiso   1.00
H118   H     0.01258   0.46280   0.11955   0.00000  Uiso   1.00
H119   H     0.85170   0.39082   0.01838   0.00000  Uiso   1.00
H120   H     0.63849   0.52813   0.02750   0.00000  Uiso   1.00
H121   H     0.15270   0.47932   0.22031   0.00000  Uiso   1.00
H122   H     0.81346   0.32753   0.00698   0.00000  Uiso   1.00
H123   H     0.77975   0.43073   0.36119   0.00000  Uiso   1.00
H124   H     0.66820   0.46973   0.34213   0.00000  Uiso   1.00
H125   H     0.91207   0.44659   0.43357   0.00000  Uiso   1.00
H126   H     0.75119   0.37460   0.33240   0.00000  Uiso   1.00
H127   H     0.55691   0.51497   0.28237   0.00000  Uiso   1.00
H128   H     0.07113   0.46617   0.47518   0.00000  Uiso   1.00
H129   H     0.73188   0.31437   0.26186   0.00000  Uiso   1.00
O130   O     0.52605   0.54749   0.13704   0.00000  Uiso   1.00
O131   O     0.20069   0.48346   0.38999   0.00000  Uiso   1.00
O132   O     0.75561   0.28431   0.11011   0.00000  Uiso   1.00
N133   N     0.63459   0.51968   0.09010   0.00000  Uiso   1.00
N134   N     0.11535   0.47405   0.27036   0.00000  Uiso   1.00
N135   N     0.79820   0.33214   0.07093   0.00000  Uiso   1.00
N136   N     0.59069   0.51259   0.22724   0.00000  Uiso   1.00
N137   N     0.07145   0.46697   0.40751   0.00000  Uiso   1.00
N138   N     0.75431   0.32505   0.20807   0.00000  Uiso   1.00
C139   C     0.85320   0.94258   0.63171   0.00000  Uiso   1.00
C140   C     0.78222   0.96209   0.65375   0.00000  Uiso   1.00
C141   C     0.74699   0.98245   0.59589   0.00000  Uiso   1.00
C142   C     0.68266   0.99814   0.62878   0.00000  Uiso   1.00
C143   C     0.57673   0.02914   0.64969   0.00000  Uiso   1.00
C144   C     0.91471   0.94952   0.70344   0.00000  Uiso   1.00
C145   C     0.99090   0.95930   0.68735   0.00000  Uiso   1.00
C146   C     0.03810   0.96441   0.76206   0.00000  Uiso   1.00
C147   C     0.13790   0.97588   0.86011   0.00000  Uiso   1.00
C148   C     0.82730   0.91041   0.64846   0.00000  Uiso   1.00
C149   C     0.83000   0.88731   0.58617   0.00000  Uiso   1.00
C150   C     0.80362   0.85949   0.61461   0.00000  Uiso   1.00
C151   C     0.76769   0.81023   0.62730   0.00000  Uiso   1.00
C152   C     0.80158   0.93425   0.79299   0.00000  Uiso   1.00
C153   C     0.75418   0.95757   0.74135   0.00000  Uiso   1.00
C154   C     0.68988   0.97323   0.77433   0.00000  Uiso   1.00
C155   C     0.65456   0.99361   0.71654   0.00000  Uiso   1.00
C156   C     0.88668   0.94500   0.79103   0.00000  Uiso   1.00
C157   C     0.93378   0.95009   0.86579   0.00000  Uiso   1.00
C158   C     0.01001   0.95988   0.84982   0.00000  Uiso   1.00
C159   C     0.79926   0.90589   0.73607   0.00000  Uiso   1.00
C160   C     0.77288   0.87810   0.76461   0.00000  Uiso   1.00
C161   C     0.77554   0.85495   0.70237   0.00000  Uiso   1.00
H162   H     0.87503   0.94610   0.56351   0.00000  Uiso   1.00
H163   H     0.76871   0.98594   0.52811   0.00000  Uiso   1.00
H164   H     0.01258   0.96280   0.61955   0.00000  Uiso   1.00
H165   H     0.85170   0.89082   0.51838   0.00000  Uiso   1.00
H166   H     0.63849   0.02813   0.52750   0.00000  Uiso   1.00
H167   H     0.15270   0.97932   0.72031   0.00000  Uiso   1.00
H168   H     0.81346   0.82753   0.50698   0.00000  Uiso   1.00
H169   H     0.77975   0.93073   0.86119   0.00000  Uiso   1.00
H170   H     0.66820   0.96973   0.84213   0.00000  Uiso   1.00
H171   H     0.91207   0.94659   0.93357   0.00000  Uiso   1.00
H172   H     0.75119   0.87460   0.83240   0.00000  Uiso   1.00
H173   H     0.55691   0.01497   0.78237   0.00000  Uiso   1.00
H174   H     0.07113   0.96617   0.97518   0.00000  Uiso   1.00
H175   H     0.73188   0.81437   0.76186   0.00000  Uiso   1.00
O176   O     0.52605   0.04749   0.63704   0.00000  Uiso   1.00
O177   O     0.20069   0.98346   0.88999   0.00000  Uiso   1.00
O178   O     0.75561   0.78431   0.61011   0.00000  Uiso   1.00
N179   N     0.63459   0.01968   0.59010   0.00000  Uiso   1.00
N180   N     0.11535   0.97405   0.77036   0.00000  Uiso   1.00
N181   N     0.79820   0.83214   0.57093   0.00000  Uiso   1.00
N182   N     0.59069   0.01259   0.72724   0.00000  Uiso   1.00
N183   N     0.07145   0.96697   0.90751   0.00000  Uiso   1.00
N184   N     0.75431   0.82505   0.70807   0.00000  Uiso   1.00
C185   C     0.64680   0.55742   0.63171   0.00000  Uiso   1.00
C186   C     0.71778   0.53791   0.65375   0.00000  Uiso   1.00
C187   C     0.75301   0.51755   0.59589   0.00000  Uiso   1.00
C188   C     0.81734   0.50186   0.62878   0.00000  Uiso   1.00
C189   C     0.92327   0.47086   0.64969   0.00000  Uiso   1.00
C190   C     0.58529   0.55048   0.70344   0.00000  Uiso   1.00
C191   C     0.50910   0.54070   0.68735   0.00000  Uiso   1.00
C192   C     0.46190   0.53559   0.76206   0.00000  Uiso   1.00
C193   C     0.36210   0.52412   0.86011   0.00000  Uiso   1.00
C194   C     0.67270   0.58959   0.64846   0.00000  Uiso   1.00
C195   C     0.67000   0.61269   0.58617   0.00000  Uiso   1.00
C196   C     0.69638   0.64051   0.61461   0.00000  Uiso   1.00
C197   C     0.73231   0.68977   0.62730   0.00000  Uiso   1.00
C198   C     0.69842   0.56575   0.79299   0.00000  Uiso   1.00
C199   C     0.74582   0.54243   0.74135   0.00000  Uiso   1.00
C200   C     0.81012   0.52677   0.77433   0.00000  Uiso   1.00
C201   C     0.84544   0.50639   0.71654   0.00000  Uiso   1.00
C202   C     0.61332   0.55500   0.79103   0.00000  Uiso   1.00
C203   C     0.56622   0.54991   0.86579   0.00000  Uiso   1.00
C204   C     0.48999   0.54012   0.84982   0.00000  Uiso   1.00
C205   C     0.70074   0.59411   0.73607   0.00000  Uiso   1.00
C206   C     0.72712   0.62190   0.76461   0.00000  Uiso   1.00
C207   C     0.72446   0.64505   0.70237   0.00000  Uiso   1.00
H208   H     0.62497   0.55390   0.56351   0.00000  Uiso   1.00
H209   H     0.73129   0.51406   0.52811   0.00000  Uiso   1.00
H210   H     0.48742   0.53720   0.61955   0.00000  Uiso   1.00
H211   H     0.64830   0.60918   0.51838   0.00000  Uiso   1.00
H212   H     0.86151   0.47187   0.52750   0.00000  Uiso   1.00
H213   H     0.34730   0.52068   0.72031   0.00000  Uiso   1.00
H214   H     0.68654   0.67247   0.50698   0.00000  Uiso   1.00
H215   H     0.72025   0.56927   0.86119   0.00000  Uiso   1.00
H216   H     0.83180   0.53027   0.84213   0.00000  Uiso   1.00
H217   H     0.58793   0.55341   0.93357   0.00000  Uiso   1.00
H218   H     0.74881   0.62540   0.83240   0.00000  Uiso   1.00
H219   H     0.94309   0.48503   0.78237   0.00000  Uiso   1.00
H220   H     0.42887   0.53383   0.97518   0.00000  Uiso   1.00
H221   H     0.76812   0.68563   0.76186   0.00000  Uiso   1.00
O222   O     0.97395   0.45251   0.63704   0.00000  Uiso   1.00
O223   O     0.29931   0.51654   0.88999   0.00000  Uiso   1.00
O224   O     0.74439   0.71569   0.61011   0.00000  Uiso   1.00
N225   N     0.86541   0.48032   0.59010   0.00000  Uiso   1.00
N226   N     0.38465   0.52595   0.77036   0.00000  Uiso   1.00
N227   N     0.70180   0.66786   0.57093   0.00000  Uiso   1.00
N228   N     0.90931   0.48741   0.72724   0.00000  Uiso   1.00
N229   N     0.42855   0.53303   0.90751   0.00000  Uiso   1.00
N230   N     0.74569   0.67495   0.70807   0.00000  Uiso   1.00
C231   C     0.64680   0.05742   0.13171   0.00000  Uiso   1.00
C232   C     0.71778   0.03791   0.15375   0.00000  Uiso   1.00
C233   C     0.75301   0.01755   0.09589   0.00000  Uiso   1.00
C234   C     0.81734   0.00186   0.12878   0.00000  Uiso   1.00
C235   C     0.92327   0.97086   0.14969   0.00000  Uiso   1.00
C236   C     0.58529   0.05048   0.20344   0.00000  Uiso   1.00
C237   C     0.50910   0.04070   0.18735   0.00000  Uiso   1.00
C238   C     0.46190   0.03559   0.26206   0.00000  Uiso   1.00
C239   C     0.36210   0.02412   0.36011   0.00000  Uiso   1.00
C240   C     0.67270   0.08959   0.14846   0.00000  Uiso   1.00
C241   C     0.67000   0.11269   0.08617   0.00000  Uiso   1.00
C242   C     0.69638   0.14051   0.11461   0.00000  Uiso   1.00
C243   C     0.73231   0.18977   0.12730   0.00000  Uiso   1.00
C244   C     0.69842   0.06575   0.29299   0.00000  Uiso   1.00
C245   C     0.74582   0.04243   0.24135   0.00000  Uiso   1.00
C246   C     0.81012   0.02677   0.27433   0.00000  Uiso   1.00
C247   C     0.84544   0.00639   0.21654   0.00000  Uiso   1.00
C248   C     0.61332   0.05500   0.29103   0.00000  Uiso   1.00
C249   C     0.56622   0.04991   0.36579   0.00000  Uiso   1.00
C250   C     0.48999   0.04012   0.34982   0.00000  Uiso   1.00
C251   C     0.70074   0.09411   0.23607   0.00000  Uiso   1.00
C252   C     0.72712   0.12190   0.26461   0.00000  Uiso   1.00
C253   C     0.72446   0.14505   0.20237   0.00000  Uiso   1.00
H254   H     0.62497   0.05390   0.06351   0.00000  Uiso   1.00
H255   H     0.73129   0.01406   0.02811   0.00000  Uiso   1.00
H256   H     0.48742   0.03720   0.11955   0.00000  Uiso   1.00
H257   H     0.64830   0.10918   0.01838   0.00000  Uiso   1.00
H258   H     0.86151   0.97187   0.02750   0.00000  Uiso   1.00
H259   H     0.34730   0.02068   0.22031   0.00000  Uiso   1.00
H260   H     0.68654   0.17247   0.00698   0.00000  Uiso   1.00
H261   H     0.72025   0.06927   0.36119   0.00000  Uiso   1.00
H262   H     0.83180   0.03027   0.34213   0.00000  Uiso   1.00
H263   H     0.58793   0.05341   0.43357   0.00000  Uiso   1.00
H264   H     0.74881   0.12540   0.33240   0.00000  Uiso   1.00
H265   H     0.94309   0.98503   0.28237   0.00000  Uiso   1.00
H266   H     0.42887   0.03383   0.47518   0.00000  Uiso   1.00
H267   H     0.76812   0.18563   0.26186   0.00000  Uiso   1.00
O268   O     0.97395   0.95251   0.13704   0.00000  Uiso   1.00
O269   O     0.29931   0.01654   0.38999   0.00000  Uiso   1.00
O270   O     0.74439   0.21569   0.11011   0.00000  Uiso   1.00
N271   N     0.86541   0.98032   0.09010   0.00000  Uiso   1.00
N272   N     0.38465   0.02595   0.27036   0.00000  Uiso   1.00
N273   N     0.70180   0.16786   0.07093   0.00000  Uiso   1.00
N274   N     0.90931   0.98741   0.22724   0.00000  Uiso   1.00
N275   N     0.42855   0.03303   0.40751   0.00000  Uiso   1.00
N276   N     0.74569   0.17495   0.20807   0.00000  Uiso   1.00
C277   C     0.14680   0.55742   0.13171   0.00000  Uiso   1.00
C278   C     0.21778   0.53791   0.15375   0.00000  Uiso   1.00
C279   C     0.25301   0.51755   0.09589   0.00000  Uiso   1.00
C280   C     0.31734   0.50186   0.12878   0.00000  Uiso   1.00
C281   C     0.42327   0.47086   0.14969   0.00000  Uiso   1.00
C282   C     0.08529   0.55048   0.20344   0.00000  Uiso   1.00
C283   C     0.00910   0.54070   0.18735   0.00000  Uiso   1.00
C284   C     0.96190   0.53559   0.26206   0.00000  Uiso   1.00
C285   C     0.86210   0.52412   0.36011   0.00000  Uiso   1.00
C286   C     0.17270   0.58959   0.14846   0.00000  Uiso   1.00
C287   C     0.17000   0.61269   0.08617   0.00000  Uiso   1.00
C288   C     0.19638   0.64051   0.11461   0.00000  Uiso   1.00
C289   C     0.23231   0.68977   0.12730   0.00000  Uiso   1.00
C290   C     0.19842   0.56575   0.29299   0.00000  Uiso   1.00
C291   C     0.24582   0.54243   0.24135   0.00000  Uiso   1.00
C292   C     0.31012   0.52677   0.27433   0.00000  Uiso   1.00
C293   C     0.34544   0.50639   0.21654   0.00000  Uiso   1.00
C294   C     0.11332   0.55500   0.29103   0.00000  Uiso   1.00
C295   C     0.06622   0.54991   0.36579   0.00000  Uiso   1.00
C296   C     0.98999   0.54012   0.34982   0.00000  Uiso   1.00
C297   C     0.20074   0.59411   0.23607   0.00000  Uiso   1.00
C298   C     0.22712   0.62190   0.26461   0.00000  Uiso   1.00
C299   C     0.22446   0.64505   0.20237   0.00000  Uiso   1.00
H300   H     0.12497   0.55390   0.06351   0.00000  Uiso   1.00
H301   H     0.23129   0.51406   0.02811   0.00000  Uiso   1.00
H302   H     0.98742   0.53720   0.11955   0.00000  Uiso   1.00
H303   H     0.14830   0.60918   0.01838   0.00000  Uiso   1.00
H304   H     0.36151   0.47187   0.02750   0.00000  Uiso   1.00
H305   H     0.84730   0.52068   0.22031   0.00000  Uiso   1.00
H306   H     0.18654   0.67247   0.00698   0.00000  Uiso   1.00
H307   H     0.22025   0.56927   0.36119   0.00000  Uiso   1.00
H308   H     0.33180   0.53027   0.34213   0.00000  Uiso   1.00
H309   H     0.08793   0.55341   0.43357   0.00000  Uiso   1.00
H310   H     0.24881   0.62540   0.33240   0.00000  Uiso   1.00
H311   H     0.44309   0.48503   0.28237   0.00000  Uiso   1.00
H312   H     0.92887   0.53383   0.47518   0.00000  Uiso   1.00
H313   H     0.26812   0.68563   0.26186   0.00000  Uiso   1.00
O314   O     0.47395   0.45251   0.13704   0.00000  Uiso   1.00
O315   O     0.79931   0.51654   0.38999   0.00000  Uiso   1.00
O316   O     0.24439   0.71569   0.11011   0.00000  Uiso   1.00
N317   N     0.36541   0.48032   0.09010   0.00000  Uiso   1.00
N318   N     0.88465   0.52595   0.27036   0.00000  Uiso   1.00
N319   N     0.20180   0.66786   0.07093   0.00000  Uiso   1.00
N320   N     0.40931   0.48741   0.22724   0.00000  Uiso   1.00
N321   N     0.92855   0.53303   0.40751   0.00000  Uiso   1.00
N322   N     0.24569   0.67495   0.20807   0.00000  Uiso   1.00
C323   C     0.14680   0.05742   0.63171   0.00000  Uiso   1.00
C324   C     0.21778   0.03791   0.65375   0.00000  Uiso   1.00
C325   C     0.25301   0.01755   0.59589   0.00000  Uiso   1.00
C326   C     0.31734   0.00186   0.62878   0.00000  Uiso   1.00
C327   C     0.42327   0.97086   0.64969   0.00000  Uiso   1.00
C328   C     0.08529   0.05048   0.70344   0.00000  Uiso   1.00
C329   C     0.00910   0.04070   0.68735   0.00000  Uiso   1.00
C330   C     0.96190   0.03559   0.76206   0.00000  Uiso   1.00
C331   C     0.86210   0.02412   0.86011   0.00000  Uiso   1.00
C332   C     0.17270   0.08959   0.64846   0.00000  Uiso   1.00
C333   C     0.17000   0.11269   0.58617   0.00000  Uiso   1.00
C334   C     0.19638   0.14051   0.61461   0.00000  Uiso   1.00
C335   C     0.23231   0.18977   0.62730   0.00000  Uiso   1.00
C336   C     0.19842   0.06575   0.79299   0.00000  Uiso   1.00
C337   C     0.24582   0.04243   0.74135   0.00000  Uiso   1.00
C338   C     0.31012   0.02677   0.77433   0.00000  Uiso   1.00
C339   C     0.34544   0.00639   0.71654   0.00000  Uiso   1.00
C340   C     0.11332   0.05500   0.79103   0.00000  Uiso   1.00
C341   C     0.06622   0.04991   0.86579   0.00000  Uiso   1.00
C342   C     0.98999   0.04012   0.84982   0.00000  Uiso   1.00
C343   C     0.20074   0.09411   0.73607   0.00000  Uiso   1.00
C344   C     0.22712   0.12190   0.76461   0.00000  Uiso   1.00
C345   C     0.22446   0.14505   0.70237   0.00000  Uiso   1.00
H346   H     0.12497   0.05390   0.56351   0.00000  Uiso   1.00
H347   H     0.23129   0.01406   0.52811   0.00000  Uiso   1.00
H348   H     0.98742   0.03720   0.61955   0.00000  Uiso   1.00
H349   H     0.14830   0.10918   0.51838   0.00000  Uiso   1.00
H350   H     0.36151   0.97187   0.52750   0.00000  Uiso   1.00
H351   H     0.84730   0.02068   0.72031   0.00000  Uiso   1.00
H352   H     0.18654   0.17247   0.50698   0.00000  Uiso   1.00
H353   H     0.22025   0.06927   0.86119   0.00000  Uiso   1.00
H354   H     0.33180   0.03027   0.84213   0.00000  Uiso   1.00
H355   H     0.08793   0.05341   0.93357   0.00000  Uiso   1.00
H356   H     0.24881   0.12540   0.83240   0.00000  Uiso   1.00
H357   H     0.44309   0.98503   0.78237   0.00000  Uiso   1.00
H358   H     0.92887   0.03383   0.97518   0.00000  Uiso   1.00
H359   H     0.26812   0.18563   0.76186   0.00000  Uiso   1.00
O360   O     0.47395   0.95251   0.63704   0.00000  Uiso   1.00
O361   O     0.79931   0.01654   0.88999   0.00000  Uiso   1.00
O362   O     0.24439   0.21569   0.61011   0.00000  Uiso   1.00
N363   N     0.36541   0.98032   0.59010   0.00000  Uiso   1.00
N364   N     0.88465   0.02595   0.77036   0.00000  Uiso   1.00
N365   N     0.20180   0.16786   0.57093   0.00000  Uiso   1.00
N366   N     0.40931   0.98741   0.72724   0.00000  Uiso   1.00
N367   N     0.92855   0.03303   0.90751   0.00000  Uiso   1.00
N368   N     0.24569   0.17495   0.70807   0.00000  Uiso   1.00
C369   C     0.60320   0.80742   0.88171   0.00000  Uiso   1.00
C370   C     0.53222   0.78791   0.90375   0.00000  Uiso   1.00
C371   C     0.49699   0.76755   0.84589   0.00000  Uiso   1.00
C372   C     0.43266   0.75186   0.87878   0.00000  Uiso   1.00
C373   C     0.32673   0.72086   0.89969   0.00000  Uiso   1.00
C374   C     0.66471   0.80048   0.95344   0.00000  Uiso   1.00
C375   C     0.74090   0.79070   0.93735   0.00000  Uiso   1.00
C376   C     0.78810   0.78559   0.01206   0.00000  Uiso   1.00
C377   C     0.88790   0.77412   0.11011   0.00000  Uiso   1.00
C378   C     0.57730   0.83959   0.89846   0.00000  Uiso   1.00
C379   C     0.58000   0.86269   0.83617   0.00000  Uiso   1.00
C380   C     0.55362   0.89051   0.86461   0.00000  Uiso   1.00
C381   C     0.51769   0.93977   0.87730   0.00000  Uiso   1.00
C382   C     0.55158   0.81575   0.04299   0.00000  Uiso   1.00
C383   C     0.50418   0.79243   0.99135   0.00000  Uiso   1.00
C384   C     0.43988   0.77677   0.02433   0.00000  Uiso   1.00
C385   C     0.40456   0.75639   0.96654   0.00000  Uiso   1.00
C386   C     0.63668   0.80500   0.04103   0.00000  Uiso   1.00
C387   C     0.68378   0.79991   0.11579   0.00000  Uiso   1.00
C388   C     0.76001   0.79012   0.09982   0.00000  Uiso   1.00
C389   C     0.54926   0.84411   0.98607   0.00000  Uiso   1.00
C390   C     0.52288   0.87190   0.01461   0.00000  Uiso   1.00
C391   C     0.52554   0.89505   0.95237   0.00000  Uiso   1.00
H392   H     0.62503   0.80390   0.81351   0.00000  Uiso   1.00
H393   H     0.51871   0.76406   0.77811   0.00000  Uiso   1.00
H394   H     0.76258   0.78720   0.86955   0.00000  Uiso   1.00
H395   H     0.60170   0.85918   0.76838   0.00000  Uiso   1.00
H396   H     0.38849   0.72187   0.77750   0.00000  Uiso   1.00
H397   H     0.90270   0.77068   0.97031   0.00000  Uiso   1.00
H398   H     0.56346   0.92247   0.75698   0.00000  Uiso   1.00
H399   H     0.52975   0.81927   0.11119   0.00000  Uiso   1.00
H400   H     0.41820   0.78027   0.09213   0.00000  Uiso   1.00
H401   H     0.66207   0.80341   0.18357   0.00000  Uiso   1.00
H402   H     0.50119   0.87540   0.08240   0.00000  Uiso   1.00
H403   H     0.30691   0.73503   0.03237   0.00000  Uiso   1.00
H404   H     0.82113   0.78383   0.22518   0.00000  Uiso   1.00
H405   H     0.48188   0.93563   0.01186   0.00000  Uiso   1.00
O406   O     0.27605   0.70251   0.88704   0.00000  Uiso   1.00
O407   O     0.95069   0.76654   0.13999   0.00000  Uiso   1.00
O408   O     0.50561   0.96569   0.86011   0.00000  Uiso   1.00
N409   N     0.38459   0.73032   0.84010   0.00000  Uiso   1.00
N410   N     0.86535   0.77595   0.02036   0.00000  Uiso   1.00
N411   N     0.54820   0.91786   0.82093   0.00000  Uiso   1.00
N412   N     0.34069   0.73741   0.97724   0.00000  Uiso   1.00
N413   N     0.82145   0.78303   0.15751   0.00000  Uiso   1.00
N414   N     0.50431   0.92495   0.95807   0.00000  Uiso   1.00
C415   C     0.60320   0.30742   0.38171   0.00000  Uiso   1.00
C416   C     0.53222   0.28791   0.40375   0.00000  Uiso   1.00
C417   C     0.49699   0.26755   0.34589   0.00000  Uiso   1.00
C418   C     0.43266   0.25186   0.37878   0.00000  Uiso   1.00
C419   C     0.32673   0.22086   0.39969   0.00000  Uiso   1.00
C420   C     0.66471   0.30048   0.45344   0.00000  Uiso   1.00
C421   C     0.74090   0.29070   0.43735   0.00000  Uiso   1.00
C422   C     0.78810   0.28559   0.51206   0.00000  Uiso   1.00
C423   C     0.88790   0.27412   0.61011   0.00000  Uiso   1.00
C424   C     0.57730   0.33959   0.39846   0.00000  Uiso   1.00
C425   C     0.58000   0.36269   0.33617   0.00000  Uiso   1.00
C426   C     0.55362   0.39051   0.36461   0.00000  Uiso   1.00
C427   C     0.51769   0.43977   0.37730   0.00000  Uiso   1.00
C428   C     0.55158   0.31575   0.54299   0.00000  Uiso   1.00
C429   C     0.50418   0.29243   0.49135   0.00000  Uiso   1.00
C430   C     0.43988   0.27677   0.52433   0.00000  Uiso   1.00
C431   C     0.40456   0.25639   0.46654   0.00000  Uiso   1.00
C432   C     0.63668   0.30500   0.54103   0.00000  Uiso   1.00
C433   C     0.68378   0.29991   0.61579   0.00000  Uiso   1.00
C434   C     0.76001   0.29012   0.59982   0.00000  Uiso   1.00
C435   C     0.54926   0.34411   0.48607   0.00000  Uiso   1.00
C436   C     0.52288   0.37190   0.51461   0.00000  Uiso   1.00
C437   C     0.52554   0.39505   0.45237   0.00000  Uiso   1.00
H438   H     0.62503   0.30390   0.31351   0.00000  Uiso   1.00
H439   H     0.51871   0.26406   0.27811   0.00000  Uiso   1.00
H440   H     0.76258   0.28720   0.36955   0.00000  Uiso   1.00
H441   H     0.60170   0.35918   0.26838   0.00000  Uiso   1.00
H442   H     0.38849   0.22187   0.27750   0.00000  Uiso   1.00
H443   H     0.90270   0.27068   0.47031   0.00000  Uiso   1.00
H444   H     0.56346   0.42247   0.25698   0.00000  Uiso   1.00
H445   H     0.52975   0.31927   0.61119   0.00000  Uiso   1.00
H446   H     0.41820   0.28027   0.59213   0.00000  Uiso   1.00
H447   H     0.66207   0.30341   0.68357   0.00000  Uiso   1.00
H448   H     0.50119   0.37540   0.58240   0.00000  Uiso   1.00
H449   H     0.30691   0.23503   0.53237   0.00000  Uiso   1.00
H450   H     0.82113   0.28383   0.72518   0.00000  Uiso   1.00
H451   H     0.48188   0.43563   0.51186   0.00000  Uiso   1.00
O452   O     0.27605   0.20251   0.38704   0.00000  Uiso   1.00
O453   O     0.95069   0.26654   0.63999   0.00000  Uiso   1.00
O454   O     0.50561   0.46569   0.36011   0.00000  Uiso   1.00
N455   N     0.38459   0.23032   0.34010   0.00000  Uiso   1.00
N456   N     0.86535   0.27595   0.52036   0.00000  Uiso   1.00
N457   N     0.54820   0.41786   0.32093   0.00000  Uiso   1.00
N458   N     0.34069   0.23741   0.47724   0.00000  Uiso   1.00
N459   N     0.82145   0.28303   0.65751   0.00000  Uiso   1.00
N460   N     0.50431   0.42495   0.45807   0.00000  Uiso   1.00
C461   C     0.10320   0.80742   0.38171   0.00000  Uiso   1.00
C462   C     0.03222   0.78791   0.40375   0.00000  Uiso   1.00
C463   C     0.99699   0.76755   0.34589   0.00000  Uiso   1.00
C464   C     0.93266   0.75186   0.37878   0.00000  Uiso   1.00
C465   C     0.82673   0.72086   0.39969   0.00000  Uiso   1.00
C466   C     0.16471   0.80048   0.45344   0.00000  Uiso   1.00
C467   C     0.24090   0.79070   0.43735   0.00000  Uiso   1.00
C468   C     0.28810   0.78559   0.51206   0.00000  Uiso   1.00
C469   C     0.38790   0.77412   0.61011   0.00000  Uiso   1.00
C470   C     0.07730   0.83959   0.39846   0.00000  Uiso   1.00
C471   C     0.08000   0.86269   0.33617   0.00000  Uiso   1.00
C472   C     0.05362   0.89051   0.36461   0.00000  Uiso   1.00
C473   C     0.01769   0.93977   0.37730   0.00000  Uiso   1.00
C474   C     0.05158   0.81575   0.54299   0.00000  Uiso   1.00
C475   C     0.00418   0.79243   0.49135   0.00000  Uiso   1.00
C476   C     0.93988   0.77677   0.52433   0.00000  Uiso   1.00
C477   C     0.90456   0.75639   0.46654   0.00000  Uiso   1.00
C478   C     0.13668   0.80500   0.54103   0.00000  Uiso   1.00
C479   C     0.18378   0.79991   0.61579   0.00000  Uiso   1.00
C480   C     0.26001   0.79012   0.59982   0.00000  Uiso   1.00
C481   C     0.04926   0.84411   0.48607   0.00000  Uiso   1.00
C482   C     0.02288   0.87190   0.51461   0.00000  Uiso   1.00
C483   C     0.02554   0.89505   0.45237   0.00000  Uiso   1.00
H484   H     0.12503   0.80390   0.31351   0.00000  Uiso   1.00
H485   H     0.01871   0.76406   0.27811   0.00000  Uiso   1.00
H486   H     0.26258   0.78720   0.36955   0.00000  Uiso   1.00
H487   H     0.10170   0.85918   0.26838   0.00000  Uiso   1.00
H488   H     0.88849   0.72187   0.27750   0.00000  Uiso   1.00
H489   H     0.40270   0.77068   0.47031   0.00000  Uiso   1.00
H490   H     0.06346   0.92247   0.25698   0.00000  Uiso   1.00
H491   H     0.02975   0.81927   0.61119   0.00000  Uiso   1.00
H492   H     0.91820   0.78027   0.59213   0.00000  Uiso   1.00
H493   H     0.16207   0.80341   0.68357   0.00000  Uiso   1.00
H494   H     0.00119   0.87540   0.58240   0.00000  Uiso   1.00
H495   H     0.80691   0.73503   0.53237   0.00000  Uiso   1.00
H496   H     0.32113   0.78383   0.72518   0.00000  Uiso   1.00
H497   H     0.98188   0.93563   0.51186   0.00000  Uiso   1.00
O498   O     0.77605   0.70251   0.38704   0.00000  Uiso   1.00
O499   O     0.45069   0.76654   0.63999   0.00000  Uiso   1.00
O500   O     0.00561   0.96569   0.36011   0.00000  Uiso   1.00
N501   N     0.88459   0.73032   0.34010   0.00000  Uiso   1.00
N502   N     0.36535   0.77595   0.52036   0.00000  Uiso   1.00
N503   N     0.04820   0.91786   0.32093   0.00000  Uiso   1.00
N504   N     0.84069   0.73741   0.47724   0.00000  Uiso   1.00
N505   N     0.32145   0.78303   0.65751   0.00000  Uiso   1.00
N506   N     0.00431   0.92495   0.45807   0.00000  Uiso   1.00
C507   C     0.10320   0.30742   0.88171   0.00000  Uiso   1.00
C508   C     0.03222   0.28791   0.90375   0.00000  Uiso   1.00
C509   C     0.99699   0.26755   0.84589   0.00000  Uiso   1.00
C510   C     0.93266   0.25186   0.87878   0.00000  Uiso   1.00
C511   C     0.82673   0.22086   0.89969   0.00000  Uiso   1.00
C512   C     0.16471   0.30048   0.95344   0.00000  Uiso   1.00
C513   C     0.24090   0.29070   0.93735   0.00000  Uiso   1.00
C514   C     0.28810   0.28559   0.01206   0.00000  Uiso   1.00
C515   C     0.38790   0.27412   0.11011   0.00000  Uiso   1.00
C516   C     0.07730   0.33959   0.89846   0.00000  Uiso   1.00
C517   C     0.08000   0.36269   0.83617   0.00000  Uiso   1.00
C518   C     0.05362   0.39051   0.86461   0.00000  Uiso   1.00
C519   C     0.01769   0.43977   0.87730   0.00000  Uiso   1.00
C520   C     0.05158   0.31575   0.04299   0.00000  Uiso   1.00
C521   C     0.00418   0.29243   0.99135   0.00000  Uiso   1.00
C522   C     0.93988   0.27677   0.02433   0.00000  Uiso   1.00
C523   C     0.90456   0.25639   0.96654   0.00000  Uiso   1.00
C524   C     0.13668   0.30500   0.04103   0.00000  Uiso   1.00
C525   C     0.18378   0.29991   0.11579   0.00000  Uiso   1.00
C526   C     0.26001   0.29012   0.09982   0.00000  Uiso   1.00
C527   C     0.04926   0.34411   0.98607   0.00000  Uiso   1.00
C528   C     0.02288   0.37190   0.01461   0.00000  Uiso   1.00
C529   C     0.02554   0.39505   0.95237   0.00000  Uiso   1.00
H530   H     0.12503   0.30390   0.81351   0.00000  Uiso   1.00
H531   H     0.01871   0.26406   0.77811   0.00000  Uiso   1.00
H532   H     0.26258   0.28720   0.86955   0.00000  Uiso   1.00
H533   H     0.10170   0.35918   0.76838   0.00000  Uiso   1.00
H534   H     0.88849   0.22187   0.77750   0.00000  Uiso   1.00
H535   H     0.40270   0.27068   0.97031   0.00000  Uiso   1.00
H536   H     0.06346   0.42247   0.75698   0.00000  Uiso   1.00
H537   H     0.02975   0.31927   0.11119   0.00000  Uiso   1.00
H538   H     0.91820   0.28027   0.09213   0.00000  Uiso   1.00
H539   H     0.16207   0.30341   0.18357   0.00000  Uiso   1.00
H540   H     0.00119   0.37540   0.08240   0.00000  Uiso   1.00
H541   H     0.80691   0.23503   0.03237   0.00000  Uiso   1.00
H542   H     0.32113   0.28383   0.22518   0.00000  Uiso   1.00
H543   H     0.98188   0.43563   0.01186   0.00000  Uiso   1.00
O544   O     0.77605   0.20251   0.88704   0.00000  Uiso   1.00
O545   O     0.45069   0.26654   0.13999   0.00000  Uiso   1.00
O546   O     0.00561   0.46569   0.86011   0.00000  Uiso   1.00
N547   N     0.88459   0.23032   0.84010   0.00000  Uiso   1.00
N548   N     0.36535   0.27595   0.02036   0.00000  Uiso   1.00
N549   N     0.04820   0.41786   0.82093   0.00000  Uiso   1.00
N550   N     0.84069   0.23741   0.97724   0.00000  Uiso   1.00
N551   N     0.32145   0.28303   0.15751   0.00000  Uiso   1.00
N552   N     0.00431   0.42495   0.95807   0.00000  Uiso   1.00
C553   C     0.89680   0.69258   0.88171   0.00000  Uiso   1.00
C554   C     0.96778   0.71209   0.90375   0.00000  Uiso   1.00
C555   C     0.00301   0.73245   0.84589   0.00000  Uiso   1.00
C556   C     0.06734   0.74814   0.87878   0.00000  Uiso   1.00
C557   C     0.17327   0.77914   0.89969   0.00000  Uiso   1.00
C558   C     0.83529   0.69952   0.95344   0.00000  Uiso   1.00
C559   C     0.75910   0.70930   0.93735   0.00000  Uiso   1.00
C560   C     0.71190   0.71441   0.01206   0.00000  Uiso   1.00
C561   C     0.61210   0.72588   0.11011   0.00000  Uiso   1.00
C562   C     0.92270   0.66041   0.89846   0.00000  Uiso   1.00
C563   C     0.92000   0.63731   0.83617   0.00000  Uiso   1.00
C564   C     0.94638   0.60949   0.86461   0.00000  Uiso   1.00
C565   C     0.98231   0.56023   0.87730   0.00000  Uiso   1.00
C566   C     0.94842   0.68425   0.04299   0.00000  Uiso   1.00
C567   C     0.99582   0.70757   0.99135   0.00000  Uiso   1.00
C568   C     0.06012   0.72323   0.02433   0.00000  Uiso   1.00
C569   C     0.09544   0.74361   0.96654   0.00000  Uiso   1.00
C570   C     0.86332   0.69500   0.04103   0.00000  Uiso   1.00
C571   C     0.81622   0.70009   0.11579   0.00000  Uiso   1.00
C572   C     0.73999   0.70988   0.09982   0.00000  Uiso   1.00
C573   C     0.95074   0.65589   0.98607   0.00000  Uiso   1.00
C574   C     0.97712   0.62810   0.01461   0.00000  Uiso   1.00
C575   C     0.97446   0.60495   0.95237   0.00000  Uiso   1.00
H576   H     0.87497   0.69610   0.81351   0.00000  Uiso   1.00
H577   H     0.98129   0.73594   0.77811   0.00000  Uiso   1.00
H578   H     0.73742   0.71280   0.86955   0.00000  Uiso   1.00
H579   H     0.89830   0.64082   0.76838   0.00000  Uiso   1.00
H580   H     0.11151   0.77813   0.77750   0.00000  Uiso   1.00
H581   H     0.59730   0.72932   0.97031   0.00000  Uiso   1.00
H582   H     0.93654   0.57753   0.75698   0.00000  Uiso   1.00
H583   H     0.97025   0.68073   0.11119   0.00000  Uiso   1.00
H584   H     0.08180   0.71973   0.09213   0.00000  Uiso   1.00
H585   H     0.83793   0.69659   0.18357   0.00000  Uiso   1.00
H586   H     0.99881   0.62460   0.08240   0.00000  Uiso   1.00
H587   H     0.19309   0.76497   0.03237   0.00000  Uiso   1.00
H588   H     0.67887   0.71617   0.22518   0.00000  Uiso   1.00
H589   H     0.01812   0.56437   0.01186   0.00000  Uiso   1.00
O590   O     0.22395   0.79749   0.88704   0.00000  Uiso   1.00
O591   O     0.54931   0.73346   0.13999   0.00000  Uiso   1.00
O592   O     0.99439   0.53431   0.86011   0.00000  Uiso   1.00
N593   N     0.11541   0.76968   0.84010   0.00000  Uiso   1.00
N594   N     0.63465   0.72405   0.02036   0.00000  Uiso   1.00
N595   N     0.95180   0.58214   0.82093   0.00000  Uiso   1.00
N596   N     0.15931   0.76259   0.97724   0.00000  Uiso   1.00
N597   N     0.67855   0.71697   0.15751   0.00000  Uiso   1.00
N598   N     0.99569   0.57505   0.95807   0.00000  Uiso   1.00
C599   C     0.89680   0.19258   0.38171   0.00000  Uiso   1.00
C600   C     0.96778   0.21209   0.40375   0.00000  Uiso   1.00
C601   C     0.00301   0.23245   0.34589   0.00000  Uiso   1.00
C602   C     0.06734   0.24814   0.37878   0.00000  Uiso   1.00
C603   C     0.17327   0.27914   0.39969   0.00000  Uiso   1.00
C604   C     0.83529   0.19952   0.45344   0.00000  Uiso   1.00
C605   C     0.75910   0.20930   0.43735   0.00000  Uiso   1.00
C606   C     0.71190   0.21441   0.51206   0.00000  Uiso   1.00
C607   C     0.61210   0.22588   0.61011   0.00000  Uiso   1.00
C608   C     0.92270   0.16041   0.39846   0.00000  Uiso   1.00
C609   C     0.92000   0.13731   0.33617   0.00000  Uiso   1.00
C610   C     0.94638   0.10949   0.36461   0.00000  Uiso   1.00
C611   C     0.98231   0.06023   0.37730   0.00000  Uiso   1.00
C612   C     0.94842   0.18425   0.54299   0.00000  Uiso   1.00
C613   C     0.99582   0.20757   0.49135   0.00000  Uiso   1.00
C614   C     0.06012   0.22323   0.52433   0.00000  Uiso   1.00
C615   C     0.09544   0.24361   0.46654   0.00000  Uiso   1.00
C616   C     0.86332   0.19500   0.54103   0.00000  Uiso   1.00
C617   C     0.81622   0.20009   0.61579   0.00000  Uiso   1.00
C618   C     0.73999   0.20988   0.59982   0.00000  Uiso   1.00
C619   C     0.95074   0.15589   0.48607   0.00000  Uiso   1.00
C620   C     0.97712   0.12810   0.51461   0.00000  Uiso   1.00
C621   C     0.97446   0.10495   0.45237   0.00000  Uiso   1.00
H622   H     0.87497   0.19610   0.31351   0.00000  Uiso   1.00
H623   H     0.98129   0.23594   0.27811   0.00000  Uiso   1.00
H624   H     0.73742   0.21280   0.36955   0.00000  Uiso   1.00
H625   H     0.89830   0.14082   0.26838   0.00000  Uiso   1.00
H626   H     0.11151   0.27813   0.27750   0.00000  Uiso   1.00
H627   H     0.59730   0.22932   0.47031   0.00000  Uiso   1.00
H628   H     0.93654   0.07753   0.25698   0.00000  Uiso   1.00
H629   H     0.97025   0.18073   0.61119   0.00000  Uiso   1.00
H630   H     0.08180   0.21973   0.59213   0.00000  Uiso   1.00
H631   H     0.83793   0.19659   0.68357   0.00000  Uiso   1.00
H632   H     0.99881   0.12460   0.58240   0.00000  Uiso   1.00
H633   H     0.19309   0.26497   0.53237   0.00000  Uiso   1.00
H634   H     0.67887   0.21617   0.72518   0.00000  Uiso   1.00
H635   H     0.01812   0.06437   0.51186   0.00000  Uiso   1.00
O636   O     0.22395   0.29749   0.38704   0.00000  Uiso   1.00
O637   O     0.54931   0.23346   0.63999   0.00000  Uiso   1.00
O638   O     0.99439   0.03431   0.36011   0.00000  Uiso   1.00
N639   N     0.11541   0.26968   0.34010   0.00000  Uiso   1.00
N640   N     0.63465   0.22405   0.52036   0.00000  Uiso   1.00
N641   N     0.95180   0.08214   0.32093   0.00000  Uiso   1.00
N642   N     0.15931   0.26259   0.47724   0.00000  Uiso   1.00
N643   N     0.67855   0.21697   0.65751   0.00000  Uiso   1.00
N644   N     0.99569   0.07505   0.45807   0.00000  Uiso   1.00
C645   C     0.39680   0.69258   0.38171   0.00000  Uiso   1.00
C646   C     0.46778   0.71209   0.40375   0.00000  Uiso   1.00
C647   C     0.50301   0.73245   0.34589   0.00000  Uiso   1.00
C648   C     0.56734   0.74814   0.37878   0.00000  Uiso   1.00
C649   C     0.67327   0.77914   0.39969   0.00000  Uiso   1.00
C650   C     0.33529   0.69952   0.45344   0.00000  Uiso   1.00
C651   C     0.25910   0.70930   0.43735   0.00000  Uiso   1.00
C652   C     0.21190   0.71441   0.51206   0.00000  Uiso   1.00
C653   C     0.11210   0.72588   0.61011   0.00000  Uiso   1.00
C654   C     0.42270   0.66041   0.39846   0.00000  Uiso   1.00
C655   C     0.42000   0.63731   0.33617   0.00000  Uiso   1.00
C656   C     0.44638   0.60949   0.36461   0.00000  Uiso   1.00
C657   C     0.48231   0.56023   0.37730   0.00000  Uiso   1.00
C658   C     0.44842   0.68425   0.54299   0.00000  Uiso   1.00
C659   C     0.49582   0.70757   0.49135   0.00000  Uiso   1.00
C660   C     0.56012   0.72323   0.52433   0.00000  Uiso   1.00
C661   C     0.59544   0.74361   0.46654   0.00000  Uiso   1.00
C662   C     0.36332   0.69500   0.54103   0.00000  Uiso   1.00
C663   C     0.31622   0.70009   0.61579   0.00000  Uiso   1.00
C664   C     0.23999   0.70988   0.59982   0.00000  Uiso   1.00
C665   C     0.45074   0.65589   0.48607   0.00000  Uiso   1.00
C666   C     0.47712   0.62810   0.51461   0.00000  Uiso   1.00
C667   C     0.47446   0.60495   0.45237   0.00000  Uiso   1.00
H668   H     0.37497   0.69610   0.31351   0.00000  Uiso   1.00
H669   H     0.48129   0.73594   0.27811   0.00000  Uiso   1.00
H670   H     0.23742   0.71280   0.36955   0.00000  Uiso   1.00
H671   H     0.39830   0.64082   0.26838   0.00000  Uiso   1.00
H672   H     0.61151   0.77813   0.27750   0.00000  Uiso   1.00
H673   H     0.09730   0.72932   0.47031   0.00000  Uiso   1.00
H674   H     0.43654   0.57753   0.25698   0.00000  Uiso   1.00
H675   H     0.47025   0.68073   0.61119   0.00000  Uiso   1.00
H676   H     0.58180   0.71973   0.59213   0.00000  Uiso   1.00
H677   H     0.33793   0.69659   0.68357   0.00000  Uiso   1.00
H678   H     0.49881   0.62460   0.58240   0.00000  Uiso   1.00
H679   H     0.69309   0.76497   0.53237   0.00000  Uiso   1.00
H680   H     0.17887   0.71617   0.72518   0.00000  Uiso   1.00
H681   H     0.51812   0.56437   0.51186   0.00000  Uiso   1.00
O682   O     0.72395   0.79749   0.38704   0.00000  Uiso   1.00
O683   O     0.04931   0.73346   0.63999   0.00000  Uiso   1.00
O684   O     0.49439   0.53431   0.36011   0.00000  Uiso   1.00
N685   N     0.61541   0.76968   0.34010   0.00000  Uiso   1.00
N686   N     0.13465   0.72405   0.52036   0.00000  Uiso   1.00
N687   N     0.45180   0.58214   0.32093   0.00000  Uiso   1.00
N688   N     0.65931   0.76259   0.47724   0.00000  Uiso   1.00
N689   N     0.17855   0.71697   0.65751   0.00000  Uiso   1.00
N690   N     0.49569   0.57505   0.45807   0.00000  Uiso   1.00
C691   C     0.39680   0.19258   0.88171   0.00000  Uiso   1.00
C692   C     0.46778   0.21209   0.90375   0.00000  Uiso   1.00
C693   C     0.50301   0.23245   0.84589   0.00000  Uiso   1.00
C694   C     0.56734   0.24814   0.87878   0.00000  Uiso   1.00
C695   C     0.67327   0.27914   0.89969   0.00000  Uiso   1.00
C696   C     0.33529   0.19952   0.95344   0.00000  Uiso   1.00
C697   C     0.25910   0.20930   0.93735   0.00000  Uiso   1.00
C698   C     0.21190   0.21441   0.01206   0.00000  Uiso   1.00
C699   C     0.11210   0.22588   0.11011   0.00000  Uiso   1.00
C700   C     0.42270   0.16041   0.89846   0.00000  Uiso   1.00
C701   C     0.42000   0.13731   0.83617   0.00000  Uiso   1.00
C702   C     0.44638   0.10949   0.86461   0.00000  Uiso   1.00
C703   C     0.48231   0.06023   0.87730   0.00000  Uiso   1.00
C704   C     0.44842   0.18425   0.04299   0.00000  Uiso   1.00
C705   C     0.49582   0.20757   0.99135   0.00000  Uiso   1.00
C706   C     0.56012   0.22323   0.02433   0.00000  Uiso   1.00
C707   C     0.59544   0.24361   0.96654   0.00000  Uiso   1.00
C708   C     0.36332   0.19500   0.04103   0.00000  Uiso   1.00
C709   C     0.31622   0.20009   0.11579   0.00000  Uiso   1.00
C710   C     0.23999   0.20988   0.09982   0.00000  Uiso   1.00
C711   C     0.45074   0.15589   0.98607   0.00000  Uiso   1.00
C712   C     0.47712   0.12810   0.01461   0.00000  Uiso   1.00
C713   C     0.47446   0.10495   0.95237   0.00000  Uiso   1.00
H714   H     0.37497   0.19610   0.81351   0.00000  Uiso   1.00
H715   H     0.48129   0.23594   0.77811   0.00000  Uiso   1.00
H716   H     0.23742   0.21280   0.86955   0.00000  Uiso   1.00
H717   H     0.39830   0.14082   0.76838   0.00000  Uiso   1.00
H718   H     0.61151   0.27813   0.77750   0.00000  Uiso   1.00
H719   H     0.09730   0.22932   0.97031   0.00000  Uiso   1.00
H720   H     0.43654   0.07753   0.75698   0.00000  Uiso   1.00
H721   H     0.47025   0.18073   0.11119   0.00000  Uiso   1.00
H722   H     0.58180   0.21973   0.09213   0.00000  Uiso   1.00
H723   H     0.33793   0.19659   0.18357   0.00000  Uiso   1.00
H724   H     0.49881   0.12460   0.08240   0.00000  Uiso   1.00
H725   H     0.69309   0.26497   0.03237   0.00000  Uiso   1.00
H726   H     0.17887   0.21617   0.22518   0.00000  Uiso   1.00
H727   H     0.51812   0.06437   0.01186   0.00000  Uiso   1.00
O728   O     0.72395   0.29749   0.88704   0.00000  Uiso   1.00
O729   O     0.04931   0.23346   0.13999   0.00000  Uiso   1.00
O730   O     0.49439   0.03431   0.86011   0.00000  Uiso   1.00
N731   N     0.61541   0.26968   0.84010   0.00000  Uiso   1.00
N732   N     0.13465   0.22405   0.02036   0.00000  Uiso   1.00
N733   N     0.45180   0.08214   0.82093   0.00000  Uiso   1.00
N734   N     0.65931   0.26259   0.97724   0.00000  Uiso   1.00
N735   N     0.17855   0.21697   0.15751   0.00000  Uiso   1.00
N736   N     0.49569   0.07505   0.95807   0.00000  Uiso   1.00
