data_job_01766
_audit_creation_date              2018-12-19
_audit_creation_method            'Materials Studio'
_symmetry_space_group_name_H-M    'P1'
_symmetry_Int_Tables_number       1
_symmetry_cell_setting            triclinic
loop_
_symmetry_equiv_pos_as_xyz
  x,y,z
_cell_length_a                    25.8342
_cell_length_b                    25.8342
_cell_length_c                    12.4402
_cell_angle_alpha                 90.0000
_cell_angle_beta                  90.0000
_cell_angle_gamma                 90.0000
loop_
_atom_site_label
_atom_site_type_symbol
_atom_site_fract_x
_atom_site_fract_y
_atom_site_fract_z
_atom_site_U_iso_or_equiv
_atom_site_adp_type
_atom_site_occupancy
C1     C     0.60633   0.38454   0.40958   0.00000  Uiso   1.00
C2     C     0.63717   0.40340   0.50650   0.00000  Uiso   1.00
C3     C     0.61773   0.41078   0.60936   0.00000  Uiso   1.00
C4     C     0.65219   0.42825   0.68694   0.00000  Uiso   1.00
C5     C     0.69215   0.45608   0.84115   0.00000  Uiso   1.00
C6     C     0.61293   0.42583   0.32306   0.00000  Uiso   1.00
C7     C     0.57311   0.45208   0.27169   0.00000  Uiso   1.00
C8     C     0.58717   0.48844   0.19485   0.00000  Uiso   1.00
C9     C     0.58949   0.55107   0.06421   0.00000  Uiso   1.00
C10    C     0.63452   0.33665   0.36824   0.00000  Uiso   1.00
C11    C     0.61287   0.28792   0.35482   0.00000  Uiso   1.00
C12    C     0.64510   0.24919   0.31598   0.00000  Uiso   1.00
C13    C     0.68096   0.17336   0.25550   0.00000  Uiso   1.00
C14    C     0.70208   0.40243   0.36444   0.00000  Uiso   1.00
C15    C     0.68917   0.41311   0.48198   0.00000  Uiso   1.00
C16    C     0.72367   0.43057   0.55942   0.00000  Uiso   1.00
C17    C     0.70429   0.43799   0.66239   0.00000  Uiso   1.00
C18    C     0.66493   0.43555   0.29855   0.00000  Uiso   1.00
C19    C     0.67905   0.47187   0.22176   0.00000  Uiso   1.00
C20    C     0.63927   0.49817   0.17029   0.00000  Uiso   1.00
C21    C     0.68653   0.34637   0.34372   0.00000  Uiso   1.00
C22    C     0.71880   0.30771   0.30489   0.00000  Uiso   1.00
C23    C     0.69720   0.25893   0.29142   0.00000  Uiso   1.00
H24    H     0.56584   0.37698   0.42866   0.00000  Uiso   1.00
H25    H     0.57748   0.40326   0.62830   0.00000  Uiso   1.00
H26    H     0.53287   0.44455   0.29067   0.00000  Uiso   1.00
H27    H     0.57262   0.28041   0.37380   0.00000  Uiso   1.00
H28    H     0.61332   0.43671   0.83881   0.00000  Uiso   1.00
H29    H     0.51925   0.52375   0.12689   0.00000  Uiso   1.00
H30    H     0.60307   0.17764   0.30217   0.00000  Uiso   1.00
H31    H     0.74257   0.40999   0.34535   0.00000  Uiso   1.00
H32    H     0.76391   0.43809   0.54043   0.00000  Uiso   1.00
H33    H     0.71930   0.47938   0.20280   0.00000  Uiso   1.00
H34    H     0.75905   0.31524   0.28593   0.00000  Uiso   1.00
H35    H     0.76463   0.46498   0.76750   0.00000  Uiso   1.00
H36    H     0.67056   0.55202   0.05556   0.00000  Uiso   1.00
H37    H     0.75438   0.20591   0.23085   0.00000  Uiso   1.00
O38    O     0.69982   0.46875   0.93297   0.00000  Uiso   1.00
O39    O     0.57640   0.58294   0.99894   0.00000  Uiso   1.00
O40    O     0.68637   0.12885   0.22892   0.00000  Uiso   1.00
N41    N     0.64600   0.43950   0.79526   0.00000  Uiso   1.00
N42    N     0.55805   0.52088   0.12967   0.00000  Uiso   1.00
N43    N     0.63641   0.19730   0.29351   0.00000  Uiso   1.00
N44    N     0.72742   0.45471   0.75689   0.00000  Uiso   1.00
N45    N     0.63948   0.53610   0.09129   0.00000  Uiso   1.00
N46    N     0.71784   0.21251   0.25514   0.00000  Uiso   1.00
C47    C     0.10633   0.88454   0.90958   0.00000  Uiso   1.00
C48    C     0.13717   0.90340   0.00650   0.00000  Uiso   1.00
C49    C     0.11773   0.91078   0.10936   0.00000  Uiso   1.00
C50    C     0.15219   0.92825   0.18694   0.00000  Uiso   1.00
C51    C     0.19215   0.95608   0.34115   0.00000  Uiso   1.00
C52    C     0.11293   0.92583   0.82306   0.00000  Uiso   1.00
C53    C     0.07311   0.95208   0.77169   0.00000  Uiso   1.00
C54    C     0.08717   0.98844   0.69485   0.00000  Uiso   1.00
C55    C     0.08949   0.05107   0.56421   0.00000  Uiso   1.00
C56    C     0.13452   0.83665   0.86824   0.00000  Uiso   1.00
C57    C     0.11287   0.78792   0.85482   0.00000  Uiso   1.00
C58    C     0.14510   0.74919   0.81598   0.00000  Uiso   1.00
C59    C     0.18096   0.67336   0.75550   0.00000  Uiso   1.00
C60    C     0.20208   0.90243   0.86444   0.00000  Uiso   1.00
C61    C     0.18917   0.91311   0.98198   0.00000  Uiso   1.00
C62    C     0.22367   0.93057   0.05942   0.00000  Uiso   1.00
C63    C     0.20429   0.93799   0.16239   0.00000  Uiso   1.00
C64    C     0.16493   0.93555   0.79855   0.00000  Uiso   1.00
C65    C     0.17905   0.97187   0.72176   0.00000  Uiso   1.00
C66    C     0.13927   0.99817   0.67029   0.00000  Uiso   1.00
C67    C     0.18653   0.84637   0.84372   0.00000  Uiso   1.00
C68    C     0.21880   0.80771   0.80489   0.00000  Uiso   1.00
C69    C     0.19720   0.75893   0.79142   0.00000  Uiso   1.00
H70    H     0.06584   0.87698   0.92866   0.00000  Uiso   1.00
H71    H     0.07748   0.90326   0.12830   0.00000  Uiso   1.00
H72    H     0.03287   0.94455   0.79067   0.00000  Uiso   1.00
H73    H     0.07262   0.78041   0.87380   0.00000  Uiso   1.00
H74    H     0.11332   0.93671   0.33881   0.00000  Uiso   1.00
H75    H     0.01925   0.02375   0.62689   0.00000  Uiso   1.00
H76    H     0.10307   0.67764   0.80217   0.00000  Uiso   1.00
H77    H     0.24257   0.90999   0.84535   0.00000  Uiso   1.00
H78    H     0.26391   0.93809   0.04043   0.00000  Uiso   1.00
H79    H     0.21930   0.97938   0.70280   0.00000  Uiso   1.00
H80    H     0.25905   0.81524   0.78593   0.00000  Uiso   1.00
H81    H     0.26463   0.96498   0.26750   0.00000  Uiso   1.00
H82    H     0.17056   0.05202   0.55556   0.00000  Uiso   1.00
H83    H     0.25438   0.70591   0.73085   0.00000  Uiso   1.00
O84    O     0.19982   0.96875   0.43297   0.00000  Uiso   1.00
O85    O     0.07640   0.08294   0.49894   0.00000  Uiso   1.00
O86    O     0.18637   0.62885   0.72892   0.00000  Uiso   1.00
N87    N     0.14600   0.93950   0.29526   0.00000  Uiso   1.00
N88    N     0.05805   0.02088   0.62967   0.00000  Uiso   1.00
N89    N     0.13641   0.69730   0.79351   0.00000  Uiso   1.00
N90    N     0.22742   0.95471   0.25689   0.00000  Uiso   1.00
N91    N     0.13948   0.03610   0.59129   0.00000  Uiso   1.00
N92    N     0.21784   0.71251   0.75514   0.00000  Uiso   1.00
C93    C     0.89367   0.11546   0.90958   0.00000  Uiso   1.00
C94    C     0.86283   0.09660   0.00650   0.00000  Uiso   1.00
C95    C     0.88227   0.08922   0.10936   0.00000  Uiso   1.00
C96    C     0.84781   0.07175   0.18694   0.00000  Uiso   1.00
C97    C     0.80785   0.04392   0.34115   0.00000  Uiso   1.00
C98    C     0.88707   0.07417   0.82306   0.00000  Uiso   1.00
C99    C     0.92689   0.04792   0.77169   0.00000  Uiso   1.00
C100   C     0.91283   0.01156   0.69485   0.00000  Uiso   1.00
C101   C     0.91051   0.94893   0.56421   0.00000  Uiso   1.00
C102   C     0.86548   0.16335   0.86824   0.00000  Uiso   1.00
C103   C     0.88713   0.21208   0.85482   0.00000  Uiso   1.00
C104   C     0.85490   0.25081   0.81598   0.00000  Uiso   1.00
C105   C     0.81904   0.32664   0.75550   0.00000  Uiso   1.00
C106   C     0.79792   0.09757   0.86444   0.00000  Uiso   1.00
C107   C     0.81083   0.08689   0.98198   0.00000  Uiso   1.00
C108   C     0.77633   0.06943   0.05942   0.00000  Uiso   1.00
C109   C     0.79571   0.06201   0.16239   0.00000  Uiso   1.00
C110   C     0.83507   0.06445   0.79855   0.00000  Uiso   1.00
C111   C     0.82095   0.02813   0.72176   0.00000  Uiso   1.00
C112   C     0.86073   0.00183   0.67029   0.00000  Uiso   1.00
C113   C     0.81347   0.15363   0.84372   0.00000  Uiso   1.00
C114   C     0.78120   0.19229   0.80489   0.00000  Uiso   1.00
C115   C     0.80280   0.24107   0.79142   0.00000  Uiso   1.00
H116   H     0.93416   0.12302   0.92866   0.00000  Uiso   1.00
H117   H     0.92252   0.09674   0.12830   0.00000  Uiso   1.00
H118   H     0.96713   0.05545   0.79067   0.00000  Uiso   1.00
H119   H     0.92738   0.21959   0.87380   0.00000  Uiso   1.00
H120   H     0.88668   0.06329   0.33881   0.00000  Uiso   1.00
H121   H     0.98075   0.97625   0.62689   0.00000  Uiso   1.00
H122   H     0.89693   0.32236   0.80217   0.00000  Uiso   1.00
H123   H     0.75743   0.09001   0.84535   0.00000  Uiso   1.00
H124   H     0.73609   0.06191   0.04043   0.00000  Uiso   1.00
H125   H     0.78070   0.02062   0.70280   0.00000  Uiso   1.00
H126   H     0.74095   0.18476   0.78593   0.00000  Uiso   1.00
H127   H     0.73537   0.03502   0.26750   0.00000  Uiso   1.00
H128   H     0.82944   0.94798   0.55556   0.00000  Uiso   1.00
H129   H     0.74562   0.29409   0.73085   0.00000  Uiso   1.00
O130   O     0.80018   0.03125   0.43297   0.00000  Uiso   1.00
O131   O     0.92360   0.91706   0.49894   0.00000  Uiso   1.00
O132   O     0.81363   0.37115   0.72892   0.00000  Uiso   1.00
N133   N     0.85400   0.06050   0.29526   0.00000  Uiso   1.00
N134   N     0.94195   0.97912   0.62967   0.00000  Uiso   1.00
N135   N     0.86359   0.30270   0.79351   0.00000  Uiso   1.00
N136   N     0.77258   0.04529   0.25689   0.00000  Uiso   1.00
N137   N     0.86052   0.96390   0.59129   0.00000  Uiso   1.00
N138   N     0.78216   0.28749   0.75514   0.00000  Uiso   1.00
C139   C     0.39367   0.61546   0.40958   0.00000  Uiso   1.00
C140   C     0.36283   0.59660   0.50650   0.00000  Uiso   1.00
C141   C     0.38227   0.58922   0.60936   0.00000  Uiso   1.00
C142   C     0.34781   0.57175   0.68694   0.00000  Uiso   1.00
C143   C     0.30785   0.54392   0.84115   0.00000  Uiso   1.00
C144   C     0.38707   0.57417   0.32306   0.00000  Uiso   1.00
C145   C     0.42689   0.54792   0.27169   0.00000  Uiso   1.00
C146   C     0.41283   0.51156   0.19485   0.00000  Uiso   1.00
C147   C     0.41051   0.44893   0.06421   0.00000  Uiso   1.00
C148   C     0.36548   0.66335   0.36824   0.00000  Uiso   1.00
C149   C     0.38713   0.71208   0.35482   0.00000  Uiso   1.00
C150   C     0.35490   0.75081   0.31598   0.00000  Uiso   1.00
C151   C     0.31904   0.82664   0.25550   0.00000  Uiso   1.00
C152   C     0.29792   0.59757   0.36444   0.00000  Uiso   1.00
C153   C     0.31083   0.58689   0.48198   0.00000  Uiso   1.00
C154   C     0.27633   0.56943   0.55942   0.00000  Uiso   1.00
C155   C     0.29571   0.56201   0.66239   0.00000  Uiso   1.00
C156   C     0.33507   0.56445   0.29855   0.00000  Uiso   1.00
C157   C     0.32095   0.52813   0.22176   0.00000  Uiso   1.00
C158   C     0.36073   0.50183   0.17029   0.00000  Uiso   1.00
C159   C     0.31347   0.65363   0.34372   0.00000  Uiso   1.00
C160   C     0.28120   0.69229   0.30489   0.00000  Uiso   1.00
C161   C     0.30280   0.74107   0.29142   0.00000  Uiso   1.00
H162   H     0.43416   0.62302   0.42866   0.00000  Uiso   1.00
H163   H     0.42252   0.59674   0.62830   0.00000  Uiso   1.00
H164   H     0.46713   0.55545   0.29067   0.00000  Uiso   1.00
H165   H     0.42738   0.71959   0.37380   0.00000  Uiso   1.00
H166   H     0.38668   0.56329   0.83881   0.00000  Uiso   1.00
H167   H     0.48075   0.47625   0.12689   0.00000  Uiso   1.00
H168   H     0.39693   0.82236   0.30217   0.00000  Uiso   1.00
H169   H     0.25743   0.59001   0.34535   0.00000  Uiso   1.00
H170   H     0.23609   0.56191   0.54043   0.00000  Uiso   1.00
H171   H     0.28070   0.52062   0.20280   0.00000  Uiso   1.00
H172   H     0.24095   0.68476   0.28593   0.00000  Uiso   1.00
H173   H     0.23537   0.53502   0.76750   0.00000  Uiso   1.00
H174   H     0.32944   0.44798   0.05556   0.00000  Uiso   1.00
H175   H     0.24562   0.79409   0.23085   0.00000  Uiso   1.00
O176   O     0.30018   0.53125   0.93297   0.00000  Uiso   1.00
O177   O     0.42360   0.41706   0.99894   0.00000  Uiso   1.00
O178   O     0.31363   0.87115   0.22892   0.00000  Uiso   1.00
N179   N     0.35400   0.56050   0.79526   0.00000  Uiso   1.00
N180   N     0.44195   0.47912   0.12967   0.00000  Uiso   1.00
N181   N     0.36359   0.80270   0.29351   0.00000  Uiso   1.00
N182   N     0.27258   0.54529   0.75689   0.00000  Uiso   1.00
N183   N     0.36052   0.46390   0.09129   0.00000  Uiso   1.00
N184   N     0.28216   0.78749   0.25514   0.00000  Uiso   1.00
C185   C     0.61546   0.10633   0.65958   0.00000  Uiso   1.00
C186   C     0.59660   0.13717   0.75650   0.00000  Uiso   1.00
C187   C     0.58922   0.11773   0.85936   0.00000  Uiso   1.00
C188   C     0.57175   0.15219   0.93694   0.00000  Uiso   1.00
C189   C     0.54392   0.19215   0.09115   0.00000  Uiso   1.00
C190   C     0.57417   0.11293   0.57306   0.00000  Uiso   1.00
C191   C     0.54792   0.07311   0.52169   0.00000  Uiso   1.00
C192   C     0.51156   0.08717   0.44485   0.00000  Uiso   1.00
C193   C     0.44893   0.08949   0.31421   0.00000  Uiso   1.00
C194   C     0.66335   0.13452   0.61824   0.00000  Uiso   1.00
C195   C     0.71208   0.11287   0.60482   0.00000  Uiso   1.00
C196   C     0.75081   0.14510   0.56598   0.00000  Uiso   1.00
C197   C     0.82664   0.18096   0.50550   0.00000  Uiso   1.00
C198   C     0.59757   0.20208   0.61444   0.00000  Uiso   1.00
C199   C     0.58689   0.18917   0.73198   0.00000  Uiso   1.00
C200   C     0.56943   0.22367   0.80942   0.00000  Uiso   1.00
C201   C     0.56201   0.20429   0.91239   0.00000  Uiso   1.00
C202   C     0.56445   0.16493   0.54855   0.00000  Uiso   1.00
C203   C     0.52813   0.17905   0.47176   0.00000  Uiso   1.00
C204   C     0.50183   0.13927   0.42029   0.00000  Uiso   1.00
C205   C     0.65363   0.18653   0.59372   0.00000  Uiso   1.00
C206   C     0.69229   0.21880   0.55489   0.00000  Uiso   1.00
C207   C     0.74107   0.19720   0.54142   0.00000  Uiso   1.00
H208   H     0.62302   0.06584   0.67866   0.00000  Uiso   1.00
H209   H     0.59674   0.07748   0.87830   0.00000  Uiso   1.00
H210   H     0.55545   0.03287   0.54067   0.00000  Uiso   1.00
H211   H     0.71959   0.07262   0.62380   0.00000  Uiso   1.00
H212   H     0.56329   0.11332   0.08881   0.00000  Uiso   1.00
H213   H     0.47625   0.01925   0.37689   0.00000  Uiso   1.00
H214   H     0.82236   0.10307   0.55217   0.00000  Uiso   1.00
H215   H     0.59001   0.24257   0.59535   0.00000  Uiso   1.00
H216   H     0.56191   0.26391   0.79043   0.00000  Uiso   1.00
H217   H     0.52062   0.21930   0.45280   0.00000  Uiso   1.00
H218   H     0.68476   0.25905   0.53593   0.00000  Uiso   1.00
H219   H     0.53502   0.26463   0.01750   0.00000  Uiso   1.00
H220   H     0.44798   0.17056   0.30556   0.00000  Uiso   1.00
H221   H     0.79409   0.25438   0.48085   0.00000  Uiso   1.00
O222   O     0.53125   0.19982   0.18297   0.00000  Uiso   1.00
O223   O     0.41706   0.07640   0.24894   0.00000  Uiso   1.00
O224   O     0.87115   0.18637   0.47892   0.00000  Uiso   1.00
N225   N     0.56050   0.14600   0.04526   0.00000  Uiso   1.00
N226   N     0.47912   0.05805   0.37967   0.00000  Uiso   1.00
N227   N     0.80270   0.13641   0.54351   0.00000  Uiso   1.00
N228   N     0.54529   0.22742   0.00689   0.00000  Uiso   1.00
N229   N     0.46390   0.13948   0.34129   0.00000  Uiso   1.00
N230   N     0.78749   0.21784   0.50514   0.00000  Uiso   1.00
C231   C     0.11546   0.60633   0.15958   0.00000  Uiso   1.00
C232   C     0.09660   0.63717   0.25650   0.00000  Uiso   1.00
C233   C     0.08922   0.61773   0.35936   0.00000  Uiso   1.00
C234   C     0.07175   0.65219   0.43694   0.00000  Uiso   1.00
C235   C     0.04392   0.69215   0.59115   0.00000  Uiso   1.00
C236   C     0.07417   0.61293   0.07306   0.00000  Uiso   1.00
C237   C     0.04792   0.57311   0.02169   0.00000  Uiso   1.00
C238   C     0.01156   0.58717   0.94485   0.00000  Uiso   1.00
C239   C     0.94893   0.58949   0.81421   0.00000  Uiso   1.00
C240   C     0.16335   0.63452   0.11824   0.00000  Uiso   1.00
C241   C     0.21208   0.61287   0.10482   0.00000  Uiso   1.00
C242   C     0.25081   0.64510   0.06598   0.00000  Uiso   1.00
C243   C     0.32664   0.68096   0.00550   0.00000  Uiso   1.00
C244   C     0.09757   0.70208   0.11444   0.00000  Uiso   1.00
C245   C     0.08689   0.68917   0.23198   0.00000  Uiso   1.00
C246   C     0.06943   0.72367   0.30942   0.00000  Uiso   1.00
C247   C     0.06201   0.70429   0.41239   0.00000  Uiso   1.00
C248   C     0.06445   0.66493   0.04855   0.00000  Uiso   1.00
C249   C     0.02813   0.67905   0.97176   0.00000  Uiso   1.00
C250   C     0.00183   0.63927   0.92029   0.00000  Uiso   1.00
C251   C     0.15363   0.68653   0.09372   0.00000  Uiso   1.00
C252   C     0.19229   0.71880   0.05489   0.00000  Uiso   1.00
C253   C     0.24107   0.69720   0.04142   0.00000  Uiso   1.00
H254   H     0.12302   0.56584   0.17866   0.00000  Uiso   1.00
H255   H     0.09674   0.57748   0.37830   0.00000  Uiso   1.00
H256   H     0.05545   0.53287   0.04067   0.00000  Uiso   1.00
H257   H     0.21959   0.57262   0.12380   0.00000  Uiso   1.00
H258   H     0.06329   0.61332   0.58881   0.00000  Uiso   1.00
H259   H     0.97625   0.51925   0.87689   0.00000  Uiso   1.00
H260   H     0.32236   0.60307   0.05217   0.00000  Uiso   1.00
H261   H     0.09001   0.74257   0.09535   0.00000  Uiso   1.00
H262   H     0.06191   0.76391   0.29043   0.00000  Uiso   1.00
H263   H     0.02062   0.71930   0.95280   0.00000  Uiso   1.00
H264   H     0.18476   0.75905   0.03593   0.00000  Uiso   1.00
H265   H     0.03502   0.76463   0.51750   0.00000  Uiso   1.00
H266   H     0.94798   0.67056   0.80556   0.00000  Uiso   1.00
H267   H     0.29409   0.75438   0.98085   0.00000  Uiso   1.00
O268   O     0.03125   0.69982   0.68297   0.00000  Uiso   1.00
O269   O     0.91706   0.57640   0.74894   0.00000  Uiso   1.00
O270   O     0.37115   0.68637   0.97892   0.00000  Uiso   1.00
N271   N     0.06050   0.64600   0.54526   0.00000  Uiso   1.00
N272   N     0.97912   0.55805   0.87967   0.00000  Uiso   1.00
N273   N     0.30270   0.63641   0.04351   0.00000  Uiso   1.00
N274   N     0.04529   0.72742   0.50689   0.00000  Uiso   1.00
N275   N     0.96390   0.63948   0.84129   0.00000  Uiso   1.00
N276   N     0.28749   0.71784   0.00514   0.00000  Uiso   1.00
C277   C     0.88454   0.39367   0.15958   0.00000  Uiso   1.00
C278   C     0.90340   0.36283   0.25650   0.00000  Uiso   1.00
C279   C     0.91078   0.38227   0.35936   0.00000  Uiso   1.00
C280   C     0.92825   0.34781   0.43694   0.00000  Uiso   1.00
C281   C     0.95608   0.30785   0.59115   0.00000  Uiso   1.00
C282   C     0.92583   0.38707   0.07306   0.00000  Uiso   1.00
C283   C     0.95208   0.42689   0.02169   0.00000  Uiso   1.00
C284   C     0.98844   0.41283   0.94485   0.00000  Uiso   1.00
C285   C     0.05107   0.41051   0.81421   0.00000  Uiso   1.00
C286   C     0.83665   0.36548   0.11824   0.00000  Uiso   1.00
C287   C     0.78792   0.38713   0.10482   0.00000  Uiso   1.00
C288   C     0.74919   0.35490   0.06598   0.00000  Uiso   1.00
C289   C     0.67336   0.31904   0.00550   0.00000  Uiso   1.00
C290   C     0.90243   0.29792   0.11444   0.00000  Uiso   1.00
C291   C     0.91311   0.31083   0.23198   0.00000  Uiso   1.00
C292   C     0.93057   0.27633   0.30942   0.00000  Uiso   1.00
C293   C     0.93799   0.29571   0.41239   0.00000  Uiso   1.00
C294   C     0.93555   0.33507   0.04855   0.00000  Uiso   1.00
C295   C     0.97187   0.32095   0.97176   0.00000  Uiso   1.00
C296   C     0.99817   0.36073   0.92029   0.00000  Uiso   1.00
C297   C     0.84637   0.31347   0.09372   0.00000  Uiso   1.00
C298   C     0.80771   0.28120   0.05489   0.00000  Uiso   1.00
C299   C     0.75893   0.30280   0.04142   0.00000  Uiso   1.00
H300   H     0.87698   0.43416   0.17866   0.00000  Uiso   1.00
H301   H     0.90326   0.42252   0.37830   0.00000  Uiso   1.00
H302   H     0.94455   0.46713   0.04067   0.00000  Uiso   1.00
H303   H     0.78041   0.42738   0.12380   0.00000  Uiso   1.00
H304   H     0.93671   0.38668   0.58881   0.00000  Uiso   1.00
H305   H     0.02375   0.48075   0.87689   0.00000  Uiso   1.00
H306   H     0.67764   0.39693   0.05217   0.00000  Uiso   1.00
H307   H     0.90999   0.25743   0.09535   0.00000  Uiso   1.00
H308   H     0.93809   0.23609   0.29043   0.00000  Uiso   1.00
H309   H     0.97938   0.28070   0.95280   0.00000  Uiso   1.00
H310   H     0.81524   0.24095   0.03593   0.00000  Uiso   1.00
H311   H     0.96498   0.23537   0.51750   0.00000  Uiso   1.00
H312   H     0.05202   0.32944   0.80556   0.00000  Uiso   1.00
H313   H     0.70591   0.24562   0.98085   0.00000  Uiso   1.00
O314   O     0.96875   0.30018   0.68297   0.00000  Uiso   1.00
O315   O     0.08294   0.42360   0.74894   0.00000  Uiso   1.00
O316   O     0.62885   0.31363   0.97892   0.00000  Uiso   1.00
N317   N     0.93950   0.35400   0.54526   0.00000  Uiso   1.00
N318   N     0.02088   0.44195   0.87967   0.00000  Uiso   1.00
N319   N     0.69730   0.36359   0.04351   0.00000  Uiso   1.00
N320   N     0.95471   0.27258   0.50689   0.00000  Uiso   1.00
N321   N     0.03610   0.36052   0.84129   0.00000  Uiso   1.00
N322   N     0.71251   0.28216   0.00514   0.00000  Uiso   1.00
C323   C     0.38454   0.89367   0.65958   0.00000  Uiso   1.00
C324   C     0.40340   0.86283   0.75650   0.00000  Uiso   1.00
C325   C     0.41078   0.88227   0.85936   0.00000  Uiso   1.00
C326   C     0.42825   0.84781   0.93694   0.00000  Uiso   1.00
C327   C     0.45608   0.80785   0.09115   0.00000  Uiso   1.00
C328   C     0.42583   0.88707   0.57306   0.00000  Uiso   1.00
C329   C     0.45208   0.92689   0.52169   0.00000  Uiso   1.00
C330   C     0.48844   0.91283   0.44485   0.00000  Uiso   1.00
C331   C     0.55107   0.91051   0.31421   0.00000  Uiso   1.00
C332   C     0.33665   0.86548   0.61824   0.00000  Uiso   1.00
C333   C     0.28792   0.88713   0.60482   0.00000  Uiso   1.00
C334   C     0.24919   0.85490   0.56598   0.00000  Uiso   1.00
C335   C     0.17336   0.81904   0.50550   0.00000  Uiso   1.00
C336   C     0.40243   0.79792   0.61444   0.00000  Uiso   1.00
C337   C     0.41311   0.81083   0.73198   0.00000  Uiso   1.00
C338   C     0.43057   0.77633   0.80942   0.00000  Uiso   1.00
C339   C     0.43799   0.79571   0.91239   0.00000  Uiso   1.00
C340   C     0.43555   0.83507   0.54855   0.00000  Uiso   1.00
C341   C     0.47187   0.82095   0.47176   0.00000  Uiso   1.00
C342   C     0.49817   0.86073   0.42029   0.00000  Uiso   1.00
C343   C     0.34637   0.81347   0.59372   0.00000  Uiso   1.00
C344   C     0.30771   0.78120   0.55489   0.00000  Uiso   1.00
C345   C     0.25893   0.80280   0.54142   0.00000  Uiso   1.00
H346   H     0.37698   0.93416   0.67866   0.00000  Uiso   1.00
H347   H     0.40326   0.92252   0.87830   0.00000  Uiso   1.00
H348   H     0.44455   0.96713   0.54067   0.00000  Uiso   1.00
H349   H     0.28041   0.92738   0.62380   0.00000  Uiso   1.00
H350   H     0.43671   0.88668   0.08881   0.00000  Uiso   1.00
H351   H     0.52375   0.98075   0.37689   0.00000  Uiso   1.00
H352   H     0.17764   0.89693   0.55217   0.00000  Uiso   1.00
H353   H     0.40999   0.75743   0.59535   0.00000  Uiso   1.00
H354   H     0.43809   0.73609   0.79043   0.00000  Uiso   1.00
H355   H     0.47938   0.78070   0.45280   0.00000  Uiso   1.00
H356   H     0.31524   0.74095   0.53593   0.00000  Uiso   1.00
H357   H     0.46498   0.73537   0.01750   0.00000  Uiso   1.00
H358   H     0.55202   0.82944   0.30556   0.00000  Uiso   1.00
H359   H     0.20591   0.74562   0.48085   0.00000  Uiso   1.00
O360   O     0.46875   0.80018   0.18297   0.00000  Uiso   1.00
O361   O     0.58294   0.92360   0.24894   0.00000  Uiso   1.00
O362   O     0.12885   0.81363   0.47892   0.00000  Uiso   1.00
N363   N     0.43950   0.85400   0.04526   0.00000  Uiso   1.00
N364   N     0.52088   0.94195   0.37967   0.00000  Uiso   1.00
N365   N     0.19730   0.86359   0.54351   0.00000  Uiso   1.00
N366   N     0.45471   0.77258   0.00689   0.00000  Uiso   1.00
N367   N     0.53610   0.86052   0.34129   0.00000  Uiso   1.00
N368   N     0.21251   0.78216   0.50514   0.00000  Uiso   1.00
C369   C     0.39367   0.11546   0.84042   0.00000  Uiso   1.00
C370   C     0.36283   0.09660   0.74350   0.00000  Uiso   1.00
C371   C     0.38227   0.08922   0.64064   0.00000  Uiso   1.00
C372   C     0.34781   0.07175   0.56306   0.00000  Uiso   1.00
C373   C     0.30785   0.04392   0.40885   0.00000  Uiso   1.00
C374   C     0.38707   0.07417   0.92694   0.00000  Uiso   1.00
C375   C     0.42689   0.04792   0.97831   0.00000  Uiso   1.00
C376   C     0.41283   0.01156   0.05515   0.00000  Uiso   1.00
C377   C     0.41051   0.94893   0.18579   0.00000  Uiso   1.00
C378   C     0.36548   0.16335   0.88176   0.00000  Uiso   1.00
C379   C     0.38713   0.21208   0.89518   0.00000  Uiso   1.00
C380   C     0.35490   0.25081   0.93402   0.00000  Uiso   1.00
C381   C     0.31904   0.32664   0.99450   0.00000  Uiso   1.00
C382   C     0.29792   0.09757   0.88556   0.00000  Uiso   1.00
C383   C     0.31083   0.08689   0.76802   0.00000  Uiso   1.00
C384   C     0.27633   0.06943   0.69058   0.00000  Uiso   1.00
C385   C     0.29571   0.06201   0.58761   0.00000  Uiso   1.00
C386   C     0.33507   0.06445   0.95145   0.00000  Uiso   1.00
C387   C     0.32095   0.02813   0.02824   0.00000  Uiso   1.00
C388   C     0.36073   0.00183   0.07971   0.00000  Uiso   1.00
C389   C     0.31347   0.15363   0.90628   0.00000  Uiso   1.00
C390   C     0.28120   0.19229   0.94511   0.00000  Uiso   1.00
C391   C     0.30280   0.24107   0.95858   0.00000  Uiso   1.00
H392   H     0.43416   0.12302   0.82134   0.00000  Uiso   1.00
H393   H     0.42252   0.09674   0.62170   0.00000  Uiso   1.00
H394   H     0.46713   0.05545   0.95933   0.00000  Uiso   1.00
H395   H     0.42738   0.21959   0.87620   0.00000  Uiso   1.00
H396   H     0.38668   0.06329   0.41119   0.00000  Uiso   1.00
H397   H     0.48075   0.97625   0.12311   0.00000  Uiso   1.00
H398   H     0.39693   0.32236   0.94783   0.00000  Uiso   1.00
H399   H     0.25743   0.09001   0.90465   0.00000  Uiso   1.00
H400   H     0.23609   0.06191   0.70957   0.00000  Uiso   1.00
H401   H     0.28070   0.02062   0.04720   0.00000  Uiso   1.00
H402   H     0.24095   0.18476   0.96407   0.00000  Uiso   1.00
H403   H     0.23537   0.03502   0.48250   0.00000  Uiso   1.00
H404   H     0.32944   0.94798   0.19444   0.00000  Uiso   1.00
H405   H     0.24562   0.29409   0.01915   0.00000  Uiso   1.00
O406   O     0.30018   0.03125   0.31703   0.00000  Uiso   1.00
O407   O     0.42360   0.91706   0.25106   0.00000  Uiso   1.00
O408   O     0.31363   0.37115   0.02108   0.00000  Uiso   1.00
N409   N     0.35400   0.06050   0.45474   0.00000  Uiso   1.00
N410   N     0.44195   0.97912   0.12033   0.00000  Uiso   1.00
N411   N     0.36359   0.30270   0.95649   0.00000  Uiso   1.00
N412   N     0.27258   0.04529   0.49311   0.00000  Uiso   1.00
N413   N     0.36052   0.96390   0.15871   0.00000  Uiso   1.00
N414   N     0.28216   0.28749   0.99486   0.00000  Uiso   1.00
C415   C     0.89367   0.61546   0.34042   0.00000  Uiso   1.00
C416   C     0.86283   0.59660   0.24350   0.00000  Uiso   1.00
C417   C     0.88227   0.58922   0.14064   0.00000  Uiso   1.00
C418   C     0.84781   0.57175   0.06306   0.00000  Uiso   1.00
C419   C     0.80785   0.54392   0.90885   0.00000  Uiso   1.00
C420   C     0.88707   0.57417   0.42694   0.00000  Uiso   1.00
C421   C     0.92689   0.54792   0.47831   0.00000  Uiso   1.00
C422   C     0.91283   0.51156   0.55515   0.00000  Uiso   1.00
C423   C     0.91051   0.44893   0.68579   0.00000  Uiso   1.00
C424   C     0.86548   0.66335   0.38176   0.00000  Uiso   1.00
C425   C     0.88713   0.71208   0.39518   0.00000  Uiso   1.00
C426   C     0.85490   0.75081   0.43402   0.00000  Uiso   1.00
C427   C     0.81904   0.82664   0.49450   0.00000  Uiso   1.00
C428   C     0.79792   0.59757   0.38556   0.00000  Uiso   1.00
C429   C     0.81083   0.58689   0.26802   0.00000  Uiso   1.00
C430   C     0.77633   0.56943   0.19058   0.00000  Uiso   1.00
C431   C     0.79571   0.56201   0.08761   0.00000  Uiso   1.00
C432   C     0.83507   0.56445   0.45145   0.00000  Uiso   1.00
C433   C     0.82095   0.52813   0.52824   0.00000  Uiso   1.00
C434   C     0.86073   0.50183   0.57971   0.00000  Uiso   1.00
C435   C     0.81347   0.65363   0.40628   0.00000  Uiso   1.00
C436   C     0.78120   0.69229   0.44511   0.00000  Uiso   1.00
C437   C     0.80280   0.74107   0.45858   0.00000  Uiso   1.00
H438   H     0.93416   0.62302   0.32134   0.00000  Uiso   1.00
H439   H     0.92252   0.59674   0.12170   0.00000  Uiso   1.00
H440   H     0.96713   0.55545   0.45933   0.00000  Uiso   1.00
H441   H     0.92738   0.71959   0.37620   0.00000  Uiso   1.00
H442   H     0.88668   0.56329   0.91119   0.00000  Uiso   1.00
H443   H     0.98075   0.47625   0.62311   0.00000  Uiso   1.00
H444   H     0.89693   0.82236   0.44783   0.00000  Uiso   1.00
H445   H     0.75743   0.59001   0.40465   0.00000  Uiso   1.00
H446   H     0.73609   0.56191   0.20957   0.00000  Uiso   1.00
H447   H     0.78070   0.52062   0.54720   0.00000  Uiso   1.00
H448   H     0.74095   0.68476   0.46407   0.00000  Uiso   1.00
H449   H     0.73537   0.53502   0.98250   0.00000  Uiso   1.00
H450   H     0.82944   0.44798   0.69444   0.00000  Uiso   1.00
H451   H     0.74562   0.79409   0.51915   0.00000  Uiso   1.00
O452   O     0.80018   0.53125   0.81703   0.00000  Uiso   1.00
O453   O     0.92360   0.41706   0.75106   0.00000  Uiso   1.00
O454   O     0.81363   0.87115   0.52108   0.00000  Uiso   1.00
N455   N     0.85400   0.56050   0.95474   0.00000  Uiso   1.00
N456   N     0.94195   0.47912   0.62033   0.00000  Uiso   1.00
N457   N     0.86359   0.80270   0.45649   0.00000  Uiso   1.00
N458   N     0.77258   0.54529   0.99311   0.00000  Uiso   1.00
N459   N     0.86052   0.46390   0.65871   0.00000  Uiso   1.00
N460   N     0.78216   0.78749   0.49486   0.00000  Uiso   1.00
C461   C     0.10633   0.38454   0.34042   0.00000  Uiso   1.00
C462   C     0.13717   0.40340   0.24350   0.00000  Uiso   1.00
C463   C     0.11773   0.41078   0.14064   0.00000  Uiso   1.00
C464   C     0.15219   0.42825   0.06306   0.00000  Uiso   1.00
C465   C     0.19215   0.45608   0.90885   0.00000  Uiso   1.00
C466   C     0.11293   0.42583   0.42694   0.00000  Uiso   1.00
C467   C     0.07311   0.45208   0.47831   0.00000  Uiso   1.00
C468   C     0.08717   0.48844   0.55515   0.00000  Uiso   1.00
C469   C     0.08949   0.55107   0.68579   0.00000  Uiso   1.00
C470   C     0.13452   0.33665   0.38176   0.00000  Uiso   1.00
C471   C     0.11287   0.28792   0.39518   0.00000  Uiso   1.00
C472   C     0.14510   0.24919   0.43402   0.00000  Uiso   1.00
C473   C     0.18096   0.17336   0.49450   0.00000  Uiso   1.00
C474   C     0.20208   0.40243   0.38556   0.00000  Uiso   1.00
C475   C     0.18917   0.41311   0.26802   0.00000  Uiso   1.00
C476   C     0.22367   0.43057   0.19058   0.00000  Uiso   1.00
C477   C     0.20429   0.43799   0.08761   0.00000  Uiso   1.00
C478   C     0.16493   0.43555   0.45145   0.00000  Uiso   1.00
C479   C     0.17905   0.47187   0.52824   0.00000  Uiso   1.00
C480   C     0.13927   0.49817   0.57971   0.00000  Uiso   1.00
C481   C     0.18653   0.34637   0.40628   0.00000  Uiso   1.00
C482   C     0.21880   0.30771   0.44511   0.00000  Uiso   1.00
C483   C     0.19720   0.25893   0.45858   0.00000  Uiso   1.00
H484   H     0.06584   0.37698   0.32134   0.00000  Uiso   1.00
H485   H     0.07748   0.40326   0.12170   0.00000  Uiso   1.00
H486   H     0.03287   0.44455   0.45933   0.00000  Uiso   1.00
H487   H     0.07262   0.28041   0.37620   0.00000  Uiso   1.00
H488   H     0.11332   0.43671   0.91119   0.00000  Uiso   1.00
H489   H     0.01925   0.52375   0.62311   0.00000  Uiso   1.00
H490   H     0.10307   0.17764   0.44783   0.00000  Uiso   1.00
H491   H     0.24257   0.40999   0.40465   0.00000  Uiso   1.00
H492   H     0.26391   0.43809   0.20957   0.00000  Uiso   1.00
H493   H     0.21930   0.47938   0.54720   0.00000  Uiso   1.00
H494   H     0.25905   0.31524   0.46407   0.00000  Uiso   1.00
H495   H     0.26463   0.46498   0.98250   0.00000  Uiso   1.00
H496   H     0.17056   0.55202   0.69444   0.00000  Uiso   1.00
H497   H     0.25438   0.20591   0.51915   0.00000  Uiso   1.00
O498   O     0.19982   0.46875   0.81703   0.00000  Uiso   1.00
O499   O     0.07640   0.58294   0.75106   0.00000  Uiso   1.00
O500   O     0.18637   0.12885   0.52108   0.00000  Uiso   1.00
N501   N     0.14600   0.43950   0.95474   0.00000  Uiso   1.00
N502   N     0.05805   0.52088   0.62033   0.00000  Uiso   1.00
N503   N     0.13641   0.19730   0.45649   0.00000  Uiso   1.00
N504   N     0.22742   0.45471   0.99311   0.00000  Uiso   1.00
N505   N     0.13948   0.53610   0.65871   0.00000  Uiso   1.00
N506   N     0.21784   0.21251   0.49486   0.00000  Uiso   1.00
C507   C     0.60633   0.88454   0.84042   0.00000  Uiso   1.00
C508   C     0.63717   0.90340   0.74350   0.00000  Uiso   1.00
C509   C     0.61773   0.91078   0.64064   0.00000  Uiso   1.00
C510   C     0.65219   0.92825   0.56306   0.00000  Uiso   1.00
C511   C     0.69215   0.95608   0.40885   0.00000  Uiso   1.00
C512   C     0.61293   0.92583   0.92694   0.00000  Uiso   1.00
C513   C     0.57311   0.95208   0.97831   0.00000  Uiso   1.00
C514   C     0.58717   0.98844   0.05515   0.00000  Uiso   1.00
C515   C     0.58949   0.05107   0.18579   0.00000  Uiso   1.00
C516   C     0.63452   0.83665   0.88176   0.00000  Uiso   1.00
C517   C     0.61287   0.78792   0.89518   0.00000  Uiso   1.00
C518   C     0.64510   0.74919   0.93402   0.00000  Uiso   1.00
C519   C     0.68096   0.67336   0.99450   0.00000  Uiso   1.00
C520   C     0.70208   0.90243   0.88556   0.00000  Uiso   1.00
C521   C     0.68917   0.91311   0.76802   0.00000  Uiso   1.00
C522   C     0.72367   0.93057   0.69058   0.00000  Uiso   1.00
C523   C     0.70429   0.93799   0.58761   0.00000  Uiso   1.00
C524   C     0.66493   0.93555   0.95145   0.00000  Uiso   1.00
C525   C     0.67905   0.97187   0.02824   0.00000  Uiso   1.00
C526   C     0.63927   0.99817   0.07971   0.00000  Uiso   1.00
C527   C     0.68653   0.84637   0.90628   0.00000  Uiso   1.00
C528   C     0.71880   0.80771   0.94511   0.00000  Uiso   1.00
C529   C     0.69720   0.75893   0.95858   0.00000  Uiso   1.00
H530   H     0.56584   0.87698   0.82134   0.00000  Uiso   1.00
H531   H     0.57748   0.90326   0.62170   0.00000  Uiso   1.00
H532   H     0.53287   0.94455   0.95933   0.00000  Uiso   1.00
H533   H     0.57262   0.78041   0.87620   0.00000  Uiso   1.00
H534   H     0.61332   0.93671   0.41119   0.00000  Uiso   1.00
H535   H     0.51925   0.02375   0.12311   0.00000  Uiso   1.00
H536   H     0.60307   0.67764   0.94783   0.00000  Uiso   1.00
H537   H     0.74257   0.90999   0.90465   0.00000  Uiso   1.00
H538   H     0.76391   0.93809   0.70957   0.00000  Uiso   1.00
H539   H     0.71930   0.97938   0.04720   0.00000  Uiso   1.00
H540   H     0.75905   0.81524   0.96407   0.00000  Uiso   1.00
H541   H     0.76463   0.96498   0.48250   0.00000  Uiso   1.00
H542   H     0.67056   0.05202   0.19444   0.00000  Uiso   1.00
H543   H     0.75438   0.70591   0.01915   0.00000  Uiso   1.00
O544   O     0.69982   0.96875   0.31703   0.00000  Uiso   1.00
O545   O     0.57640   0.08294   0.25106   0.00000  Uiso   1.00
O546   O     0.68637   0.62885   0.02108   0.00000  Uiso   1.00
N547   N     0.64600   0.93950   0.45474   0.00000  Uiso   1.00
N548   N     0.55805   0.02088   0.12033   0.00000  Uiso   1.00
N549   N     0.63641   0.69730   0.95649   0.00000  Uiso   1.00
N550   N     0.72742   0.95471   0.49311   0.00000  Uiso   1.00
N551   N     0.63948   0.03610   0.15871   0.00000  Uiso   1.00
N552   N     0.71784   0.71251   0.99486   0.00000  Uiso   1.00
C553   C     0.38454   0.39367   0.59042   0.00000  Uiso   1.00
C554   C     0.40340   0.36283   0.49350   0.00000  Uiso   1.00
C555   C     0.41078   0.38227   0.39064   0.00000  Uiso   1.00
C556   C     0.42825   0.34781   0.31306   0.00000  Uiso   1.00
C557   C     0.45608   0.30785   0.15885   0.00000  Uiso   1.00
C558   C     0.42583   0.38707   0.67694   0.00000  Uiso   1.00
C559   C     0.45208   0.42689   0.72831   0.00000  Uiso   1.00
C560   C     0.48844   0.41283   0.80515   0.00000  Uiso   1.00
C561   C     0.55107   0.41051   0.93579   0.00000  Uiso   1.00
C562   C     0.33665   0.36548   0.63176   0.00000  Uiso   1.00
C563   C     0.28792   0.38713   0.64518   0.00000  Uiso   1.00
C564   C     0.24919   0.35490   0.68402   0.00000  Uiso   1.00
C565   C     0.17336   0.31904   0.74450   0.00000  Uiso   1.00
C566   C     0.40243   0.29792   0.63556   0.00000  Uiso   1.00
C567   C     0.41311   0.31083   0.51802   0.00000  Uiso   1.00
C568   C     0.43057   0.27633   0.44058   0.00000  Uiso   1.00
C569   C     0.43799   0.29571   0.33761   0.00000  Uiso   1.00
C570   C     0.43555   0.33507   0.70145   0.00000  Uiso   1.00
C571   C     0.47187   0.32095   0.77824   0.00000  Uiso   1.00
C572   C     0.49817   0.36073   0.82971   0.00000  Uiso   1.00
C573   C     0.34637   0.31347   0.65628   0.00000  Uiso   1.00
C574   C     0.30771   0.28120   0.69511   0.00000  Uiso   1.00
C575   C     0.25893   0.30280   0.70858   0.00000  Uiso   1.00
H576   H     0.37698   0.43416   0.57134   0.00000  Uiso   1.00
H577   H     0.40326   0.42252   0.37170   0.00000  Uiso   1.00
H578   H     0.44455   0.46713   0.70933   0.00000  Uiso   1.00
H579   H     0.28041   0.42738   0.62620   0.00000  Uiso   1.00
H580   H     0.43671   0.38668   0.16119   0.00000  Uiso   1.00
H581   H     0.52375   0.48075   0.87311   0.00000  Uiso   1.00
H582   H     0.17764   0.39693   0.69783   0.00000  Uiso   1.00
H583   H     0.40999   0.25743   0.65465   0.00000  Uiso   1.00
H584   H     0.43809   0.23609   0.45957   0.00000  Uiso   1.00
H585   H     0.47938   0.28070   0.79720   0.00000  Uiso   1.00
H586   H     0.31524   0.24095   0.71407   0.00000  Uiso   1.00
H587   H     0.46498   0.23537   0.23250   0.00000  Uiso   1.00
H588   H     0.55202   0.32944   0.94444   0.00000  Uiso   1.00
H589   H     0.20591   0.24562   0.76915   0.00000  Uiso   1.00
O590   O     0.46875   0.30018   0.06703   0.00000  Uiso   1.00
O591   O     0.58294   0.42360   0.00106   0.00000  Uiso   1.00
O592   O     0.12885   0.31363   0.77108   0.00000  Uiso   1.00
N593   N     0.43950   0.35400   0.20474   0.00000  Uiso   1.00
N594   N     0.52088   0.44195   0.87033   0.00000  Uiso   1.00
N595   N     0.19730   0.36359   0.70649   0.00000  Uiso   1.00
N596   N     0.45471   0.27258   0.24311   0.00000  Uiso   1.00
N597   N     0.53610   0.36052   0.90871   0.00000  Uiso   1.00
N598   N     0.21251   0.28216   0.74486   0.00000  Uiso   1.00
C599   C     0.88454   0.89367   0.09042   0.00000  Uiso   1.00
C600   C     0.90340   0.86283   0.99350   0.00000  Uiso   1.00
C601   C     0.91078   0.88227   0.89064   0.00000  Uiso   1.00
C602   C     0.92825   0.84781   0.81306   0.00000  Uiso   1.00
C603   C     0.95608   0.80785   0.65885   0.00000  Uiso   1.00
C604   C     0.92583   0.88707   0.17694   0.00000  Uiso   1.00
C605   C     0.95208   0.92689   0.22831   0.00000  Uiso   1.00
C606   C     0.98844   0.91283   0.30515   0.00000  Uiso   1.00
C607   C     0.05107   0.91051   0.43579   0.00000  Uiso   1.00
C608   C     0.83665   0.86548   0.13176   0.00000  Uiso   1.00
C609   C     0.78792   0.88713   0.14518   0.00000  Uiso   1.00
C610   C     0.74919   0.85490   0.18402   0.00000  Uiso   1.00
C611   C     0.67336   0.81904   0.24450   0.00000  Uiso   1.00
C612   C     0.90243   0.79792   0.13556   0.00000  Uiso   1.00
C613   C     0.91311   0.81083   0.01802   0.00000  Uiso   1.00
C614   C     0.93057   0.77633   0.94058   0.00000  Uiso   1.00
C615   C     0.93799   0.79571   0.83761   0.00000  Uiso   1.00
C616   C     0.93555   0.83507   0.20145   0.00000  Uiso   1.00
C617   C     0.97187   0.82095   0.27824   0.00000  Uiso   1.00
C618   C     0.99817   0.86073   0.32971   0.00000  Uiso   1.00
C619   C     0.84637   0.81347   0.15628   0.00000  Uiso   1.00
C620   C     0.80771   0.78120   0.19511   0.00000  Uiso   1.00
C621   C     0.75893   0.80280   0.20858   0.00000  Uiso   1.00
H622   H     0.87698   0.93416   0.07134   0.00000  Uiso   1.00
H623   H     0.90326   0.92252   0.87170   0.00000  Uiso   1.00
H624   H     0.94455   0.96713   0.20933   0.00000  Uiso   1.00
H625   H     0.78041   0.92738   0.12620   0.00000  Uiso   1.00
H626   H     0.93671   0.88668   0.66119   0.00000  Uiso   1.00
H627   H     0.02375   0.98075   0.37311   0.00000  Uiso   1.00
H628   H     0.67764   0.89693   0.19783   0.00000  Uiso   1.00
H629   H     0.90999   0.75743   0.15465   0.00000  Uiso   1.00
H630   H     0.93809   0.73609   0.95957   0.00000  Uiso   1.00
H631   H     0.97938   0.78070   0.29720   0.00000  Uiso   1.00
H632   H     0.81524   0.74095   0.21407   0.00000  Uiso   1.00
H633   H     0.96498   0.73537   0.73250   0.00000  Uiso   1.00
H634   H     0.05202   0.82944   0.44444   0.00000  Uiso   1.00
H635   H     0.70591   0.74562   0.26915   0.00000  Uiso   1.00
O636   O     0.96875   0.80018   0.56703   0.00000  Uiso   1.00
O637   O     0.08294   0.92360   0.50106   0.00000  Uiso   1.00
O638   O     0.62885   0.81363   0.27108   0.00000  Uiso   1.00
N639   N     0.93950   0.85400   0.70474   0.00000  Uiso   1.00
N640   N     0.02088   0.94195   0.37033   0.00000  Uiso   1.00
N641   N     0.69730   0.86359   0.20649   0.00000  Uiso   1.00
N642   N     0.95471   0.77258   0.74311   0.00000  Uiso   1.00
N643   N     0.03610   0.86052   0.40871   0.00000  Uiso   1.00
N644   N     0.71251   0.78216   0.24486   0.00000  Uiso   1.00
C645   C     0.11546   0.10633   0.09042   0.00000  Uiso   1.00
C646   C     0.09660   0.13717   0.99350   0.00000  Uiso   1.00
C647   C     0.08922   0.11773   0.89064   0.00000  Uiso   1.00
C648   C     0.07175   0.15219   0.81306   0.00000  Uiso   1.00
C649   C     0.04392   0.19215   0.65885   0.00000  Uiso   1.00
C650   C     0.07417   0.11293   0.17694   0.00000  Uiso   1.00
C651   C     0.04792   0.07311   0.22831   0.00000  Uiso   1.00
C652   C     0.01156   0.08717   0.30515   0.00000  Uiso   1.00
C653   C     0.94893   0.08949   0.43579   0.00000  Uiso   1.00
C654   C     0.16335   0.13452   0.13176   0.00000  Uiso   1.00
C655   C     0.21208   0.11287   0.14518   0.00000  Uiso   1.00
C656   C     0.25081   0.14510   0.18402   0.00000  Uiso   1.00
C657   C     0.32664   0.18096   0.24450   0.00000  Uiso   1.00
C658   C     0.09757   0.20208   0.13556   0.00000  Uiso   1.00
C659   C     0.08689   0.18917   0.01802   0.00000  Uiso   1.00
C660   C     0.06943   0.22367   0.94058   0.00000  Uiso   1.00
C661   C     0.06201   0.20429   0.83761   0.00000  Uiso   1.00
C662   C     0.06445   0.16493   0.20145   0.00000  Uiso   1.00
C663   C     0.02813   0.17905   0.27824   0.00000  Uiso   1.00
C664   C     0.00183   0.13927   0.32971   0.00000  Uiso   1.00
C665   C     0.15363   0.18653   0.15628   0.00000  Uiso   1.00
C666   C     0.19229   0.21880   0.19511   0.00000  Uiso   1.00
C667   C     0.24107   0.19720   0.20858   0.00000  Uiso   1.00
H668   H     0.12302   0.06584   0.07134   0.00000  Uiso   1.00
H669   H     0.09674   0.07748   0.87170   0.00000  Uiso   1.00
H670   H     0.05545   0.03287   0.20933   0.00000  Uiso   1.00
H671   H     0.21959   0.07262   0.12620   0.00000  Uiso   1.00
H672   H     0.06329   0.11332   0.66119   0.00000  Uiso   1.00
H673   H     0.97625   0.01925   0.37311   0.00000  Uiso   1.00
H674   H     0.32236   0.10307   0.19783   0.00000  Uiso   1.00
H675   H     0.09001   0.24257   0.15465   0.00000  Uiso   1.00
H676   H     0.06191   0.26391   0.95957   0.00000  Uiso   1.00
H677   H     0.02062   0.21930   0.29720   0.00000  Uiso   1.00
H678   H     0.18476   0.25905   0.21407   0.00000  Uiso   1.00
H679   H     0.03502   0.26463   0.73250   0.00000  Uiso   1.00
H680   H     0.94798   0.17056   0.44444   0.00000  Uiso   1.00
H681   H     0.29409   0.25438   0.26915   0.00000  Uiso   1.00
O682   O     0.03125   0.19982   0.56703   0.00000  Uiso   1.00
O683   O     0.91706   0.07640   0.50106   0.00000  Uiso   1.00
O684   O     0.37115   0.18637   0.27108   0.00000  Uiso   1.00
N685   N     0.06050   0.14600   0.70474   0.00000  Uiso   1.00
N686   N     0.97912   0.05805   0.37033   0.00000  Uiso   1.00
N687   N     0.30270   0.13641   0.20649   0.00000  Uiso   1.00
N688   N     0.04529   0.22742   0.74311   0.00000  Uiso   1.00
N689   N     0.96390   0.13948   0.40871   0.00000  Uiso   1.00
N690   N     0.28749   0.21784   0.24486   0.00000  Uiso   1.00
C691   C     0.61546   0.60633   0.59042   0.00000  Uiso   1.00
C692   C     0.59660   0.63717   0.49350   0.00000  Uiso   1.00
C693   C     0.58922   0.61773   0.39064   0.00000  Uiso   1.00
C694   C     0.57175   0.65219   0.31306   0.00000  Uiso   1.00
C695   C     0.54392   0.69215   0.15885   0.00000  Uiso   1.00
C696   C     0.57417   0.61293   0.67694   0.00000  Uiso   1.00
C697   C     0.54792   0.57311   0.72831   0.00000  Uiso   1.00
C698   C     0.51156   0.58717   0.80515   0.00000  Uiso   1.00
C699   C     0.44893   0.58949   0.93579   0.00000  Uiso   1.00
C700   C     0.66335   0.63452   0.63176   0.00000  Uiso   1.00
C701   C     0.71208   0.61287   0.64518   0.00000  Uiso   1.00
C702   C     0.75081   0.64510   0.68402   0.00000  Uiso   1.00
C703   C     0.82664   0.68096   0.74450   0.00000  Uiso   1.00
C704   C     0.59757   0.70208   0.63556   0.00000  Uiso   1.00
C705   C     0.58689   0.68917   0.51802   0.00000  Uiso   1.00
C706   C     0.56943   0.72367   0.44058   0.00000  Uiso   1.00
C707   C     0.56201   0.70429   0.33761   0.00000  Uiso   1.00
C708   C     0.56445   0.66493   0.70145   0.00000  Uiso   1.00
C709   C     0.52813   0.67905   0.77824   0.00000  Uiso   1.00
C710   C     0.50183   0.63927   0.82971   0.00000  Uiso   1.00
C711   C     0.65363   0.68653   0.65628   0.00000  Uiso   1.00
C712   C     0.69229   0.71880   0.69511   0.00000  Uiso   1.00
C713   C     0.74107   0.69720   0.70858   0.00000  Uiso   1.00
H714   H     0.62302   0.56584   0.57134   0.00000  Uiso   1.00
H715   H     0.59674   0.57748   0.37170   0.00000  Uiso   1.00
H716   H     0.55545   0.53287   0.70933   0.00000  Uiso   1.00
H717   H     0.71959   0.57262   0.62620   0.00000  Uiso   1.00
H718   H     0.56329   0.61332   0.16119   0.00000  Uiso   1.00
H719   H     0.47625   0.51925   0.87311   0.00000  Uiso   1.00
H720   H     0.82236   0.60307   0.69783   0.00000  Uiso   1.00
H721   H     0.59001   0.74257   0.65465   0.00000  Uiso   1.00
H722   H     0.56191   0.76391   0.45957   0.00000  Uiso   1.00
H723   H     0.52062   0.71930   0.79720   0.00000  Uiso   1.00
H724   H     0.68476   0.75905   0.71407   0.00000  Uiso   1.00
H725   H     0.53502   0.76463   0.23250   0.00000  Uiso   1.00
H726   H     0.44798   0.67056   0.94444   0.00000  Uiso   1.00
H727   H     0.79409   0.75438   0.76915   0.00000  Uiso   1.00
O728   O     0.53125   0.69982   0.06703   0.00000  Uiso   1.00
O729   O     0.41706   0.57640   0.00106   0.00000  Uiso   1.00
O730   O     0.87115   0.68637   0.77108   0.00000  Uiso   1.00
N731   N     0.56050   0.64600   0.20474   0.00000  Uiso   1.00
N732   N     0.47912   0.55805   0.87033   0.00000  Uiso   1.00
N733   N     0.80270   0.63641   0.70649   0.00000  Uiso   1.00
N734   N     0.54529   0.72742   0.24311   0.00000  Uiso   1.00
N735   N     0.46390   0.63948   0.90871   0.00000  Uiso   1.00
N736   N     0.78749   0.71784   0.74486   0.00000  Uiso   1.00
