data_job_00690
_audit_creation_date              2018-12-19
_audit_creation_method            'Materials Studio'
_symmetry_space_group_name_H-M    'P1'
_symmetry_Int_Tables_number       1
_symmetry_cell_setting            triclinic
loop_
_symmetry_equiv_pos_as_xyz
  x,y,z
_cell_length_a                    23.0863
_cell_length_b                    21.4480
_cell_length_c                    23.2064
_cell_angle_alpha                 90.0000
_cell_angle_beta                  90.0000
_cell_angle_gamma                 90.0000
loop_
_atom_site_label
_atom_site_type_symbol
_atom_site_fract_x
_atom_site_fract_y
_atom_site_fract_z
_atom_site_U_iso_or_equiv
_atom_site_adp_type
_atom_site_occupancy
C1     C     0.42106   0.82819   0.38576   0.00000  Uiso   1.00
C2     C     0.39362   0.83886   0.44471   0.00000  Uiso   1.00
C3     C     0.38853   0.79469   0.48812   0.00000  Uiso   1.00
C4     C     0.36204   0.81362   0.53890   0.00000  Uiso   1.00
C5     C     0.32254   0.82090   0.62935   0.00000  Uiso   1.00
C6     C     0.37489   0.84551   0.34158   0.00000  Uiso   1.00
C7     C     0.35405   0.80693   0.29827   0.00000  Uiso   1.00
C8     C     0.31180   0.83147   0.26223   0.00000  Uiso   1.00
C9     C     0.24325   0.84909   0.19254   0.00000  Uiso   1.00
C10    C     0.46865   0.87708   0.37989   0.00000  Uiso   1.00
C11    C     0.52666   0.86506   0.36878   0.00000  Uiso   1.00
C12    C     0.56335   0.91619   0.36498   0.00000  Uiso   1.00
C13    C     0.64039   0.98284   0.35478   0.00000  Uiso   1.00
C14    C     0.38309   0.94036   0.39876   0.00000  Uiso   1.00
C15    C     0.37299   0.89978   0.45177   0.00000  Uiso   1.00
C16    C     0.34651   0.91879   0.50250   0.00000  Uiso   1.00
C17    C     0.34138   0.87466   0.54598   0.00000  Uiso   1.00
C18    C     0.35426   0.90643   0.34864   0.00000  Uiso   1.00
C19    C     0.31204   0.93103   0.31265   0.00000  Uiso   1.00
C20    C     0.29114   0.89251   0.26930   0.00000  Uiso   1.00
C21    C     0.44803   0.93801   0.38695   0.00000  Uiso   1.00
C22    C     0.48464   0.98917   0.38317   0.00000  Uiso   1.00
C23    C     0.54269   0.97723   0.37205   0.00000  Uiso   1.00
H24    H     0.43712   0.78076   0.38026   0.00000  Uiso   1.00
H25    H     0.40449   0.74754   0.48263   0.00000  Uiso   1.00
H26    H     0.37003   0.75979   0.29281   0.00000  Uiso   1.00
H27    H     0.54260   0.81791   0.36331   0.00000  Uiso   1.00
H28    H     0.35919   0.73757   0.59924   0.00000  Uiso   1.00
H29    H     0.28654   0.76340   0.19898   0.00000  Uiso   1.00
H30    H     0.65045   0.88596   0.34765   0.00000  Uiso   1.00
H31    H     0.36703   0.98780   0.40426   0.00000  Uiso   1.00
H32    H     0.33055   0.96594   0.50795   0.00000  Uiso   1.00
H33    H     0.29609   0.97819   0.31813   0.00000  Uiso   1.00
H34    H     0.46866   0.03631   0.38863   0.00000  Uiso   1.00
H35    H     0.29918   0.91484   0.61979   0.00000  Uiso   1.00
H36    H     0.22653   0.94066   0.21953   0.00000  Uiso   1.00
H37    H     0.59044   0.06323   0.36820   0.00000  Uiso   1.00
O38    O     0.30644   0.80809   0.67729   0.00000  Uiso   1.00
O39    O     0.21113   0.84197   0.15216   0.00000  Uiso   1.00
O40    O     0.68857   0.00277   0.34721   0.00000  Uiso   1.00
N41    N     0.35009   0.78230   0.58985   0.00000  Uiso   1.00
N42    N     0.28216   0.80644   0.21564   0.00000  Uiso   1.00
N43    N     0.62238   0.92102   0.35461   0.00000  Uiso   1.00
N44    N     0.31780   0.87768   0.60091   0.00000  Uiso   1.00
N45    N     0.24986   0.90182   0.22669   0.00000  Uiso   1.00
N46    N     0.59009   0.01641   0.36567   0.00000  Uiso   1.00
C47    C     0.92106   0.32819   0.88576   0.00000  Uiso   1.00
C48    C     0.89362   0.33886   0.94471   0.00000  Uiso   1.00
C49    C     0.88853   0.29469   0.98812   0.00000  Uiso   1.00
C50    C     0.86204   0.31362   0.03890   0.00000  Uiso   1.00
C51    C     0.82254   0.32090   0.12935   0.00000  Uiso   1.00
C52    C     0.87489   0.34551   0.84158   0.00000  Uiso   1.00
C53    C     0.85405   0.30693   0.79827   0.00000  Uiso   1.00
C54    C     0.81180   0.33147   0.76223   0.00000  Uiso   1.00
C55    C     0.74325   0.34909   0.69254   0.00000  Uiso   1.00
C56    C     0.96865   0.37708   0.87989   0.00000  Uiso   1.00
C57    C     0.02666   0.36506   0.86878   0.00000  Uiso   1.00
C58    C     0.06335   0.41619   0.86498   0.00000  Uiso   1.00
C59    C     0.14039   0.48284   0.85478   0.00000  Uiso   1.00
C60    C     0.88309   0.44036   0.89876   0.00000  Uiso   1.00
C61    C     0.87299   0.39978   0.95177   0.00000  Uiso   1.00
C62    C     0.84651   0.41879   0.00250   0.00000  Uiso   1.00
C63    C     0.84138   0.37466   0.04598   0.00000  Uiso   1.00
C64    C     0.85426   0.40643   0.84864   0.00000  Uiso   1.00
C65    C     0.81204   0.43103   0.81265   0.00000  Uiso   1.00
C66    C     0.79114   0.39251   0.76930   0.00000  Uiso   1.00
C67    C     0.94803   0.43801   0.88695   0.00000  Uiso   1.00
C68    C     0.98464   0.48917   0.88317   0.00000  Uiso   1.00
C69    C     0.04269   0.47723   0.87205   0.00000  Uiso   1.00
H70    H     0.93712   0.28076   0.88026   0.00000  Uiso   1.00
H71    H     0.90449   0.24754   0.98263   0.00000  Uiso   1.00
H72    H     0.87003   0.25979   0.79281   0.00000  Uiso   1.00
H73    H     0.04260   0.31791   0.86331   0.00000  Uiso   1.00
H74    H     0.85919   0.23757   0.09924   0.00000  Uiso   1.00
H75    H     0.78654   0.26340   0.69898   0.00000  Uiso   1.00
H76    H     0.15045   0.38596   0.84765   0.00000  Uiso   1.00
H77    H     0.86703   0.48780   0.90426   0.00000  Uiso   1.00
H78    H     0.83055   0.46594   0.00795   0.00000  Uiso   1.00
H79    H     0.79609   0.47819   0.81813   0.00000  Uiso   1.00
H80    H     0.96866   0.53631   0.88863   0.00000  Uiso   1.00
H81    H     0.79918   0.41484   0.11979   0.00000  Uiso   1.00
H82    H     0.72653   0.44066   0.71953   0.00000  Uiso   1.00
H83    H     0.09044   0.56323   0.86820   0.00000  Uiso   1.00
O84    O     0.80644   0.30809   0.17729   0.00000  Uiso   1.00
O85    O     0.71113   0.34197   0.65216   0.00000  Uiso   1.00
O86    O     0.18857   0.50277   0.84721   0.00000  Uiso   1.00
N87    N     0.85009   0.28230   0.08985   0.00000  Uiso   1.00
N88    N     0.78216   0.30644   0.71564   0.00000  Uiso   1.00
N89    N     0.12238   0.42102   0.85461   0.00000  Uiso   1.00
N90    N     0.81780   0.37768   0.10091   0.00000  Uiso   1.00
N91    N     0.74986   0.40182   0.72669   0.00000  Uiso   1.00
N92    N     0.09009   0.51641   0.86567   0.00000  Uiso   1.00
C93    C     0.07894   0.17181   0.88576   0.00000  Uiso   1.00
C94    C     0.10638   0.16114   0.94471   0.00000  Uiso   1.00
C95    C     0.11147   0.20531   0.98812   0.00000  Uiso   1.00
C96    C     0.13796   0.18638   0.03890   0.00000  Uiso   1.00
C97    C     0.17746   0.17910   0.12935   0.00000  Uiso   1.00
C98    C     0.12511   0.15449   0.84158   0.00000  Uiso   1.00
C99    C     0.14595   0.19307   0.79827   0.00000  Uiso   1.00
C100   C     0.18820   0.16853   0.76223   0.00000  Uiso   1.00
C101   C     0.25675   0.15091   0.69254   0.00000  Uiso   1.00
C102   C     0.03135   0.12292   0.87989   0.00000  Uiso   1.00
C103   C     0.97334   0.13494   0.86878   0.00000  Uiso   1.00
C104   C     0.93665   0.08381   0.86498   0.00000  Uiso   1.00
C105   C     0.85961   0.01716   0.85478   0.00000  Uiso   1.00
C106   C     0.11691   0.05964   0.89876   0.00000  Uiso   1.00
C107   C     0.12701   0.10022   0.95177   0.00000  Uiso   1.00
C108   C     0.15349   0.08121   0.00250   0.00000  Uiso   1.00
C109   C     0.15862   0.12534   0.04598   0.00000  Uiso   1.00
C110   C     0.14574   0.09357   0.84864   0.00000  Uiso   1.00
C111   C     0.18796   0.06897   0.81265   0.00000  Uiso   1.00
C112   C     0.20886   0.10749   0.76930   0.00000  Uiso   1.00
C113   C     0.05197   0.06199   0.88695   0.00000  Uiso   1.00
C114   C     0.01536   0.01083   0.88317   0.00000  Uiso   1.00
C115   C     0.95731   0.02277   0.87205   0.00000  Uiso   1.00
H116   H     0.06288   0.21924   0.88026   0.00000  Uiso   1.00
H117   H     0.09551   0.25246   0.98263   0.00000  Uiso   1.00
H118   H     0.12997   0.24021   0.79281   0.00000  Uiso   1.00
H119   H     0.95740   0.18209   0.86331   0.00000  Uiso   1.00
H120   H     0.14081   0.26243   0.09924   0.00000  Uiso   1.00
H121   H     0.21346   0.23660   0.69898   0.00000  Uiso   1.00
H122   H     0.84955   0.11404   0.84765   0.00000  Uiso   1.00
H123   H     0.13297   0.01220   0.90426   0.00000  Uiso   1.00
H124   H     0.16945   0.03406   0.00795   0.00000  Uiso   1.00
H125   H     0.20391   0.02181   0.81813   0.00000  Uiso   1.00
H126   H     0.03134   0.96369   0.88863   0.00000  Uiso   1.00
H127   H     0.20082   0.08516   0.11979   0.00000  Uiso   1.00
H128   H     0.27347   0.05934   0.71953   0.00000  Uiso   1.00
H129   H     0.90956   0.93677   0.86820   0.00000  Uiso   1.00
O130   O     0.19356   0.19191   0.17729   0.00000  Uiso   1.00
O131   O     0.28887   0.15803   0.65216   0.00000  Uiso   1.00
O132   O     0.81143   0.99723   0.84721   0.00000  Uiso   1.00
N133   N     0.14991   0.21770   0.08985   0.00000  Uiso   1.00
N134   N     0.21784   0.19356   0.71564   0.00000  Uiso   1.00
N135   N     0.87762   0.07898   0.85461   0.00000  Uiso   1.00
N136   N     0.18220   0.12232   0.10091   0.00000  Uiso   1.00
N137   N     0.25014   0.09818   0.72669   0.00000  Uiso   1.00
N138   N     0.90991   0.98359   0.86567   0.00000  Uiso   1.00
C139   C     0.57894   0.67181   0.38576   0.00000  Uiso   1.00
C140   C     0.60638   0.66114   0.44471   0.00000  Uiso   1.00
C141   C     0.61147   0.70531   0.48812   0.00000  Uiso   1.00
C142   C     0.63796   0.68638   0.53890   0.00000  Uiso   1.00
C143   C     0.67746   0.67910   0.62935   0.00000  Uiso   1.00
C144   C     0.62511   0.65449   0.34158   0.00000  Uiso   1.00
C145   C     0.64595   0.69307   0.29827   0.00000  Uiso   1.00
C146   C     0.68820   0.66853   0.26223   0.00000  Uiso   1.00
C147   C     0.75675   0.65091   0.19254   0.00000  Uiso   1.00
C148   C     0.53135   0.62292   0.37989   0.00000  Uiso   1.00
C149   C     0.47334   0.63494   0.36878   0.00000  Uiso   1.00
C150   C     0.43665   0.58381   0.36498   0.00000  Uiso   1.00
C151   C     0.35961   0.51716   0.35478   0.00000  Uiso   1.00
C152   C     0.61691   0.55964   0.39876   0.00000  Uiso   1.00
C153   C     0.62701   0.60022   0.45177   0.00000  Uiso   1.00
C154   C     0.65349   0.58121   0.50250   0.00000  Uiso   1.00
C155   C     0.65862   0.62534   0.54598   0.00000  Uiso   1.00
C156   C     0.64574   0.59357   0.34864   0.00000  Uiso   1.00
C157   C     0.68796   0.56897   0.31265   0.00000  Uiso   1.00
C158   C     0.70886   0.60749   0.26930   0.00000  Uiso   1.00
C159   C     0.55197   0.56199   0.38695   0.00000  Uiso   1.00
C160   C     0.51536   0.51083   0.38317   0.00000  Uiso   1.00
C161   C     0.45731   0.52277   0.37205   0.00000  Uiso   1.00
H162   H     0.56288   0.71924   0.38026   0.00000  Uiso   1.00
H163   H     0.59551   0.75246   0.48263   0.00000  Uiso   1.00
H164   H     0.62997   0.74021   0.29281   0.00000  Uiso   1.00
H165   H     0.45740   0.68209   0.36331   0.00000  Uiso   1.00
H166   H     0.64081   0.76243   0.59924   0.00000  Uiso   1.00
H167   H     0.71346   0.73660   0.19898   0.00000  Uiso   1.00
H168   H     0.34955   0.61404   0.34765   0.00000  Uiso   1.00
H169   H     0.63297   0.51220   0.40426   0.00000  Uiso   1.00
H170   H     0.66945   0.53406   0.50795   0.00000  Uiso   1.00
H171   H     0.70391   0.52181   0.31813   0.00000  Uiso   1.00
H172   H     0.53134   0.46369   0.38863   0.00000  Uiso   1.00
H173   H     0.70082   0.58516   0.61979   0.00000  Uiso   1.00
H174   H     0.77347   0.55934   0.21953   0.00000  Uiso   1.00
H175   H     0.40956   0.43677   0.36820   0.00000  Uiso   1.00
O176   O     0.69356   0.69191   0.67729   0.00000  Uiso   1.00
O177   O     0.78887   0.65803   0.15216   0.00000  Uiso   1.00
O178   O     0.31143   0.49723   0.34721   0.00000  Uiso   1.00
N179   N     0.64991   0.71770   0.58985   0.00000  Uiso   1.00
N180   N     0.71784   0.69356   0.21564   0.00000  Uiso   1.00
N181   N     0.37762   0.57898   0.35461   0.00000  Uiso   1.00
N182   N     0.68220   0.62232   0.60091   0.00000  Uiso   1.00
N183   N     0.75014   0.59818   0.22669   0.00000  Uiso   1.00
N184   N     0.40991   0.48359   0.36567   0.00000  Uiso   1.00
C185   C     0.57894   0.32819   0.11424   0.00000  Uiso   1.00
C186   C     0.60638   0.33886   0.05529   0.00000  Uiso   1.00
C187   C     0.61147   0.29469   0.01188   0.00000  Uiso   1.00
C188   C     0.63796   0.31362   0.96110   0.00000  Uiso   1.00
C189   C     0.67746   0.32090   0.87065   0.00000  Uiso   1.00
C190   C     0.62511   0.34551   0.15842   0.00000  Uiso   1.00
C191   C     0.64595   0.30693   0.20173   0.00000  Uiso   1.00
C192   C     0.68820   0.33147   0.23777   0.00000  Uiso   1.00
C193   C     0.75675   0.34909   0.30746   0.00000  Uiso   1.00
C194   C     0.53135   0.37708   0.12011   0.00000  Uiso   1.00
C195   C     0.47334   0.36506   0.13122   0.00000  Uiso   1.00
C196   C     0.43665   0.41619   0.13502   0.00000  Uiso   1.00
C197   C     0.35961   0.48284   0.14522   0.00000  Uiso   1.00
C198   C     0.61691   0.44036   0.10124   0.00000  Uiso   1.00
C199   C     0.62701   0.39978   0.04823   0.00000  Uiso   1.00
C200   C     0.65349   0.41879   0.99750   0.00000  Uiso   1.00
C201   C     0.65862   0.37466   0.95402   0.00000  Uiso   1.00
C202   C     0.64574   0.40643   0.15136   0.00000  Uiso   1.00
C203   C     0.68796   0.43103   0.18735   0.00000  Uiso   1.00
C204   C     0.70886   0.39251   0.23070   0.00000  Uiso   1.00
C205   C     0.55197   0.43801   0.11305   0.00000  Uiso   1.00
C206   C     0.51536   0.48917   0.11683   0.00000  Uiso   1.00
C207   C     0.45731   0.47723   0.12795   0.00000  Uiso   1.00
H208   H     0.56288   0.28076   0.11974   0.00000  Uiso   1.00
H209   H     0.59551   0.24754   0.01737   0.00000  Uiso   1.00
H210   H     0.62997   0.25979   0.20719   0.00000  Uiso   1.00
H211   H     0.45740   0.31791   0.13669   0.00000  Uiso   1.00
H212   H     0.64081   0.23757   0.90076   0.00000  Uiso   1.00
H213   H     0.71346   0.26340   0.30102   0.00000  Uiso   1.00
H214   H     0.34955   0.38596   0.15235   0.00000  Uiso   1.00
H215   H     0.63297   0.48780   0.09574   0.00000  Uiso   1.00
H216   H     0.66945   0.46594   0.99205   0.00000  Uiso   1.00
H217   H     0.70391   0.47819   0.18187   0.00000  Uiso   1.00
H218   H     0.53134   0.53631   0.11137   0.00000  Uiso   1.00
H219   H     0.70082   0.41484   0.88021   0.00000  Uiso   1.00
H220   H     0.77347   0.44066   0.28047   0.00000  Uiso   1.00
H221   H     0.40956   0.56323   0.13180   0.00000  Uiso   1.00
O222   O     0.69356   0.30809   0.82271   0.00000  Uiso   1.00
O223   O     0.78887   0.34197   0.34784   0.00000  Uiso   1.00
O224   O     0.31143   0.50277   0.15279   0.00000  Uiso   1.00
N225   N     0.64991   0.28230   0.91015   0.00000  Uiso   1.00
N226   N     0.71784   0.30644   0.28436   0.00000  Uiso   1.00
N227   N     0.37762   0.42102   0.14539   0.00000  Uiso   1.00
N228   N     0.68220   0.37768   0.89909   0.00000  Uiso   1.00
N229   N     0.75014   0.40182   0.27331   0.00000  Uiso   1.00
N230   N     0.40991   0.51641   0.13433   0.00000  Uiso   1.00
C231   C     0.07894   0.82819   0.61424   0.00000  Uiso   1.00
C232   C     0.10638   0.83886   0.55529   0.00000  Uiso   1.00
C233   C     0.11147   0.79469   0.51188   0.00000  Uiso   1.00
C234   C     0.13796   0.81362   0.46110   0.00000  Uiso   1.00
C235   C     0.17746   0.82090   0.37065   0.00000  Uiso   1.00
C236   C     0.12511   0.84551   0.65842   0.00000  Uiso   1.00
C237   C     0.14595   0.80693   0.70173   0.00000  Uiso   1.00
C238   C     0.18820   0.83147   0.73777   0.00000  Uiso   1.00
C239   C     0.25675   0.84909   0.80746   0.00000  Uiso   1.00
C240   C     0.03135   0.87708   0.62011   0.00000  Uiso   1.00
C241   C     0.97334   0.86506   0.63122   0.00000  Uiso   1.00
C242   C     0.93665   0.91619   0.63502   0.00000  Uiso   1.00
C243   C     0.85961   0.98284   0.64522   0.00000  Uiso   1.00
C244   C     0.11691   0.94036   0.60124   0.00000  Uiso   1.00
C245   C     0.12701   0.89978   0.54823   0.00000  Uiso   1.00
C246   C     0.15349   0.91879   0.49750   0.00000  Uiso   1.00
C247   C     0.15862   0.87466   0.45402   0.00000  Uiso   1.00
C248   C     0.14574   0.90643   0.65136   0.00000  Uiso   1.00
C249   C     0.18796   0.93103   0.68735   0.00000  Uiso   1.00
C250   C     0.20886   0.89251   0.73070   0.00000  Uiso   1.00
C251   C     0.05197   0.93801   0.61305   0.00000  Uiso   1.00
C252   C     0.01536   0.98917   0.61683   0.00000  Uiso   1.00
C253   C     0.95731   0.97723   0.62795   0.00000  Uiso   1.00
H254   H     0.06288   0.78076   0.61974   0.00000  Uiso   1.00
H255   H     0.09551   0.74754   0.51737   0.00000  Uiso   1.00
H256   H     0.12997   0.75979   0.70719   0.00000  Uiso   1.00
H257   H     0.95740   0.81791   0.63669   0.00000  Uiso   1.00
H258   H     0.14081   0.73757   0.40076   0.00000  Uiso   1.00
H259   H     0.21346   0.76340   0.80102   0.00000  Uiso   1.00
H260   H     0.84955   0.88596   0.65235   0.00000  Uiso   1.00
H261   H     0.13297   0.98780   0.59574   0.00000  Uiso   1.00
H262   H     0.16945   0.96594   0.49205   0.00000  Uiso   1.00
H263   H     0.20391   0.97819   0.68187   0.00000  Uiso   1.00
H264   H     0.03134   0.03631   0.61137   0.00000  Uiso   1.00
H265   H     0.20082   0.91484   0.38021   0.00000  Uiso   1.00
H266   H     0.27347   0.94066   0.78047   0.00000  Uiso   1.00
H267   H     0.90956   0.06323   0.63180   0.00000  Uiso   1.00
O268   O     0.19356   0.80809   0.32271   0.00000  Uiso   1.00
O269   O     0.28887   0.84197   0.84784   0.00000  Uiso   1.00
O270   O     0.81143   0.00277   0.65279   0.00000  Uiso   1.00
N271   N     0.14991   0.78230   0.41015   0.00000  Uiso   1.00
N272   N     0.21784   0.80644   0.78436   0.00000  Uiso   1.00
N273   N     0.87762   0.92102   0.64539   0.00000  Uiso   1.00
N274   N     0.18220   0.87768   0.39909   0.00000  Uiso   1.00
N275   N     0.25014   0.90182   0.77331   0.00000  Uiso   1.00
N276   N     0.90991   0.01641   0.63433   0.00000  Uiso   1.00
C277   C     0.92106   0.67181   0.61424   0.00000  Uiso   1.00
C278   C     0.89362   0.66114   0.55529   0.00000  Uiso   1.00
C279   C     0.88853   0.70531   0.51188   0.00000  Uiso   1.00
C280   C     0.86204   0.68638   0.46110   0.00000  Uiso   1.00
C281   C     0.82254   0.67910   0.37065   0.00000  Uiso   1.00
C282   C     0.87489   0.65449   0.65842   0.00000  Uiso   1.00
C283   C     0.85405   0.69307   0.70173   0.00000  Uiso   1.00
C284   C     0.81180   0.66853   0.73777   0.00000  Uiso   1.00
C285   C     0.74325   0.65091   0.80746   0.00000  Uiso   1.00
C286   C     0.96865   0.62292   0.62011   0.00000  Uiso   1.00
C287   C     0.02666   0.63494   0.63122   0.00000  Uiso   1.00
C288   C     0.06335   0.58381   0.63502   0.00000  Uiso   1.00
C289   C     0.14039   0.51716   0.64522   0.00000  Uiso   1.00
C290   C     0.88309   0.55964   0.60124   0.00000  Uiso   1.00
C291   C     0.87299   0.60022   0.54823   0.00000  Uiso   1.00
C292   C     0.84651   0.58121   0.49750   0.00000  Uiso   1.00
C293   C     0.84138   0.62534   0.45402   0.00000  Uiso   1.00
C294   C     0.85426   0.59357   0.65136   0.00000  Uiso   1.00
C295   C     0.81204   0.56897   0.68735   0.00000  Uiso   1.00
C296   C     0.79114   0.60749   0.73070   0.00000  Uiso   1.00
C297   C     0.94803   0.56199   0.61305   0.00000  Uiso   1.00
C298   C     0.98464   0.51083   0.61683   0.00000  Uiso   1.00
C299   C     0.04269   0.52277   0.62795   0.00000  Uiso   1.00
H300   H     0.93712   0.71924   0.61974   0.00000  Uiso   1.00
H301   H     0.90449   0.75246   0.51737   0.00000  Uiso   1.00
H302   H     0.87003   0.74021   0.70719   0.00000  Uiso   1.00
H303   H     0.04260   0.68209   0.63669   0.00000  Uiso   1.00
H304   H     0.85919   0.76243   0.40076   0.00000  Uiso   1.00
H305   H     0.78654   0.73660   0.80102   0.00000  Uiso   1.00
H306   H     0.15045   0.61404   0.65235   0.00000  Uiso   1.00
H307   H     0.86703   0.51220   0.59574   0.00000  Uiso   1.00
H308   H     0.83055   0.53406   0.49205   0.00000  Uiso   1.00
H309   H     0.79609   0.52181   0.68187   0.00000  Uiso   1.00
H310   H     0.96866   0.46369   0.61137   0.00000  Uiso   1.00
H311   H     0.79918   0.58516   0.38021   0.00000  Uiso   1.00
H312   H     0.72653   0.55934   0.78047   0.00000  Uiso   1.00
H313   H     0.09044   0.43677   0.63180   0.00000  Uiso   1.00
O314   O     0.80644   0.69191   0.32271   0.00000  Uiso   1.00
O315   O     0.71113   0.65803   0.84784   0.00000  Uiso   1.00
O316   O     0.18857   0.49723   0.65279   0.00000  Uiso   1.00
N317   N     0.85009   0.71770   0.41015   0.00000  Uiso   1.00
N318   N     0.78216   0.69356   0.78436   0.00000  Uiso   1.00
N319   N     0.12238   0.57898   0.64539   0.00000  Uiso   1.00
N320   N     0.81780   0.62232   0.39909   0.00000  Uiso   1.00
N321   N     0.74986   0.59818   0.77331   0.00000  Uiso   1.00
N322   N     0.09009   0.48359   0.63433   0.00000  Uiso   1.00
C323   C     0.42106   0.17181   0.11424   0.00000  Uiso   1.00
C324   C     0.39362   0.16114   0.05529   0.00000  Uiso   1.00
C325   C     0.38853   0.20531   0.01188   0.00000  Uiso   1.00
C326   C     0.36204   0.18638   0.96110   0.00000  Uiso   1.00
C327   C     0.32254   0.17910   0.87065   0.00000  Uiso   1.00
C328   C     0.37489   0.15449   0.15842   0.00000  Uiso   1.00
C329   C     0.35405   0.19307   0.20173   0.00000  Uiso   1.00
C330   C     0.31180   0.16853   0.23777   0.00000  Uiso   1.00
C331   C     0.24325   0.15091   0.30746   0.00000  Uiso   1.00
C332   C     0.46865   0.12292   0.12011   0.00000  Uiso   1.00
C333   C     0.52666   0.13494   0.13122   0.00000  Uiso   1.00
C334   C     0.56335   0.08381   0.13502   0.00000  Uiso   1.00
C335   C     0.64039   0.01716   0.14522   0.00000  Uiso   1.00
C336   C     0.38309   0.05964   0.10124   0.00000  Uiso   1.00
C337   C     0.37299   0.10022   0.04823   0.00000  Uiso   1.00
C338   C     0.34651   0.08121   0.99750   0.00000  Uiso   1.00
C339   C     0.34138   0.12534   0.95402   0.00000  Uiso   1.00
C340   C     0.35426   0.09357   0.15136   0.00000  Uiso   1.00
C341   C     0.31204   0.06897   0.18735   0.00000  Uiso   1.00
C342   C     0.29114   0.10749   0.23070   0.00000  Uiso   1.00
C343   C     0.44803   0.06199   0.11305   0.00000  Uiso   1.00
C344   C     0.48464   0.01083   0.11683   0.00000  Uiso   1.00
C345   C     0.54269   0.02277   0.12795   0.00000  Uiso   1.00
H346   H     0.43712   0.21924   0.11974   0.00000  Uiso   1.00
H347   H     0.40449   0.25246   0.01737   0.00000  Uiso   1.00
H348   H     0.37003   0.24021   0.20719   0.00000  Uiso   1.00
H349   H     0.54260   0.18209   0.13669   0.00000  Uiso   1.00
H350   H     0.35919   0.26243   0.90076   0.00000  Uiso   1.00
H351   H     0.28654   0.23660   0.30102   0.00000  Uiso   1.00
H352   H     0.65045   0.11404   0.15235   0.00000  Uiso   1.00
H353   H     0.36703   0.01220   0.09574   0.00000  Uiso   1.00
H354   H     0.33055   0.03406   0.99205   0.00000  Uiso   1.00
H355   H     0.29609   0.02181   0.18187   0.00000  Uiso   1.00
H356   H     0.46866   0.96369   0.11137   0.00000  Uiso   1.00
H357   H     0.29918   0.08516   0.88021   0.00000  Uiso   1.00
H358   H     0.22653   0.05934   0.28047   0.00000  Uiso   1.00
H359   H     0.59044   0.93677   0.13180   0.00000  Uiso   1.00
O360   O     0.30644   0.19191   0.82271   0.00000  Uiso   1.00
O361   O     0.21113   0.15803   0.34784   0.00000  Uiso   1.00
O362   O     0.68857   0.99723   0.15279   0.00000  Uiso   1.00
N363   N     0.35009   0.21770   0.91015   0.00000  Uiso   1.00
N364   N     0.28216   0.19356   0.28436   0.00000  Uiso   1.00
N365   N     0.62238   0.07898   0.14539   0.00000  Uiso   1.00
N366   N     0.31780   0.12232   0.89909   0.00000  Uiso   1.00
N367   N     0.24986   0.09818   0.27331   0.00000  Uiso   1.00
N368   N     0.59009   0.98359   0.13433   0.00000  Uiso   1.00
C369   C     0.57894   0.17181   0.61424   0.00000  Uiso   1.00
C370   C     0.60638   0.16114   0.55529   0.00000  Uiso   1.00
C371   C     0.61147   0.20531   0.51188   0.00000  Uiso   1.00
C372   C     0.63796   0.18638   0.46110   0.00000  Uiso   1.00
C373   C     0.67746   0.17910   0.37065   0.00000  Uiso   1.00
C374   C     0.62511   0.15449   0.65842   0.00000  Uiso   1.00
C375   C     0.64595   0.19307   0.70173   0.00000  Uiso   1.00
C376   C     0.68820   0.16853   0.73777   0.00000  Uiso   1.00
C377   C     0.75675   0.15091   0.80746   0.00000  Uiso   1.00
C378   C     0.53135   0.12292   0.62011   0.00000  Uiso   1.00
C379   C     0.47334   0.13494   0.63122   0.00000  Uiso   1.00
C380   C     0.43665   0.08381   0.63502   0.00000  Uiso   1.00
C381   C     0.35961   0.01716   0.64522   0.00000  Uiso   1.00
C382   C     0.61691   0.05964   0.60124   0.00000  Uiso   1.00
C383   C     0.62701   0.10022   0.54823   0.00000  Uiso   1.00
C384   C     0.65349   0.08121   0.49750   0.00000  Uiso   1.00
C385   C     0.65862   0.12534   0.45402   0.00000  Uiso   1.00
C386   C     0.64574   0.09357   0.65136   0.00000  Uiso   1.00
C387   C     0.68796   0.06897   0.68735   0.00000  Uiso   1.00
C388   C     0.70886   0.10749   0.73070   0.00000  Uiso   1.00
C389   C     0.55197   0.06199   0.61305   0.00000  Uiso   1.00
C390   C     0.51536   0.01083   0.61683   0.00000  Uiso   1.00
C391   C     0.45731   0.02277   0.62795   0.00000  Uiso   1.00
H392   H     0.56288   0.21924   0.61974   0.00000  Uiso   1.00
H393   H     0.59551   0.25246   0.51737   0.00000  Uiso   1.00
H394   H     0.62997   0.24021   0.70719   0.00000  Uiso   1.00
H395   H     0.45740   0.18209   0.63669   0.00000  Uiso   1.00
H396   H     0.64081   0.26243   0.40076   0.00000  Uiso   1.00
H397   H     0.71346   0.23660   0.80102   0.00000  Uiso   1.00
H398   H     0.34955   0.11404   0.65235   0.00000  Uiso   1.00
H399   H     0.63297   0.01220   0.59574   0.00000  Uiso   1.00
H400   H     0.66945   0.03406   0.49205   0.00000  Uiso   1.00
H401   H     0.70391   0.02181   0.68187   0.00000  Uiso   1.00
H402   H     0.53134   0.96369   0.61137   0.00000  Uiso   1.00
H403   H     0.70082   0.08516   0.38021   0.00000  Uiso   1.00
H404   H     0.77347   0.05934   0.78047   0.00000  Uiso   1.00
H405   H     0.40956   0.93677   0.63180   0.00000  Uiso   1.00
O406   O     0.69356   0.19191   0.32271   0.00000  Uiso   1.00
O407   O     0.78887   0.15803   0.84784   0.00000  Uiso   1.00
O408   O     0.31143   0.99723   0.65279   0.00000  Uiso   1.00
N409   N     0.64991   0.21770   0.41015   0.00000  Uiso   1.00
N410   N     0.71784   0.19356   0.78436   0.00000  Uiso   1.00
N411   N     0.37762   0.07898   0.64539   0.00000  Uiso   1.00
N412   N     0.68220   0.12232   0.39909   0.00000  Uiso   1.00
N413   N     0.75014   0.09818   0.77331   0.00000  Uiso   1.00
N414   N     0.40991   0.98359   0.63433   0.00000  Uiso   1.00
C415   C     0.07894   0.67181   0.11424   0.00000  Uiso   1.00
C416   C     0.10638   0.66114   0.05529   0.00000  Uiso   1.00
C417   C     0.11147   0.70531   0.01188   0.00000  Uiso   1.00
C418   C     0.13796   0.68638   0.96110   0.00000  Uiso   1.00
C419   C     0.17746   0.67910   0.87065   0.00000  Uiso   1.00
C420   C     0.12511   0.65449   0.15842   0.00000  Uiso   1.00
C421   C     0.14595   0.69307   0.20173   0.00000  Uiso   1.00
C422   C     0.18820   0.66853   0.23777   0.00000  Uiso   1.00
C423   C     0.25675   0.65091   0.30746   0.00000  Uiso   1.00
C424   C     0.03135   0.62292   0.12011   0.00000  Uiso   1.00
C425   C     0.97334   0.63494   0.13122   0.00000  Uiso   1.00
C426   C     0.93665   0.58381   0.13502   0.00000  Uiso   1.00
C427   C     0.85961   0.51716   0.14522   0.00000  Uiso   1.00
C428   C     0.11691   0.55964   0.10124   0.00000  Uiso   1.00
C429   C     0.12701   0.60022   0.04823   0.00000  Uiso   1.00
C430   C     0.15349   0.58121   0.99750   0.00000  Uiso   1.00
C431   C     0.15862   0.62534   0.95402   0.00000  Uiso   1.00
C432   C     0.14574   0.59357   0.15136   0.00000  Uiso   1.00
C433   C     0.18796   0.56897   0.18735   0.00000  Uiso   1.00
C434   C     0.20886   0.60749   0.23070   0.00000  Uiso   1.00
C435   C     0.05197   0.56199   0.11305   0.00000  Uiso   1.00
C436   C     0.01536   0.51083   0.11683   0.00000  Uiso   1.00
C437   C     0.95731   0.52277   0.12795   0.00000  Uiso   1.00
H438   H     0.06288   0.71924   0.11974   0.00000  Uiso   1.00
H439   H     0.09551   0.75246   0.01737   0.00000  Uiso   1.00
H440   H     0.12997   0.74021   0.20719   0.00000  Uiso   1.00
H441   H     0.95740   0.68209   0.13669   0.00000  Uiso   1.00
H442   H     0.14081   0.76243   0.90076   0.00000  Uiso   1.00
H443   H     0.21346   0.73660   0.30102   0.00000  Uiso   1.00
H444   H     0.84955   0.61404   0.15235   0.00000  Uiso   1.00
H445   H     0.13297   0.51220   0.09574   0.00000  Uiso   1.00
H446   H     0.16945   0.53406   0.99205   0.00000  Uiso   1.00
H447   H     0.20391   0.52181   0.18187   0.00000  Uiso   1.00
H448   H     0.03134   0.46369   0.11137   0.00000  Uiso   1.00
H449   H     0.20082   0.58516   0.88021   0.00000  Uiso   1.00
H450   H     0.27347   0.55934   0.28047   0.00000  Uiso   1.00
H451   H     0.90956   0.43677   0.13180   0.00000  Uiso   1.00
O452   O     0.19356   0.69191   0.82271   0.00000  Uiso   1.00
O453   O     0.28887   0.65803   0.34784   0.00000  Uiso   1.00
O454   O     0.81143   0.49723   0.15279   0.00000  Uiso   1.00
N455   N     0.14991   0.71770   0.91015   0.00000  Uiso   1.00
N456   N     0.21784   0.69356   0.28436   0.00000  Uiso   1.00
N457   N     0.87762   0.57898   0.14539   0.00000  Uiso   1.00
N458   N     0.18220   0.62232   0.89909   0.00000  Uiso   1.00
N459   N     0.25014   0.59818   0.27331   0.00000  Uiso   1.00
N460   N     0.90991   0.48359   0.13433   0.00000  Uiso   1.00
C461   C     0.92106   0.82819   0.11424   0.00000  Uiso   1.00
C462   C     0.89362   0.83886   0.05529   0.00000  Uiso   1.00
C463   C     0.88853   0.79469   0.01188   0.00000  Uiso   1.00
C464   C     0.86204   0.81362   0.96110   0.00000  Uiso   1.00
C465   C     0.82254   0.82090   0.87065   0.00000  Uiso   1.00
C466   C     0.87489   0.84551   0.15842   0.00000  Uiso   1.00
C467   C     0.85405   0.80693   0.20173   0.00000  Uiso   1.00
C468   C     0.81180   0.83147   0.23777   0.00000  Uiso   1.00
C469   C     0.74325   0.84909   0.30746   0.00000  Uiso   1.00
C470   C     0.96865   0.87708   0.12011   0.00000  Uiso   1.00
C471   C     0.02666   0.86506   0.13122   0.00000  Uiso   1.00
C472   C     0.06335   0.91619   0.13502   0.00000  Uiso   1.00
C473   C     0.14039   0.98284   0.14522   0.00000  Uiso   1.00
C474   C     0.88309   0.94036   0.10124   0.00000  Uiso   1.00
C475   C     0.87299   0.89978   0.04823   0.00000  Uiso   1.00
C476   C     0.84651   0.91879   0.99750   0.00000  Uiso   1.00
C477   C     0.84138   0.87466   0.95402   0.00000  Uiso   1.00
C478   C     0.85426   0.90643   0.15136   0.00000  Uiso   1.00
C479   C     0.81204   0.93103   0.18735   0.00000  Uiso   1.00
C480   C     0.79114   0.89251   0.23070   0.00000  Uiso   1.00
C481   C     0.94803   0.93801   0.11305   0.00000  Uiso   1.00
C482   C     0.98464   0.98917   0.11683   0.00000  Uiso   1.00
C483   C     0.04269   0.97723   0.12795   0.00000  Uiso   1.00
H484   H     0.93712   0.78076   0.11974   0.00000  Uiso   1.00
H485   H     0.90449   0.74754   0.01737   0.00000  Uiso   1.00
H486   H     0.87003   0.75979   0.20719   0.00000  Uiso   1.00
H487   H     0.04260   0.81791   0.13669   0.00000  Uiso   1.00
H488   H     0.85919   0.73757   0.90076   0.00000  Uiso   1.00
H489   H     0.78654   0.76340   0.30102   0.00000  Uiso   1.00
H490   H     0.15045   0.88596   0.15235   0.00000  Uiso   1.00
H491   H     0.86703   0.98780   0.09574   0.00000  Uiso   1.00
H492   H     0.83055   0.96594   0.99205   0.00000  Uiso   1.00
H493   H     0.79609   0.97819   0.18187   0.00000  Uiso   1.00
H494   H     0.96866   0.03631   0.11137   0.00000  Uiso   1.00
H495   H     0.79918   0.91484   0.88021   0.00000  Uiso   1.00
H496   H     0.72653   0.94066   0.28047   0.00000  Uiso   1.00
H497   H     0.09044   0.06323   0.13180   0.00000  Uiso   1.00
O498   O     0.80644   0.80809   0.82271   0.00000  Uiso   1.00
O499   O     0.71113   0.84197   0.34784   0.00000  Uiso   1.00
O500   O     0.18857   0.00277   0.15279   0.00000  Uiso   1.00
N501   N     0.85009   0.78230   0.91015   0.00000  Uiso   1.00
N502   N     0.78216   0.80644   0.28436   0.00000  Uiso   1.00
N503   N     0.12238   0.92102   0.14539   0.00000  Uiso   1.00
N504   N     0.81780   0.87768   0.89909   0.00000  Uiso   1.00
N505   N     0.74986   0.90182   0.27331   0.00000  Uiso   1.00
N506   N     0.09009   0.01641   0.13433   0.00000  Uiso   1.00
C507   C     0.42106   0.32819   0.61424   0.00000  Uiso   1.00
C508   C     0.39362   0.33886   0.55529   0.00000  Uiso   1.00
C509   C     0.38853   0.29469   0.51188   0.00000  Uiso   1.00
C510   C     0.36204   0.31362   0.46110   0.00000  Uiso   1.00
C511   C     0.32254   0.32090   0.37065   0.00000  Uiso   1.00
C512   C     0.37489   0.34551   0.65842   0.00000  Uiso   1.00
C513   C     0.35405   0.30693   0.70173   0.00000  Uiso   1.00
C514   C     0.31180   0.33147   0.73777   0.00000  Uiso   1.00
C515   C     0.24325   0.34909   0.80746   0.00000  Uiso   1.00
C516   C     0.46865   0.37708   0.62011   0.00000  Uiso   1.00
C517   C     0.52666   0.36506   0.63122   0.00000  Uiso   1.00
C518   C     0.56335   0.41619   0.63502   0.00000  Uiso   1.00
C519   C     0.64039   0.48284   0.64522   0.00000  Uiso   1.00
C520   C     0.38309   0.44036   0.60124   0.00000  Uiso   1.00
C521   C     0.37299   0.39978   0.54823   0.00000  Uiso   1.00
C522   C     0.34651   0.41879   0.49750   0.00000  Uiso   1.00
C523   C     0.34138   0.37466   0.45402   0.00000  Uiso   1.00
C524   C     0.35426   0.40643   0.65136   0.00000  Uiso   1.00
C525   C     0.31204   0.43103   0.68735   0.00000  Uiso   1.00
C526   C     0.29114   0.39251   0.73070   0.00000  Uiso   1.00
C527   C     0.44803   0.43801   0.61305   0.00000  Uiso   1.00
C528   C     0.48464   0.48917   0.61683   0.00000  Uiso   1.00
C529   C     0.54269   0.47723   0.62795   0.00000  Uiso   1.00
H530   H     0.43712   0.28076   0.61974   0.00000  Uiso   1.00
H531   H     0.40449   0.24754   0.51737   0.00000  Uiso   1.00
H532   H     0.37003   0.25979   0.70719   0.00000  Uiso   1.00
H533   H     0.54260   0.31791   0.63669   0.00000  Uiso   1.00
H534   H     0.35919   0.23757   0.40076   0.00000  Uiso   1.00
H535   H     0.28654   0.26340   0.80102   0.00000  Uiso   1.00
H536   H     0.65045   0.38596   0.65235   0.00000  Uiso   1.00
H537   H     0.36703   0.48780   0.59574   0.00000  Uiso   1.00
H538   H     0.33055   0.46594   0.49205   0.00000  Uiso   1.00
H539   H     0.29609   0.47819   0.68187   0.00000  Uiso   1.00
H540   H     0.46866   0.53631   0.61137   0.00000  Uiso   1.00
H541   H     0.29918   0.41484   0.38021   0.00000  Uiso   1.00
H542   H     0.22653   0.44066   0.78047   0.00000  Uiso   1.00
H543   H     0.59044   0.56323   0.63180   0.00000  Uiso   1.00
O544   O     0.30644   0.30809   0.32271   0.00000  Uiso   1.00
O545   O     0.21113   0.34197   0.84784   0.00000  Uiso   1.00
O546   O     0.68857   0.50277   0.65279   0.00000  Uiso   1.00
N547   N     0.35009   0.28230   0.41015   0.00000  Uiso   1.00
N548   N     0.28216   0.30644   0.78436   0.00000  Uiso   1.00
N549   N     0.62238   0.42102   0.64539   0.00000  Uiso   1.00
N550   N     0.31780   0.37768   0.39909   0.00000  Uiso   1.00
N551   N     0.24986   0.40182   0.77331   0.00000  Uiso   1.00
N552   N     0.59009   0.51641   0.63433   0.00000  Uiso   1.00
C553   C     0.42106   0.67181   0.88576   0.00000  Uiso   1.00
C554   C     0.39362   0.66114   0.94471   0.00000  Uiso   1.00
C555   C     0.38853   0.70531   0.98812   0.00000  Uiso   1.00
C556   C     0.36204   0.68638   0.03890   0.00000  Uiso   1.00
C557   C     0.32254   0.67910   0.12935   0.00000  Uiso   1.00
C558   C     0.37489   0.65449   0.84158   0.00000  Uiso   1.00
C559   C     0.35405   0.69307   0.79827   0.00000  Uiso   1.00
C560   C     0.31180   0.66853   0.76223   0.00000  Uiso   1.00
C561   C     0.24325   0.65091   0.69254   0.00000  Uiso   1.00
C562   C     0.46865   0.62292   0.87989   0.00000  Uiso   1.00
C563   C     0.52666   0.63494   0.86878   0.00000  Uiso   1.00
C564   C     0.56335   0.58381   0.86498   0.00000  Uiso   1.00
C565   C     0.64039   0.51716   0.85478   0.00000  Uiso   1.00
C566   C     0.38309   0.55964   0.89876   0.00000  Uiso   1.00
C567   C     0.37299   0.60022   0.95177   0.00000  Uiso   1.00
C568   C     0.34651   0.58121   0.00250   0.00000  Uiso   1.00
C569   C     0.34138   0.62534   0.04598   0.00000  Uiso   1.00
C570   C     0.35426   0.59357   0.84864   0.00000  Uiso   1.00
C571   C     0.31204   0.56897   0.81265   0.00000  Uiso   1.00
C572   C     0.29114   0.60749   0.76930   0.00000  Uiso   1.00
C573   C     0.44803   0.56199   0.88695   0.00000  Uiso   1.00
C574   C     0.48464   0.51083   0.88317   0.00000  Uiso   1.00
C575   C     0.54269   0.52277   0.87205   0.00000  Uiso   1.00
H576   H     0.43712   0.71924   0.88026   0.00000  Uiso   1.00
H577   H     0.40449   0.75246   0.98263   0.00000  Uiso   1.00
H578   H     0.37003   0.74021   0.79281   0.00000  Uiso   1.00
H579   H     0.54260   0.68209   0.86331   0.00000  Uiso   1.00
H580   H     0.35919   0.76243   0.09924   0.00000  Uiso   1.00
H581   H     0.28654   0.73660   0.69898   0.00000  Uiso   1.00
H582   H     0.65045   0.61404   0.84765   0.00000  Uiso   1.00
H583   H     0.36703   0.51220   0.90426   0.00000  Uiso   1.00
H584   H     0.33055   0.53406   0.00795   0.00000  Uiso   1.00
H585   H     0.29609   0.52181   0.81813   0.00000  Uiso   1.00
H586   H     0.46866   0.46369   0.88863   0.00000  Uiso   1.00
H587   H     0.29918   0.58516   0.11979   0.00000  Uiso   1.00
H588   H     0.22653   0.55934   0.71953   0.00000  Uiso   1.00
H589   H     0.59044   0.43677   0.86820   0.00000  Uiso   1.00
O590   O     0.30644   0.69191   0.17729   0.00000  Uiso   1.00
O591   O     0.21113   0.65803   0.65216   0.00000  Uiso   1.00
O592   O     0.68857   0.49723   0.84721   0.00000  Uiso   1.00
N593   N     0.35009   0.71770   0.08985   0.00000  Uiso   1.00
N594   N     0.28216   0.69356   0.71564   0.00000  Uiso   1.00
N595   N     0.62238   0.57898   0.85461   0.00000  Uiso   1.00
N596   N     0.31780   0.62232   0.10091   0.00000  Uiso   1.00
N597   N     0.24986   0.59818   0.72669   0.00000  Uiso   1.00
N598   N     0.59009   0.48359   0.86567   0.00000  Uiso   1.00
C599   C     0.92106   0.17181   0.38576   0.00000  Uiso   1.00
C600   C     0.89362   0.16114   0.44471   0.00000  Uiso   1.00
C601   C     0.88853   0.20531   0.48812   0.00000  Uiso   1.00
C602   C     0.86204   0.18638   0.53890   0.00000  Uiso   1.00
C603   C     0.82254   0.17910   0.62935   0.00000  Uiso   1.00
C604   C     0.87489   0.15449   0.34158   0.00000  Uiso   1.00
C605   C     0.85405   0.19307   0.29827   0.00000  Uiso   1.00
C606   C     0.81180   0.16853   0.26223   0.00000  Uiso   1.00
C607   C     0.74325   0.15091   0.19254   0.00000  Uiso   1.00
C608   C     0.96865   0.12292   0.37989   0.00000  Uiso   1.00
C609   C     0.02666   0.13494   0.36878   0.00000  Uiso   1.00
C610   C     0.06335   0.08381   0.36498   0.00000  Uiso   1.00
C611   C     0.14039   0.01716   0.35478   0.00000  Uiso   1.00
C612   C     0.88309   0.05964   0.39876   0.00000  Uiso   1.00
C613   C     0.87299   0.10022   0.45177   0.00000  Uiso   1.00
C614   C     0.84651   0.08121   0.50250   0.00000  Uiso   1.00
C615   C     0.84138   0.12534   0.54598   0.00000  Uiso   1.00
C616   C     0.85426   0.09357   0.34864   0.00000  Uiso   1.00
C617   C     0.81204   0.06897   0.31265   0.00000  Uiso   1.00
C618   C     0.79114   0.10749   0.26930   0.00000  Uiso   1.00
C619   C     0.94803   0.06199   0.38695   0.00000  Uiso   1.00
C620   C     0.98464   0.01083   0.38317   0.00000  Uiso   1.00
C621   C     0.04269   0.02277   0.37205   0.00000  Uiso   1.00
H622   H     0.93712   0.21924   0.38026   0.00000  Uiso   1.00
H623   H     0.90449   0.25246   0.48263   0.00000  Uiso   1.00
H624   H     0.87003   0.24021   0.29281   0.00000  Uiso   1.00
H625   H     0.04260   0.18209   0.36331   0.00000  Uiso   1.00
H626   H     0.85919   0.26243   0.59924   0.00000  Uiso   1.00
H627   H     0.78654   0.23660   0.19898   0.00000  Uiso   1.00
H628   H     0.15045   0.11404   0.34765   0.00000  Uiso   1.00
H629   H     0.86703   0.01220   0.40426   0.00000  Uiso   1.00
H630   H     0.83055   0.03406   0.50795   0.00000  Uiso   1.00
H631   H     0.79609   0.02181   0.31813   0.00000  Uiso   1.00
H632   H     0.96866   0.96369   0.38863   0.00000  Uiso   1.00
H633   H     0.79918   0.08516   0.61979   0.00000  Uiso   1.00
H634   H     0.72653   0.05934   0.21953   0.00000  Uiso   1.00
H635   H     0.09044   0.93677   0.36820   0.00000  Uiso   1.00
O636   O     0.80644   0.19191   0.67729   0.00000  Uiso   1.00
O637   O     0.71113   0.15803   0.15216   0.00000  Uiso   1.00
O638   O     0.18857   0.99723   0.34721   0.00000  Uiso   1.00
N639   N     0.85009   0.21770   0.58985   0.00000  Uiso   1.00
N640   N     0.78216   0.19356   0.21564   0.00000  Uiso   1.00
N641   N     0.12238   0.07898   0.35461   0.00000  Uiso   1.00
N642   N     0.81780   0.12232   0.60091   0.00000  Uiso   1.00
N643   N     0.74986   0.09818   0.22669   0.00000  Uiso   1.00
N644   N     0.09009   0.98359   0.36567   0.00000  Uiso   1.00
C645   C     0.07894   0.32819   0.38576   0.00000  Uiso   1.00
C646   C     0.10638   0.33886   0.44471   0.00000  Uiso   1.00
C647   C     0.11147   0.29469   0.48812   0.00000  Uiso   1.00
C648   C     0.13796   0.31362   0.53890   0.00000  Uiso   1.00
C649   C     0.17746   0.32090   0.62935   0.00000  Uiso   1.00
C650   C     0.12511   0.34551   0.34158   0.00000  Uiso   1.00
C651   C     0.14595   0.30693   0.29827   0.00000  Uiso   1.00
C652   C     0.18820   0.33147   0.26223   0.00000  Uiso   1.00
C653   C     0.25675   0.34909   0.19254   0.00000  Uiso   1.00
C654   C     0.03135   0.37708   0.37989   0.00000  Uiso   1.00
C655   C     0.97334   0.36506   0.36878   0.00000  Uiso   1.00
C656   C     0.93665   0.41619   0.36498   0.00000  Uiso   1.00
C657   C     0.85961   0.48284   0.35478   0.00000  Uiso   1.00
C658   C     0.11691   0.44036   0.39876   0.00000  Uiso   1.00
C659   C     0.12701   0.39978   0.45177   0.00000  Uiso   1.00
C660   C     0.15349   0.41879   0.50250   0.00000  Uiso   1.00
C661   C     0.15862   0.37466   0.54598   0.00000  Uiso   1.00
C662   C     0.14574   0.40643   0.34864   0.00000  Uiso   1.00
C663   C     0.18796   0.43103   0.31265   0.00000  Uiso   1.00
C664   C     0.20886   0.39251   0.26930   0.00000  Uiso   1.00
C665   C     0.05197   0.43801   0.38695   0.00000  Uiso   1.00
C666   C     0.01536   0.48917   0.38317   0.00000  Uiso   1.00
C667   C     0.95731   0.47723   0.37205   0.00000  Uiso   1.00
H668   H     0.06288   0.28076   0.38026   0.00000  Uiso   1.00
H669   H     0.09551   0.24754   0.48263   0.00000  Uiso   1.00
H670   H     0.12997   0.25979   0.29281   0.00000  Uiso   1.00
H671   H     0.95740   0.31791   0.36331   0.00000  Uiso   1.00
H672   H     0.14081   0.23757   0.59924   0.00000  Uiso   1.00
H673   H     0.21346   0.26340   0.19898   0.00000  Uiso   1.00
H674   H     0.84955   0.38596   0.34765   0.00000  Uiso   1.00
H675   H     0.13297   0.48780   0.40426   0.00000  Uiso   1.00
H676   H     0.16945   0.46594   0.50795   0.00000  Uiso   1.00
H677   H     0.20391   0.47819   0.31813   0.00000  Uiso   1.00
H678   H     0.03134   0.53631   0.38863   0.00000  Uiso   1.00
H679   H     0.20082   0.41484   0.61979   0.00000  Uiso   1.00
H680   H     0.27347   0.44066   0.21953   0.00000  Uiso   1.00
H681   H     0.90956   0.56323   0.36820   0.00000  Uiso   1.00
O682   O     0.19356   0.30809   0.67729   0.00000  Uiso   1.00
O683   O     0.28887   0.34197   0.15216   0.00000  Uiso   1.00
O684   O     0.81143   0.50277   0.34721   0.00000  Uiso   1.00
N685   N     0.14991   0.28230   0.58985   0.00000  Uiso   1.00
N686   N     0.21784   0.30644   0.21564   0.00000  Uiso   1.00
N687   N     0.87762   0.42102   0.35461   0.00000  Uiso   1.00
N688   N     0.18220   0.37768   0.60091   0.00000  Uiso   1.00
N689   N     0.25014   0.40182   0.22669   0.00000  Uiso   1.00
N690   N     0.90991   0.51641   0.36567   0.00000  Uiso   1.00
C691   C     0.57894   0.82819   0.88576   0.00000  Uiso   1.00
C692   C     0.60638   0.83886   0.94471   0.00000  Uiso   1.00
C693   C     0.61147   0.79469   0.98812   0.00000  Uiso   1.00
C694   C     0.63796   0.81362   0.03890   0.00000  Uiso   1.00
C695   C     0.67746   0.82090   0.12935   0.00000  Uiso   1.00
C696   C     0.62511   0.84551   0.84158   0.00000  Uiso   1.00
C697   C     0.64595   0.80693   0.79827   0.00000  Uiso   1.00
C698   C     0.68820   0.83147   0.76223   0.00000  Uiso   1.00
C699   C     0.75675   0.84909   0.69254   0.00000  Uiso   1.00
C700   C     0.53135   0.87708   0.87989   0.00000  Uiso   1.00
C701   C     0.47334   0.86506   0.86878   0.00000  Uiso   1.00
C702   C     0.43665   0.91619   0.86498   0.00000  Uiso   1.00
C703   C     0.35961   0.98284   0.85478   0.00000  Uiso   1.00
C704   C     0.61691   0.94036   0.89876   0.00000  Uiso   1.00
C705   C     0.62701   0.89978   0.95177   0.00000  Uiso   1.00
C706   C     0.65349   0.91879   0.00250   0.00000  Uiso   1.00
C707   C     0.65862   0.87466   0.04598   0.00000  Uiso   1.00
C708   C     0.64574   0.90643   0.84864   0.00000  Uiso   1.00
C709   C     0.68796   0.93103   0.81265   0.00000  Uiso   1.00
C710   C     0.70886   0.89251   0.76930   0.00000  Uiso   1.00
C711   C     0.55197   0.93801   0.88695   0.00000  Uiso   1.00
C712   C     0.51536   0.98917   0.88317   0.00000  Uiso   1.00
C713   C     0.45731   0.97723   0.87205   0.00000  Uiso   1.00
H714   H     0.56288   0.78076   0.88026   0.00000  Uiso   1.00
H715   H     0.59551   0.74754   0.98263   0.00000  Uiso   1.00
H716   H     0.62997   0.75979   0.79281   0.00000  Uiso   1.00
H717   H     0.45740   0.81791   0.86331   0.00000  Uiso   1.00
H718   H     0.64081   0.73757   0.09924   0.00000  Uiso   1.00
H719   H     0.71346   0.76340   0.69898   0.00000  Uiso   1.00
H720   H     0.34955   0.88596   0.84765   0.00000  Uiso   1.00
H721   H     0.63297   0.98780   0.90426   0.00000  Uiso   1.00
H722   H     0.66945   0.96594   0.00795   0.00000  Uiso   1.00
H723   H     0.70391   0.97819   0.81813   0.00000  Uiso   1.00
H724   H     0.53134   0.03631   0.88863   0.00000  Uiso   1.00
H725   H     0.70082   0.91484   0.11979   0.00000  Uiso   1.00
H726   H     0.77347   0.94066   0.71953   0.00000  Uiso   1.00
H727   H     0.40956   0.06323   0.86820   0.00000  Uiso   1.00
O728   O     0.69356   0.80809   0.17729   0.00000  Uiso   1.00
O729   O     0.78887   0.84197   0.65216   0.00000  Uiso   1.00
O730   O     0.31143   0.00277   0.84721   0.00000  Uiso   1.00
N731   N     0.64991   0.78230   0.08985   0.00000  Uiso   1.00
N732   N     0.71784   0.80644   0.71564   0.00000  Uiso   1.00
N733   N     0.37762   0.92102   0.85461   0.00000  Uiso   1.00
N734   N     0.68220   0.87768   0.10091   0.00000  Uiso   1.00
N735   N     0.75014   0.90182   0.72669   0.00000  Uiso   1.00
N736   N     0.40991   0.01641   0.86567   0.00000  Uiso   1.00
