data_job_00928
_audit_creation_date              2018-12-19
_audit_creation_method            'Materials Studio'
_symmetry_space_group_name_H-M    'P1'
_symmetry_Int_Tables_number       1
_symmetry_cell_setting            triclinic
loop_
_symmetry_equiv_pos_as_xyz
  x,y,z
_cell_length_a                    43.5259
_cell_length_b                    12.3783
_cell_length_c                    18.8239
_cell_angle_alpha                 90.0000
_cell_angle_beta                  90.0000
_cell_angle_gamma                 90.0000
loop_
_atom_site_label
_atom_site_type_symbol
_atom_site_fract_x
_atom_site_fract_y
_atom_site_fract_z
_atom_site_U_iso_or_equiv
_atom_site_adp_type
_atom_site_occupancy
C1     C     0.70922   0.52446   0.37638   0.00000  Uiso   1.00
C2     C     0.69530   0.63450   0.39340   0.00000  Uiso   1.00
C3     C     0.70312   0.69955   0.45066   0.00000  Uiso   1.00
C4     C     0.68773   0.79734   0.45695   0.00000  Uiso   1.00
C5     C     0.66951   0.96339   0.49090   0.00000  Uiso   1.00
C6     C     0.68234   0.44565   0.37267   0.00000  Uiso   1.00
C7     C     0.67927   0.35190   0.41248   0.00000  Uiso   1.00
C8     C     0.65298   0.29070   0.40131   0.00000  Uiso   1.00
C9     C     0.61465   0.16351   0.40302   0.00000  Uiso   1.00
C10    C     0.72176   0.53296   0.30095   0.00000  Uiso   1.00
C11    C     0.75184   0.51260   0.28045   0.00000  Uiso   1.00
C12    C     0.75874   0.52489   0.20889   0.00000  Uiso   1.00
C13    C     0.78162   0.53327   0.09925   0.00000  Uiso   1.00
C14    C     0.66799   0.58245   0.28573   0.00000  Uiso   1.00
C15    C     0.67290   0.66600   0.34417   0.00000  Uiso   1.00
C16    C     0.65750   0.76371   0.35037   0.00000  Uiso   1.00
C17    C     0.66530   0.82890   0.40763   0.00000  Uiso   1.00
C18    C     0.65994   0.47714   0.32343   0.00000  Uiso   1.00
C19    C     0.63365   0.41606   0.31219   0.00000  Uiso   1.00
C20    C     0.63054   0.32226   0.35198   0.00000  Uiso   1.00
C21    C     0.69937   0.56446   0.25171   0.00000  Uiso   1.00
C22    C     0.70622   0.57677   0.18016   0.00000  Uiso   1.00
C23    C     0.73630   0.55644   0.15957   0.00000  Uiso   1.00
H24    H     0.72665   0.49993   0.41471   0.00000  Uiso   1.00
H25    H     0.72045   0.67514   0.48875   0.00000  Uiso   1.00
H26    H     0.69661   0.32754   0.45057   0.00000  Uiso   1.00
H27    H     0.76916   0.48823   0.31857   0.00000  Uiso   1.00
H28    H     0.70369   0.88327   0.54915   0.00000  Uiso   1.00
H29    H     0.65342   0.15032   0.46863   0.00000  Uiso   1.00
H30    H     0.80642   0.48915   0.19027   0.00000  Uiso   1.00
H31    H     0.65055   0.60697   0.24740   0.00000  Uiso   1.00
H32    H     0.64017   0.78807   0.31226   0.00000  Uiso   1.00
H33    H     0.61633   0.44046   0.27408   0.00000  Uiso   1.00
H34    H     0.68888   0.60115   0.14208   0.00000  Uiso   1.00
H35    H     0.63853   0.97492   0.40591   0.00000  Uiso   1.00
H36    H     0.58826   0.24196   0.32538   0.00000  Uiso   1.00
H37    H     0.74126   0.58080   0.04702   0.00000  Uiso   1.00
O38    O     0.66564   0.04628   0.52323   0.00000  Uiso   1.00
O39    O     0.59970   0.08466   0.41758   0.00000  Uiso   1.00
O40    O     0.80043   0.52921   0.05238   0.00000  Uiso   1.00
N41    N     0.68978   0.88000   0.50653   0.00000  Uiso   1.00
N42    N     0.64278   0.19474   0.43125   0.00000  Uiso   1.00
N43    N     0.78582   0.51149   0.17100   0.00000  Uiso   1.00
N44    N     0.65472   0.92931   0.42945   0.00000  Uiso   1.00
N45    N     0.60772   0.24406   0.35417   0.00000  Uiso   1.00
N46    N     0.75076   0.56081   0.09393   0.00000  Uiso   1.00
C47    C     0.70922   0.02446   0.87638   0.00000  Uiso   1.00
C48    C     0.69530   0.13450   0.89340   0.00000  Uiso   1.00
C49    C     0.70312   0.19955   0.95066   0.00000  Uiso   1.00
C50    C     0.68773   0.29734   0.95695   0.00000  Uiso   1.00
C51    C     0.66951   0.46339   0.99090   0.00000  Uiso   1.00
C52    C     0.68234   0.94565   0.87267   0.00000  Uiso   1.00
C53    C     0.67927   0.85190   0.91248   0.00000  Uiso   1.00
C54    C     0.65298   0.79070   0.90131   0.00000  Uiso   1.00
C55    C     0.61465   0.66351   0.90302   0.00000  Uiso   1.00
C56    C     0.72176   0.03296   0.80095   0.00000  Uiso   1.00
C57    C     0.75184   0.01260   0.78045   0.00000  Uiso   1.00
C58    C     0.75874   0.02489   0.70889   0.00000  Uiso   1.00
C59    C     0.78162   0.03327   0.59925   0.00000  Uiso   1.00
C60    C     0.66799   0.08245   0.78573   0.00000  Uiso   1.00
C61    C     0.67290   0.16600   0.84417   0.00000  Uiso   1.00
C62    C     0.65750   0.26371   0.85037   0.00000  Uiso   1.00
C63    C     0.66530   0.32890   0.90763   0.00000  Uiso   1.00
C64    C     0.65994   0.97714   0.82343   0.00000  Uiso   1.00
C65    C     0.63365   0.91606   0.81219   0.00000  Uiso   1.00
C66    C     0.63054   0.82226   0.85198   0.00000  Uiso   1.00
C67    C     0.69937   0.06446   0.75171   0.00000  Uiso   1.00
C68    C     0.70622   0.07677   0.68016   0.00000  Uiso   1.00
C69    C     0.73630   0.05644   0.65957   0.00000  Uiso   1.00
H70    H     0.72665   0.99993   0.91471   0.00000  Uiso   1.00
H71    H     0.72045   0.17514   0.98875   0.00000  Uiso   1.00
H72    H     0.69661   0.82754   0.95057   0.00000  Uiso   1.00
H73    H     0.76916   0.98823   0.81857   0.00000  Uiso   1.00
H74    H     0.70369   0.38327   0.04915   0.00000  Uiso   1.00
H75    H     0.65342   0.65032   0.96863   0.00000  Uiso   1.00
H76    H     0.80642   0.98915   0.69027   0.00000  Uiso   1.00
H77    H     0.65055   0.10697   0.74740   0.00000  Uiso   1.00
H78    H     0.64017   0.28807   0.81226   0.00000  Uiso   1.00
H79    H     0.61633   0.94046   0.77408   0.00000  Uiso   1.00
H80    H     0.68888   0.10115   0.64208   0.00000  Uiso   1.00
H81    H     0.63853   0.47492   0.90591   0.00000  Uiso   1.00
H82    H     0.58826   0.74196   0.82538   0.00000  Uiso   1.00
H83    H     0.74126   0.08080   0.54702   0.00000  Uiso   1.00
O84    O     0.66564   0.54628   0.02323   0.00000  Uiso   1.00
O85    O     0.59970   0.58466   0.91758   0.00000  Uiso   1.00
O86    O     0.80043   0.02921   0.55238   0.00000  Uiso   1.00
N87    N     0.68978   0.38000   0.00653   0.00000  Uiso   1.00
N88    N     0.64278   0.69474   0.93125   0.00000  Uiso   1.00
N89    N     0.78582   0.01149   0.67100   0.00000  Uiso   1.00
N90    N     0.65472   0.42931   0.92945   0.00000  Uiso   1.00
N91    N     0.60772   0.74406   0.85417   0.00000  Uiso   1.00
N92    N     0.75076   0.06081   0.59393   0.00000  Uiso   1.00
C93    C     0.20922   0.52446   0.87638   0.00000  Uiso   1.00
C94    C     0.19530   0.63450   0.89340   0.00000  Uiso   1.00
C95    C     0.20312   0.69955   0.95066   0.00000  Uiso   1.00
C96    C     0.18773   0.79734   0.95695   0.00000  Uiso   1.00
C97    C     0.16951   0.96339   0.99090   0.00000  Uiso   1.00
C98    C     0.18234   0.44565   0.87267   0.00000  Uiso   1.00
C99    C     0.17927   0.35190   0.91248   0.00000  Uiso   1.00
C100   C     0.15298   0.29070   0.90131   0.00000  Uiso   1.00
C101   C     0.11465   0.16351   0.90302   0.00000  Uiso   1.00
C102   C     0.22176   0.53296   0.80095   0.00000  Uiso   1.00
C103   C     0.25184   0.51260   0.78045   0.00000  Uiso   1.00
C104   C     0.25874   0.52489   0.70889   0.00000  Uiso   1.00
C105   C     0.28162   0.53327   0.59925   0.00000  Uiso   1.00
C106   C     0.16799   0.58245   0.78573   0.00000  Uiso   1.00
C107   C     0.17290   0.66600   0.84417   0.00000  Uiso   1.00
C108   C     0.15750   0.76371   0.85037   0.00000  Uiso   1.00
C109   C     0.16530   0.82890   0.90763   0.00000  Uiso   1.00
C110   C     0.15994   0.47714   0.82343   0.00000  Uiso   1.00
C111   C     0.13365   0.41606   0.81219   0.00000  Uiso   1.00
C112   C     0.13054   0.32226   0.85198   0.00000  Uiso   1.00
C113   C     0.19937   0.56446   0.75171   0.00000  Uiso   1.00
C114   C     0.20622   0.57677   0.68016   0.00000  Uiso   1.00
C115   C     0.23630   0.55644   0.65957   0.00000  Uiso   1.00
H116   H     0.22665   0.49993   0.91471   0.00000  Uiso   1.00
H117   H     0.22045   0.67514   0.98875   0.00000  Uiso   1.00
H118   H     0.19661   0.32754   0.95057   0.00000  Uiso   1.00
H119   H     0.26916   0.48823   0.81857   0.00000  Uiso   1.00
H120   H     0.20369   0.88327   0.04915   0.00000  Uiso   1.00
H121   H     0.15342   0.15032   0.96863   0.00000  Uiso   1.00
H122   H     0.30642   0.48915   0.69027   0.00000  Uiso   1.00
H123   H     0.15055   0.60697   0.74740   0.00000  Uiso   1.00
H124   H     0.14017   0.78807   0.81226   0.00000  Uiso   1.00
H125   H     0.11633   0.44046   0.77408   0.00000  Uiso   1.00
H126   H     0.18888   0.60115   0.64208   0.00000  Uiso   1.00
H127   H     0.13853   0.97492   0.90591   0.00000  Uiso   1.00
H128   H     0.08826   0.24196   0.82538   0.00000  Uiso   1.00
H129   H     0.24126   0.58080   0.54702   0.00000  Uiso   1.00
O130   O     0.16564   0.04628   0.02323   0.00000  Uiso   1.00
O131   O     0.09970   0.08466   0.91758   0.00000  Uiso   1.00
O132   O     0.30043   0.52921   0.55238   0.00000  Uiso   1.00
N133   N     0.18978   0.88000   0.00653   0.00000  Uiso   1.00
N134   N     0.14278   0.19474   0.93125   0.00000  Uiso   1.00
N135   N     0.28582   0.51149   0.67100   0.00000  Uiso   1.00
N136   N     0.15472   0.92931   0.92945   0.00000  Uiso   1.00
N137   N     0.10772   0.24406   0.85417   0.00000  Uiso   1.00
N138   N     0.25076   0.56081   0.59393   0.00000  Uiso   1.00
C139   C     0.20922   0.02446   0.37638   0.00000  Uiso   1.00
C140   C     0.19530   0.13450   0.39340   0.00000  Uiso   1.00
C141   C     0.20312   0.19955   0.45066   0.00000  Uiso   1.00
C142   C     0.18773   0.29734   0.45695   0.00000  Uiso   1.00
C143   C     0.16951   0.46339   0.49090   0.00000  Uiso   1.00
C144   C     0.18234   0.94565   0.37267   0.00000  Uiso   1.00
C145   C     0.17927   0.85190   0.41248   0.00000  Uiso   1.00
C146   C     0.15298   0.79070   0.40131   0.00000  Uiso   1.00
C147   C     0.11465   0.66351   0.40302   0.00000  Uiso   1.00
C148   C     0.22176   0.03296   0.30095   0.00000  Uiso   1.00
C149   C     0.25184   0.01260   0.28045   0.00000  Uiso   1.00
C150   C     0.25874   0.02489   0.20889   0.00000  Uiso   1.00
C151   C     0.28162   0.03327   0.09925   0.00000  Uiso   1.00
C152   C     0.16799   0.08245   0.28573   0.00000  Uiso   1.00
C153   C     0.17290   0.16600   0.34417   0.00000  Uiso   1.00
C154   C     0.15750   0.26371   0.35037   0.00000  Uiso   1.00
C155   C     0.16530   0.32890   0.40763   0.00000  Uiso   1.00
C156   C     0.15994   0.97714   0.32343   0.00000  Uiso   1.00
C157   C     0.13365   0.91606   0.31219   0.00000  Uiso   1.00
C158   C     0.13054   0.82226   0.35198   0.00000  Uiso   1.00
C159   C     0.19937   0.06446   0.25171   0.00000  Uiso   1.00
C160   C     0.20622   0.07677   0.18016   0.00000  Uiso   1.00
C161   C     0.23630   0.05644   0.15957   0.00000  Uiso   1.00
H162   H     0.22665   0.99993   0.41471   0.00000  Uiso   1.00
H163   H     0.22045   0.17514   0.48875   0.00000  Uiso   1.00
H164   H     0.19661   0.82754   0.45057   0.00000  Uiso   1.00
H165   H     0.26916   0.98823   0.31857   0.00000  Uiso   1.00
H166   H     0.20369   0.38327   0.54915   0.00000  Uiso   1.00
H167   H     0.15342   0.65032   0.46863   0.00000  Uiso   1.00
H168   H     0.30642   0.98915   0.19027   0.00000  Uiso   1.00
H169   H     0.15055   0.10697   0.24740   0.00000  Uiso   1.00
H170   H     0.14017   0.28807   0.31226   0.00000  Uiso   1.00
H171   H     0.11633   0.94046   0.27408   0.00000  Uiso   1.00
H172   H     0.18888   0.10115   0.14208   0.00000  Uiso   1.00
H173   H     0.13853   0.47492   0.40591   0.00000  Uiso   1.00
H174   H     0.08826   0.74196   0.32538   0.00000  Uiso   1.00
H175   H     0.24126   0.08080   0.04702   0.00000  Uiso   1.00
O176   O     0.16564   0.54628   0.52323   0.00000  Uiso   1.00
O177   O     0.09970   0.58466   0.41758   0.00000  Uiso   1.00
O178   O     0.30043   0.02921   0.05238   0.00000  Uiso   1.00
N179   N     0.18978   0.38000   0.50653   0.00000  Uiso   1.00
N180   N     0.14278   0.69474   0.43125   0.00000  Uiso   1.00
N181   N     0.28582   0.01149   0.17100   0.00000  Uiso   1.00
N182   N     0.15472   0.42931   0.42945   0.00000  Uiso   1.00
N183   N     0.10772   0.74406   0.35417   0.00000  Uiso   1.00
N184   N     0.25076   0.06081   0.09393   0.00000  Uiso   1.00
C185   C     0.29078   0.47554   0.37638   0.00000  Uiso   1.00
C186   C     0.30470   0.36550   0.39340   0.00000  Uiso   1.00
C187   C     0.29688   0.30045   0.45066   0.00000  Uiso   1.00
C188   C     0.31227   0.20266   0.45695   0.00000  Uiso   1.00
C189   C     0.33049   0.03661   0.49090   0.00000  Uiso   1.00
C190   C     0.31766   0.55435   0.37267   0.00000  Uiso   1.00
C191   C     0.32073   0.64810   0.41248   0.00000  Uiso   1.00
C192   C     0.34702   0.70930   0.40131   0.00000  Uiso   1.00
C193   C     0.38535   0.83649   0.40302   0.00000  Uiso   1.00
C194   C     0.27824   0.46704   0.30095   0.00000  Uiso   1.00
C195   C     0.24816   0.48740   0.28045   0.00000  Uiso   1.00
C196   C     0.24126   0.47511   0.20889   0.00000  Uiso   1.00
C197   C     0.21838   0.46673   0.09925   0.00000  Uiso   1.00
C198   C     0.33201   0.41755   0.28573   0.00000  Uiso   1.00
C199   C     0.32710   0.33400   0.34417   0.00000  Uiso   1.00
C200   C     0.34250   0.23629   0.35037   0.00000  Uiso   1.00
C201   C     0.33470   0.17110   0.40763   0.00000  Uiso   1.00
C202   C     0.34006   0.52286   0.32343   0.00000  Uiso   1.00
C203   C     0.36635   0.58394   0.31219   0.00000  Uiso   1.00
C204   C     0.36946   0.67774   0.35198   0.00000  Uiso   1.00
C205   C     0.30063   0.43554   0.25171   0.00000  Uiso   1.00
C206   C     0.29378   0.42323   0.18016   0.00000  Uiso   1.00
C207   C     0.26370   0.44356   0.15957   0.00000  Uiso   1.00
H208   H     0.27335   0.50007   0.41471   0.00000  Uiso   1.00
H209   H     0.27955   0.32486   0.48875   0.00000  Uiso   1.00
H210   H     0.30339   0.67246   0.45057   0.00000  Uiso   1.00
H211   H     0.23084   0.51177   0.31857   0.00000  Uiso   1.00
H212   H     0.29631   0.11673   0.54915   0.00000  Uiso   1.00
H213   H     0.34658   0.84968   0.46863   0.00000  Uiso   1.00
H214   H     0.19358   0.51085   0.19027   0.00000  Uiso   1.00
H215   H     0.34945   0.39303   0.24740   0.00000  Uiso   1.00
H216   H     0.35983   0.21193   0.31226   0.00000  Uiso   1.00
H217   H     0.38367   0.55954   0.27408   0.00000  Uiso   1.00
H218   H     0.31112   0.39885   0.14208   0.00000  Uiso   1.00
H219   H     0.36147   0.02508   0.40591   0.00000  Uiso   1.00
H220   H     0.41174   0.75804   0.32538   0.00000  Uiso   1.00
H221   H     0.25874   0.41920   0.04702   0.00000  Uiso   1.00
O222   O     0.33436   0.95372   0.52323   0.00000  Uiso   1.00
O223   O     0.40030   0.91534   0.41758   0.00000  Uiso   1.00
O224   O     0.19957   0.47079   0.05238   0.00000  Uiso   1.00
N225   N     0.31022   0.12000   0.50653   0.00000  Uiso   1.00
N226   N     0.35722   0.80526   0.43125   0.00000  Uiso   1.00
N227   N     0.21418   0.48851   0.17100   0.00000  Uiso   1.00
N228   N     0.34528   0.07069   0.42945   0.00000  Uiso   1.00
N229   N     0.39228   0.75594   0.35417   0.00000  Uiso   1.00
N230   N     0.24924   0.43919   0.09393   0.00000  Uiso   1.00
C231   C     0.29078   0.97554   0.87638   0.00000  Uiso   1.00
C232   C     0.30470   0.86550   0.89340   0.00000  Uiso   1.00
C233   C     0.29688   0.80045   0.95066   0.00000  Uiso   1.00
C234   C     0.31227   0.70266   0.95695   0.00000  Uiso   1.00
C235   C     0.33049   0.53661   0.99090   0.00000  Uiso   1.00
C236   C     0.31766   0.05435   0.87267   0.00000  Uiso   1.00
C237   C     0.32073   0.14810   0.91248   0.00000  Uiso   1.00
C238   C     0.34702   0.20930   0.90131   0.00000  Uiso   1.00
C239   C     0.38535   0.33649   0.90302   0.00000  Uiso   1.00
C240   C     0.27824   0.96704   0.80095   0.00000  Uiso   1.00
C241   C     0.24816   0.98740   0.78045   0.00000  Uiso   1.00
C242   C     0.24126   0.97511   0.70889   0.00000  Uiso   1.00
C243   C     0.21838   0.96673   0.59925   0.00000  Uiso   1.00
C244   C     0.33201   0.91755   0.78573   0.00000  Uiso   1.00
C245   C     0.32710   0.83400   0.84417   0.00000  Uiso   1.00
C246   C     0.34250   0.73629   0.85037   0.00000  Uiso   1.00
C247   C     0.33470   0.67110   0.90763   0.00000  Uiso   1.00
C248   C     0.34006   0.02286   0.82343   0.00000  Uiso   1.00
C249   C     0.36635   0.08394   0.81219   0.00000  Uiso   1.00
C250   C     0.36946   0.17774   0.85198   0.00000  Uiso   1.00
C251   C     0.30063   0.93554   0.75171   0.00000  Uiso   1.00
C252   C     0.29378   0.92323   0.68016   0.00000  Uiso   1.00
C253   C     0.26370   0.94356   0.65957   0.00000  Uiso   1.00
H254   H     0.27335   0.00007   0.91471   0.00000  Uiso   1.00
H255   H     0.27955   0.82486   0.98875   0.00000  Uiso   1.00
H256   H     0.30339   0.17246   0.95057   0.00000  Uiso   1.00
H257   H     0.23084   0.01177   0.81857   0.00000  Uiso   1.00
H258   H     0.29631   0.61673   0.04915   0.00000  Uiso   1.00
H259   H     0.34658   0.34968   0.96863   0.00000  Uiso   1.00
H260   H     0.19358   0.01085   0.69027   0.00000  Uiso   1.00
H261   H     0.34945   0.89303   0.74740   0.00000  Uiso   1.00
H262   H     0.35983   0.71193   0.81226   0.00000  Uiso   1.00
H263   H     0.38367   0.05954   0.77408   0.00000  Uiso   1.00
H264   H     0.31112   0.89885   0.64208   0.00000  Uiso   1.00
H265   H     0.36147   0.52508   0.90591   0.00000  Uiso   1.00
H266   H     0.41174   0.25804   0.82538   0.00000  Uiso   1.00
H267   H     0.25874   0.91920   0.54702   0.00000  Uiso   1.00
O268   O     0.33436   0.45372   0.02323   0.00000  Uiso   1.00
O269   O     0.40030   0.41534   0.91758   0.00000  Uiso   1.00
O270   O     0.19957   0.97079   0.55238   0.00000  Uiso   1.00
N271   N     0.31022   0.62000   0.00653   0.00000  Uiso   1.00
N272   N     0.35722   0.30526   0.93125   0.00000  Uiso   1.00
N273   N     0.21418   0.98851   0.67100   0.00000  Uiso   1.00
N274   N     0.34528   0.57069   0.92945   0.00000  Uiso   1.00
N275   N     0.39228   0.25594   0.85417   0.00000  Uiso   1.00
N276   N     0.24924   0.93919   0.59393   0.00000  Uiso   1.00
C277   C     0.79078   0.47554   0.87638   0.00000  Uiso   1.00
C278   C     0.80470   0.36550   0.89340   0.00000  Uiso   1.00
C279   C     0.79688   0.30045   0.95066   0.00000  Uiso   1.00
C280   C     0.81227   0.20266   0.95695   0.00000  Uiso   1.00
C281   C     0.83049   0.03661   0.99090   0.00000  Uiso   1.00
C282   C     0.81766   0.55435   0.87267   0.00000  Uiso   1.00
C283   C     0.82073   0.64810   0.91248   0.00000  Uiso   1.00
C284   C     0.84702   0.70930   0.90131   0.00000  Uiso   1.00
C285   C     0.88535   0.83649   0.90302   0.00000  Uiso   1.00
C286   C     0.77824   0.46704   0.80095   0.00000  Uiso   1.00
C287   C     0.74816   0.48740   0.78045   0.00000  Uiso   1.00
C288   C     0.74126   0.47511   0.70889   0.00000  Uiso   1.00
C289   C     0.71838   0.46673   0.59925   0.00000  Uiso   1.00
C290   C     0.83201   0.41755   0.78573   0.00000  Uiso   1.00
C291   C     0.82710   0.33400   0.84417   0.00000  Uiso   1.00
C292   C     0.84250   0.23629   0.85037   0.00000  Uiso   1.00
C293   C     0.83470   0.17110   0.90763   0.00000  Uiso   1.00
C294   C     0.84006   0.52286   0.82343   0.00000  Uiso   1.00
C295   C     0.86635   0.58394   0.81219   0.00000  Uiso   1.00
C296   C     0.86946   0.67774   0.85198   0.00000  Uiso   1.00
C297   C     0.80063   0.43554   0.75171   0.00000  Uiso   1.00
C298   C     0.79378   0.42323   0.68016   0.00000  Uiso   1.00
C299   C     0.76370   0.44356   0.65957   0.00000  Uiso   1.00
H300   H     0.77335   0.50007   0.91471   0.00000  Uiso   1.00
H301   H     0.77955   0.32486   0.98875   0.00000  Uiso   1.00
H302   H     0.80339   0.67246   0.95057   0.00000  Uiso   1.00
H303   H     0.73084   0.51177   0.81857   0.00000  Uiso   1.00
H304   H     0.79631   0.11673   0.04915   0.00000  Uiso   1.00
H305   H     0.84658   0.84968   0.96863   0.00000  Uiso   1.00
H306   H     0.69358   0.51085   0.69027   0.00000  Uiso   1.00
H307   H     0.84945   0.39303   0.74740   0.00000  Uiso   1.00
H308   H     0.85983   0.21193   0.81226   0.00000  Uiso   1.00
H309   H     0.88367   0.55954   0.77408   0.00000  Uiso   1.00
H310   H     0.81112   0.39885   0.64208   0.00000  Uiso   1.00
H311   H     0.86147   0.02508   0.90591   0.00000  Uiso   1.00
H312   H     0.91174   0.75804   0.82538   0.00000  Uiso   1.00
H313   H     0.75874   0.41920   0.54702   0.00000  Uiso   1.00
O314   O     0.83436   0.95372   0.02323   0.00000  Uiso   1.00
O315   O     0.90030   0.91534   0.91758   0.00000  Uiso   1.00
O316   O     0.69957   0.47079   0.55238   0.00000  Uiso   1.00
N317   N     0.81022   0.12000   0.00653   0.00000  Uiso   1.00
N318   N     0.85722   0.80526   0.93125   0.00000  Uiso   1.00
N319   N     0.71418   0.48851   0.67100   0.00000  Uiso   1.00
N320   N     0.84528   0.07069   0.92945   0.00000  Uiso   1.00
N321   N     0.89228   0.75594   0.85417   0.00000  Uiso   1.00
N322   N     0.74924   0.43919   0.59393   0.00000  Uiso   1.00
C323   C     0.79078   0.97554   0.37638   0.00000  Uiso   1.00
C324   C     0.80470   0.86550   0.39340   0.00000  Uiso   1.00
C325   C     0.79688   0.80045   0.45066   0.00000  Uiso   1.00
C326   C     0.81227   0.70266   0.45695   0.00000  Uiso   1.00
C327   C     0.83049   0.53661   0.49090   0.00000  Uiso   1.00
C328   C     0.81766   0.05435   0.37267   0.00000  Uiso   1.00
C329   C     0.82073   0.14810   0.41248   0.00000  Uiso   1.00
C330   C     0.84702   0.20930   0.40131   0.00000  Uiso   1.00
C331   C     0.88535   0.33649   0.40302   0.00000  Uiso   1.00
C332   C     0.77824   0.96704   0.30095   0.00000  Uiso   1.00
C333   C     0.74816   0.98740   0.28045   0.00000  Uiso   1.00
C334   C     0.74126   0.97511   0.20889   0.00000  Uiso   1.00
C335   C     0.71838   0.96673   0.09925   0.00000  Uiso   1.00
C336   C     0.83201   0.91755   0.28573   0.00000  Uiso   1.00
C337   C     0.82710   0.83400   0.34417   0.00000  Uiso   1.00
C338   C     0.84250   0.73629   0.35037   0.00000  Uiso   1.00
C339   C     0.83470   0.67110   0.40763   0.00000  Uiso   1.00
C340   C     0.84006   0.02286   0.32343   0.00000  Uiso   1.00
C341   C     0.86635   0.08394   0.31219   0.00000  Uiso   1.00
C342   C     0.86946   0.17774   0.35198   0.00000  Uiso   1.00
C343   C     0.80063   0.93554   0.25171   0.00000  Uiso   1.00
C344   C     0.79378   0.92323   0.18016   0.00000  Uiso   1.00
C345   C     0.76370   0.94356   0.15957   0.00000  Uiso   1.00
H346   H     0.77335   0.00007   0.41471   0.00000  Uiso   1.00
H347   H     0.77955   0.82486   0.48875   0.00000  Uiso   1.00
H348   H     0.80339   0.17246   0.45057   0.00000  Uiso   1.00
H349   H     0.73084   0.01177   0.31857   0.00000  Uiso   1.00
H350   H     0.79631   0.61673   0.54915   0.00000  Uiso   1.00
H351   H     0.84658   0.34968   0.46863   0.00000  Uiso   1.00
H352   H     0.69358   0.01085   0.19027   0.00000  Uiso   1.00
H353   H     0.84945   0.89303   0.24740   0.00000  Uiso   1.00
H354   H     0.85983   0.71193   0.31226   0.00000  Uiso   1.00
H355   H     0.88367   0.05954   0.27408   0.00000  Uiso   1.00
H356   H     0.81112   0.89885   0.14208   0.00000  Uiso   1.00
H357   H     0.86147   0.52508   0.40591   0.00000  Uiso   1.00
H358   H     0.91174   0.25804   0.32538   0.00000  Uiso   1.00
H359   H     0.75874   0.91920   0.04702   0.00000  Uiso   1.00
O360   O     0.83436   0.45372   0.52323   0.00000  Uiso   1.00
O361   O     0.90030   0.41534   0.41758   0.00000  Uiso   1.00
O362   O     0.69957   0.97079   0.05238   0.00000  Uiso   1.00
N363   N     0.81022   0.62000   0.50653   0.00000  Uiso   1.00
N364   N     0.85722   0.30526   0.43125   0.00000  Uiso   1.00
N365   N     0.71418   0.98851   0.17100   0.00000  Uiso   1.00
N366   N     0.84528   0.57069   0.42945   0.00000  Uiso   1.00
N367   N     0.89228   0.25594   0.35417   0.00000  Uiso   1.00
N368   N     0.74924   0.93919   0.09393   0.00000  Uiso   1.00
C369   C     0.95922   0.72554   0.62638   0.00000  Uiso   1.00
C370   C     0.94530   0.61550   0.64340   0.00000  Uiso   1.00
C371   C     0.95312   0.55045   0.70066   0.00000  Uiso   1.00
C372   C     0.93773   0.45266   0.70695   0.00000  Uiso   1.00
C373   C     0.91951   0.28661   0.74090   0.00000  Uiso   1.00
C374   C     0.93234   0.80435   0.62267   0.00000  Uiso   1.00
C375   C     0.92927   0.89810   0.66248   0.00000  Uiso   1.00
C376   C     0.90298   0.95930   0.65131   0.00000  Uiso   1.00
C377   C     0.86465   0.08649   0.65302   0.00000  Uiso   1.00
C378   C     0.97176   0.71704   0.55095   0.00000  Uiso   1.00
C379   C     0.00184   0.73740   0.53045   0.00000  Uiso   1.00
C380   C     0.00874   0.72511   0.45889   0.00000  Uiso   1.00
C381   C     0.03162   0.71673   0.34925   0.00000  Uiso   1.00
C382   C     0.91799   0.66755   0.53573   0.00000  Uiso   1.00
C383   C     0.92290   0.58400   0.59417   0.00000  Uiso   1.00
C384   C     0.90750   0.48629   0.60037   0.00000  Uiso   1.00
C385   C     0.91530   0.42110   0.65763   0.00000  Uiso   1.00
C386   C     0.90994   0.77286   0.57343   0.00000  Uiso   1.00
C387   C     0.88365   0.83394   0.56219   0.00000  Uiso   1.00
C388   C     0.88054   0.92774   0.60198   0.00000  Uiso   1.00
C389   C     0.94937   0.68554   0.50171   0.00000  Uiso   1.00
C390   C     0.95622   0.67323   0.43016   0.00000  Uiso   1.00
C391   C     0.98630   0.69356   0.40957   0.00000  Uiso   1.00
H392   H     0.97665   0.75007   0.66471   0.00000  Uiso   1.00
H393   H     0.97045   0.57486   0.73875   0.00000  Uiso   1.00
H394   H     0.94661   0.92246   0.70057   0.00000  Uiso   1.00
H395   H     0.01916   0.76177   0.56857   0.00000  Uiso   1.00
H396   H     0.95369   0.36673   0.79915   0.00000  Uiso   1.00
H397   H     0.90342   0.09968   0.71863   0.00000  Uiso   1.00
H398   H     0.05642   0.76085   0.44027   0.00000  Uiso   1.00
H399   H     0.90055   0.64303   0.49740   0.00000  Uiso   1.00
H400   H     0.89017   0.46193   0.56226   0.00000  Uiso   1.00
H401   H     0.86633   0.80954   0.52408   0.00000  Uiso   1.00
H402   H     0.93888   0.64885   0.39208   0.00000  Uiso   1.00
H403   H     0.88853   0.27508   0.65591   0.00000  Uiso   1.00
H404   H     0.83826   0.00804   0.57538   0.00000  Uiso   1.00
H405   H     0.99126   0.66920   0.29702   0.00000  Uiso   1.00
O406   O     0.91564   0.20372   0.77323   0.00000  Uiso   1.00
O407   O     0.84970   0.16534   0.66758   0.00000  Uiso   1.00
O408   O     0.05043   0.72079   0.30238   0.00000  Uiso   1.00
N409   N     0.93978   0.37000   0.75653   0.00000  Uiso   1.00
N410   N     0.89278   0.05526   0.68125   0.00000  Uiso   1.00
N411   N     0.03582   0.73851   0.42100   0.00000  Uiso   1.00
N412   N     0.90472   0.32069   0.67945   0.00000  Uiso   1.00
N413   N     0.85772   0.00594   0.60417   0.00000  Uiso   1.00
N414   N     0.00076   0.68919   0.34393   0.00000  Uiso   1.00
C415   C     0.95922   0.22554   0.12638   0.00000  Uiso   1.00
C416   C     0.94530   0.11550   0.14340   0.00000  Uiso   1.00
C417   C     0.95312   0.05045   0.20066   0.00000  Uiso   1.00
C418   C     0.93773   0.95266   0.20695   0.00000  Uiso   1.00
C419   C     0.91951   0.78661   0.24090   0.00000  Uiso   1.00
C420   C     0.93234   0.30435   0.12267   0.00000  Uiso   1.00
C421   C     0.92927   0.39810   0.16248   0.00000  Uiso   1.00
C422   C     0.90298   0.45930   0.15131   0.00000  Uiso   1.00
C423   C     0.86465   0.58649   0.15302   0.00000  Uiso   1.00
C424   C     0.97176   0.21704   0.05095   0.00000  Uiso   1.00
C425   C     0.00184   0.23740   0.03045   0.00000  Uiso   1.00
C426   C     0.00874   0.22511   0.95889   0.00000  Uiso   1.00
C427   C     0.03162   0.21673   0.84925   0.00000  Uiso   1.00
C428   C     0.91799   0.16755   0.03573   0.00000  Uiso   1.00
C429   C     0.92290   0.08400   0.09417   0.00000  Uiso   1.00
C430   C     0.90750   0.98629   0.10037   0.00000  Uiso   1.00
C431   C     0.91530   0.92110   0.15763   0.00000  Uiso   1.00
C432   C     0.90994   0.27286   0.07343   0.00000  Uiso   1.00
C433   C     0.88365   0.33394   0.06219   0.00000  Uiso   1.00
C434   C     0.88054   0.42774   0.10198   0.00000  Uiso   1.00
C435   C     0.94937   0.18554   0.00171   0.00000  Uiso   1.00
C436   C     0.95622   0.17323   0.93016   0.00000  Uiso   1.00
C437   C     0.98630   0.19356   0.90957   0.00000  Uiso   1.00
H438   H     0.97665   0.25007   0.16471   0.00000  Uiso   1.00
H439   H     0.97045   0.07486   0.23875   0.00000  Uiso   1.00
H440   H     0.94661   0.42246   0.20057   0.00000  Uiso   1.00
H441   H     0.01916   0.26177   0.06857   0.00000  Uiso   1.00
H442   H     0.95369   0.86673   0.29915   0.00000  Uiso   1.00
H443   H     0.90342   0.59968   0.21863   0.00000  Uiso   1.00
H444   H     0.05642   0.26085   0.94027   0.00000  Uiso   1.00
H445   H     0.90055   0.14303   0.99740   0.00000  Uiso   1.00
H446   H     0.89017   0.96193   0.06226   0.00000  Uiso   1.00
H447   H     0.86633   0.30954   0.02408   0.00000  Uiso   1.00
H448   H     0.93888   0.14885   0.89208   0.00000  Uiso   1.00
H449   H     0.88853   0.77508   0.15591   0.00000  Uiso   1.00
H450   H     0.83826   0.50804   0.07538   0.00000  Uiso   1.00
H451   H     0.99126   0.16920   0.79702   0.00000  Uiso   1.00
O452   O     0.91564   0.70372   0.27323   0.00000  Uiso   1.00
O453   O     0.84970   0.66534   0.16758   0.00000  Uiso   1.00
O454   O     0.05043   0.22079   0.80238   0.00000  Uiso   1.00
N455   N     0.93978   0.87000   0.25653   0.00000  Uiso   1.00
N456   N     0.89278   0.55526   0.18125   0.00000  Uiso   1.00
N457   N     0.03582   0.23851   0.92100   0.00000  Uiso   1.00
N458   N     0.90472   0.82069   0.17945   0.00000  Uiso   1.00
N459   N     0.85772   0.50594   0.10417   0.00000  Uiso   1.00
N460   N     0.00076   0.18919   0.84393   0.00000  Uiso   1.00
C461   C     0.45922   0.72554   0.12638   0.00000  Uiso   1.00
C462   C     0.44530   0.61550   0.14340   0.00000  Uiso   1.00
C463   C     0.45312   0.55045   0.20066   0.00000  Uiso   1.00
C464   C     0.43773   0.45266   0.20695   0.00000  Uiso   1.00
C465   C     0.41951   0.28661   0.24090   0.00000  Uiso   1.00
C466   C     0.43234   0.80435   0.12267   0.00000  Uiso   1.00
C467   C     0.42927   0.89810   0.16248   0.00000  Uiso   1.00
C468   C     0.40298   0.95930   0.15131   0.00000  Uiso   1.00
C469   C     0.36465   0.08649   0.15302   0.00000  Uiso   1.00
C470   C     0.47176   0.71704   0.05095   0.00000  Uiso   1.00
C471   C     0.50184   0.73740   0.03045   0.00000  Uiso   1.00
C472   C     0.50874   0.72511   0.95889   0.00000  Uiso   1.00
C473   C     0.53162   0.71673   0.84925   0.00000  Uiso   1.00
C474   C     0.41799   0.66755   0.03573   0.00000  Uiso   1.00
C475   C     0.42290   0.58400   0.09417   0.00000  Uiso   1.00
C476   C     0.40750   0.48629   0.10037   0.00000  Uiso   1.00
C477   C     0.41530   0.42110   0.15763   0.00000  Uiso   1.00
C478   C     0.40994   0.77286   0.07343   0.00000  Uiso   1.00
C479   C     0.38365   0.83394   0.06219   0.00000  Uiso   1.00
C480   C     0.38054   0.92774   0.10198   0.00000  Uiso   1.00
C481   C     0.44937   0.68554   0.00171   0.00000  Uiso   1.00
C482   C     0.45622   0.67323   0.93016   0.00000  Uiso   1.00
C483   C     0.48630   0.69356   0.90957   0.00000  Uiso   1.00
H484   H     0.47665   0.75007   0.16471   0.00000  Uiso   1.00
H485   H     0.47045   0.57486   0.23875   0.00000  Uiso   1.00
H486   H     0.44661   0.92246   0.20057   0.00000  Uiso   1.00
H487   H     0.51916   0.76177   0.06857   0.00000  Uiso   1.00
H488   H     0.45369   0.36673   0.29915   0.00000  Uiso   1.00
H489   H     0.40342   0.09968   0.21863   0.00000  Uiso   1.00
H490   H     0.55642   0.76085   0.94027   0.00000  Uiso   1.00
H491   H     0.40055   0.64303   0.99740   0.00000  Uiso   1.00
H492   H     0.39017   0.46193   0.06226   0.00000  Uiso   1.00
H493   H     0.36633   0.80954   0.02408   0.00000  Uiso   1.00
H494   H     0.43888   0.64885   0.89208   0.00000  Uiso   1.00
H495   H     0.38853   0.27508   0.15591   0.00000  Uiso   1.00
H496   H     0.33826   0.00804   0.07538   0.00000  Uiso   1.00
H497   H     0.49126   0.66920   0.79702   0.00000  Uiso   1.00
O498   O     0.41564   0.20372   0.27323   0.00000  Uiso   1.00
O499   O     0.34970   0.16534   0.16758   0.00000  Uiso   1.00
O500   O     0.55043   0.72079   0.80238   0.00000  Uiso   1.00
N501   N     0.43978   0.37000   0.25653   0.00000  Uiso   1.00
N502   N     0.39278   0.05526   0.18125   0.00000  Uiso   1.00
N503   N     0.53582   0.73851   0.92100   0.00000  Uiso   1.00
N504   N     0.40472   0.32069   0.17945   0.00000  Uiso   1.00
N505   N     0.35772   0.00594   0.10417   0.00000  Uiso   1.00
N506   N     0.50076   0.68919   0.84393   0.00000  Uiso   1.00
C507   C     0.45922   0.22554   0.62638   0.00000  Uiso   1.00
C508   C     0.44530   0.11550   0.64340   0.00000  Uiso   1.00
C509   C     0.45312   0.05045   0.70066   0.00000  Uiso   1.00
C510   C     0.43773   0.95266   0.70695   0.00000  Uiso   1.00
C511   C     0.41951   0.78661   0.74090   0.00000  Uiso   1.00
C512   C     0.43234   0.30435   0.62267   0.00000  Uiso   1.00
C513   C     0.42927   0.39810   0.66248   0.00000  Uiso   1.00
C514   C     0.40298   0.45930   0.65131   0.00000  Uiso   1.00
C515   C     0.36465   0.58649   0.65302   0.00000  Uiso   1.00
C516   C     0.47176   0.21704   0.55095   0.00000  Uiso   1.00
C517   C     0.50184   0.23740   0.53045   0.00000  Uiso   1.00
C518   C     0.50874   0.22511   0.45889   0.00000  Uiso   1.00
C519   C     0.53162   0.21673   0.34925   0.00000  Uiso   1.00
C520   C     0.41799   0.16755   0.53573   0.00000  Uiso   1.00
C521   C     0.42290   0.08400   0.59417   0.00000  Uiso   1.00
C522   C     0.40750   0.98629   0.60037   0.00000  Uiso   1.00
C523   C     0.41530   0.92110   0.65763   0.00000  Uiso   1.00
C524   C     0.40994   0.27286   0.57343   0.00000  Uiso   1.00
C525   C     0.38365   0.33394   0.56219   0.00000  Uiso   1.00
C526   C     0.38054   0.42774   0.60198   0.00000  Uiso   1.00
C527   C     0.44937   0.18554   0.50171   0.00000  Uiso   1.00
C528   C     0.45622   0.17323   0.43016   0.00000  Uiso   1.00
C529   C     0.48630   0.19356   0.40957   0.00000  Uiso   1.00
H530   H     0.47665   0.25007   0.66471   0.00000  Uiso   1.00
H531   H     0.47045   0.07486   0.73875   0.00000  Uiso   1.00
H532   H     0.44661   0.42246   0.70057   0.00000  Uiso   1.00
H533   H     0.51916   0.26177   0.56857   0.00000  Uiso   1.00
H534   H     0.45369   0.86673   0.79915   0.00000  Uiso   1.00
H535   H     0.40342   0.59968   0.71863   0.00000  Uiso   1.00
H536   H     0.55642   0.26085   0.44027   0.00000  Uiso   1.00
H537   H     0.40055   0.14303   0.49740   0.00000  Uiso   1.00
H538   H     0.39017   0.96193   0.56226   0.00000  Uiso   1.00
H539   H     0.36633   0.30954   0.52408   0.00000  Uiso   1.00
H540   H     0.43888   0.14885   0.39208   0.00000  Uiso   1.00
H541   H     0.38853   0.77508   0.65591   0.00000  Uiso   1.00
H542   H     0.33826   0.50804   0.57538   0.00000  Uiso   1.00
H543   H     0.49126   0.16920   0.29702   0.00000  Uiso   1.00
O544   O     0.41564   0.70372   0.77323   0.00000  Uiso   1.00
O545   O     0.34970   0.66534   0.66758   0.00000  Uiso   1.00
O546   O     0.55043   0.22079   0.30238   0.00000  Uiso   1.00
N547   N     0.43978   0.87000   0.75653   0.00000  Uiso   1.00
N548   N     0.39278   0.55526   0.68125   0.00000  Uiso   1.00
N549   N     0.53582   0.23851   0.42100   0.00000  Uiso   1.00
N550   N     0.40472   0.82069   0.67945   0.00000  Uiso   1.00
N551   N     0.35772   0.50594   0.60417   0.00000  Uiso   1.00
N552   N     0.50076   0.18919   0.34393   0.00000  Uiso   1.00
C553   C     0.54078   0.77446   0.62638   0.00000  Uiso   1.00
C554   C     0.55470   0.88450   0.64340   0.00000  Uiso   1.00
C555   C     0.54688   0.94955   0.70066   0.00000  Uiso   1.00
C556   C     0.56227   0.04734   0.70695   0.00000  Uiso   1.00
C557   C     0.58049   0.21339   0.74090   0.00000  Uiso   1.00
C558   C     0.56766   0.69565   0.62267   0.00000  Uiso   1.00
C559   C     0.57073   0.60190   0.66248   0.00000  Uiso   1.00
C560   C     0.59702   0.54070   0.65131   0.00000  Uiso   1.00
C561   C     0.63535   0.41351   0.65302   0.00000  Uiso   1.00
C562   C     0.52824   0.78296   0.55095   0.00000  Uiso   1.00
C563   C     0.49816   0.76260   0.53045   0.00000  Uiso   1.00
C564   C     0.49126   0.77489   0.45889   0.00000  Uiso   1.00
C565   C     0.46838   0.78327   0.34925   0.00000  Uiso   1.00
C566   C     0.58201   0.83245   0.53573   0.00000  Uiso   1.00
C567   C     0.57710   0.91600   0.59417   0.00000  Uiso   1.00
C568   C     0.59250   0.01371   0.60037   0.00000  Uiso   1.00
C569   C     0.58470   0.07890   0.65763   0.00000  Uiso   1.00
C570   C     0.59006   0.72714   0.57343   0.00000  Uiso   1.00
C571   C     0.61635   0.66606   0.56219   0.00000  Uiso   1.00
C572   C     0.61946   0.57226   0.60198   0.00000  Uiso   1.00
C573   C     0.55063   0.81446   0.50171   0.00000  Uiso   1.00
C574   C     0.54378   0.82677   0.43016   0.00000  Uiso   1.00
C575   C     0.51370   0.80644   0.40957   0.00000  Uiso   1.00
H576   H     0.52335   0.74993   0.66471   0.00000  Uiso   1.00
H577   H     0.52955   0.92514   0.73875   0.00000  Uiso   1.00
H578   H     0.55339   0.57754   0.70057   0.00000  Uiso   1.00
H579   H     0.48084   0.73823   0.56857   0.00000  Uiso   1.00
H580   H     0.54631   0.13327   0.79915   0.00000  Uiso   1.00
H581   H     0.59658   0.40032   0.71863   0.00000  Uiso   1.00
H582   H     0.44358   0.73915   0.44027   0.00000  Uiso   1.00
H583   H     0.59945   0.85697   0.49740   0.00000  Uiso   1.00
H584   H     0.60983   0.03807   0.56226   0.00000  Uiso   1.00
H585   H     0.63367   0.69046   0.52408   0.00000  Uiso   1.00
H586   H     0.56112   0.85115   0.39208   0.00000  Uiso   1.00
H587   H     0.61147   0.22492   0.65591   0.00000  Uiso   1.00
H588   H     0.66174   0.49196   0.57538   0.00000  Uiso   1.00
H589   H     0.50874   0.83080   0.29702   0.00000  Uiso   1.00
O590   O     0.58436   0.29628   0.77323   0.00000  Uiso   1.00
O591   O     0.65030   0.33466   0.66758   0.00000  Uiso   1.00
O592   O     0.44957   0.77921   0.30238   0.00000  Uiso   1.00
N593   N     0.56022   0.13000   0.75653   0.00000  Uiso   1.00
N594   N     0.60722   0.44474   0.68125   0.00000  Uiso   1.00
N595   N     0.46418   0.76149   0.42100   0.00000  Uiso   1.00
N596   N     0.59528   0.17931   0.67945   0.00000  Uiso   1.00
N597   N     0.64228   0.49406   0.60417   0.00000  Uiso   1.00
N598   N     0.49924   0.81081   0.34393   0.00000  Uiso   1.00
C599   C     0.54078   0.27446   0.12638   0.00000  Uiso   1.00
C600   C     0.55470   0.38450   0.14340   0.00000  Uiso   1.00
C601   C     0.54688   0.44955   0.20066   0.00000  Uiso   1.00
C602   C     0.56227   0.54734   0.20695   0.00000  Uiso   1.00
C603   C     0.58049   0.71339   0.24090   0.00000  Uiso   1.00
C604   C     0.56766   0.19565   0.12267   0.00000  Uiso   1.00
C605   C     0.57073   0.10190   0.16248   0.00000  Uiso   1.00
C606   C     0.59702   0.04070   0.15131   0.00000  Uiso   1.00
C607   C     0.63535   0.91351   0.15302   0.00000  Uiso   1.00
C608   C     0.52824   0.28296   0.05095   0.00000  Uiso   1.00
C609   C     0.49816   0.26260   0.03045   0.00000  Uiso   1.00
C610   C     0.49126   0.27489   0.95889   0.00000  Uiso   1.00
C611   C     0.46838   0.28327   0.84925   0.00000  Uiso   1.00
C612   C     0.58201   0.33245   0.03573   0.00000  Uiso   1.00
C613   C     0.57710   0.41600   0.09417   0.00000  Uiso   1.00
C614   C     0.59250   0.51371   0.10037   0.00000  Uiso   1.00
C615   C     0.58470   0.57890   0.15763   0.00000  Uiso   1.00
C616   C     0.59006   0.22714   0.07343   0.00000  Uiso   1.00
C617   C     0.61635   0.16606   0.06219   0.00000  Uiso   1.00
C618   C     0.61946   0.07226   0.10198   0.00000  Uiso   1.00
C619   C     0.55063   0.31446   0.00171   0.00000  Uiso   1.00
C620   C     0.54378   0.32677   0.93016   0.00000  Uiso   1.00
C621   C     0.51370   0.30644   0.90957   0.00000  Uiso   1.00
H622   H     0.52335   0.24993   0.16471   0.00000  Uiso   1.00
H623   H     0.52955   0.42514   0.23875   0.00000  Uiso   1.00
H624   H     0.55339   0.07754   0.20057   0.00000  Uiso   1.00
H625   H     0.48084   0.23823   0.06857   0.00000  Uiso   1.00
H626   H     0.54631   0.63327   0.29915   0.00000  Uiso   1.00
H627   H     0.59658   0.90032   0.21863   0.00000  Uiso   1.00
H628   H     0.44358   0.23915   0.94027   0.00000  Uiso   1.00
H629   H     0.59945   0.35697   0.99740   0.00000  Uiso   1.00
H630   H     0.60983   0.53807   0.06226   0.00000  Uiso   1.00
H631   H     0.63367   0.19046   0.02408   0.00000  Uiso   1.00
H632   H     0.56112   0.35115   0.89208   0.00000  Uiso   1.00
H633   H     0.61147   0.72492   0.15591   0.00000  Uiso   1.00
H634   H     0.66174   0.99196   0.07538   0.00000  Uiso   1.00
H635   H     0.50874   0.33080   0.79702   0.00000  Uiso   1.00
O636   O     0.58436   0.79628   0.27323   0.00000  Uiso   1.00
O637   O     0.65030   0.83466   0.16758   0.00000  Uiso   1.00
O638   O     0.44957   0.27921   0.80238   0.00000  Uiso   1.00
N639   N     0.56022   0.63000   0.25653   0.00000  Uiso   1.00
N640   N     0.60722   0.94474   0.18125   0.00000  Uiso   1.00
N641   N     0.46418   0.26149   0.92100   0.00000  Uiso   1.00
N642   N     0.59528   0.67931   0.17945   0.00000  Uiso   1.00
N643   N     0.64228   0.99406   0.10417   0.00000  Uiso   1.00
N644   N     0.49924   0.31081   0.84393   0.00000  Uiso   1.00
C645   C     0.04078   0.77446   0.12638   0.00000  Uiso   1.00
C646   C     0.05470   0.88450   0.14340   0.00000  Uiso   1.00
C647   C     0.04688   0.94955   0.20066   0.00000  Uiso   1.00
C648   C     0.06227   0.04734   0.20695   0.00000  Uiso   1.00
C649   C     0.08049   0.21339   0.24090   0.00000  Uiso   1.00
C650   C     0.06766   0.69565   0.12267   0.00000  Uiso   1.00
C651   C     0.07073   0.60190   0.16248   0.00000  Uiso   1.00
C652   C     0.09702   0.54070   0.15131   0.00000  Uiso   1.00
C653   C     0.13535   0.41351   0.15302   0.00000  Uiso   1.00
C654   C     0.02824   0.78296   0.05095   0.00000  Uiso   1.00
C655   C     0.99816   0.76260   0.03045   0.00000  Uiso   1.00
C656   C     0.99126   0.77489   0.95889   0.00000  Uiso   1.00
C657   C     0.96838   0.78327   0.84925   0.00000  Uiso   1.00
C658   C     0.08201   0.83245   0.03573   0.00000  Uiso   1.00
C659   C     0.07710   0.91600   0.09417   0.00000  Uiso   1.00
C660   C     0.09250   0.01371   0.10037   0.00000  Uiso   1.00
C661   C     0.08470   0.07890   0.15763   0.00000  Uiso   1.00
C662   C     0.09006   0.72714   0.07343   0.00000  Uiso   1.00
C663   C     0.11635   0.66606   0.06219   0.00000  Uiso   1.00
C664   C     0.11946   0.57226   0.10198   0.00000  Uiso   1.00
C665   C     0.05063   0.81446   0.00171   0.00000  Uiso   1.00
C666   C     0.04378   0.82677   0.93016   0.00000  Uiso   1.00
C667   C     0.01370   0.80644   0.90957   0.00000  Uiso   1.00
H668   H     0.02335   0.74993   0.16471   0.00000  Uiso   1.00
H669   H     0.02955   0.92514   0.23875   0.00000  Uiso   1.00
H670   H     0.05339   0.57754   0.20057   0.00000  Uiso   1.00
H671   H     0.98084   0.73823   0.06857   0.00000  Uiso   1.00
H672   H     0.04631   0.13327   0.29915   0.00000  Uiso   1.00
H673   H     0.09658   0.40032   0.21863   0.00000  Uiso   1.00
H674   H     0.94358   0.73915   0.94027   0.00000  Uiso   1.00
H675   H     0.09945   0.85697   0.99740   0.00000  Uiso   1.00
H676   H     0.10983   0.03807   0.06226   0.00000  Uiso   1.00
H677   H     0.13367   0.69046   0.02408   0.00000  Uiso   1.00
H678   H     0.06112   0.85115   0.89208   0.00000  Uiso   1.00
H679   H     0.11147   0.22492   0.15591   0.00000  Uiso   1.00
H680   H     0.16174   0.49196   0.07538   0.00000  Uiso   1.00
H681   H     0.00874   0.83080   0.79702   0.00000  Uiso   1.00
O682   O     0.08436   0.29628   0.27323   0.00000  Uiso   1.00
O683   O     0.15030   0.33466   0.16758   0.00000  Uiso   1.00
O684   O     0.94957   0.77921   0.80238   0.00000  Uiso   1.00
N685   N     0.06022   0.13000   0.25653   0.00000  Uiso   1.00
N686   N     0.10722   0.44474   0.18125   0.00000  Uiso   1.00
N687   N     0.96418   0.76149   0.92100   0.00000  Uiso   1.00
N688   N     0.09528   0.17931   0.17945   0.00000  Uiso   1.00
N689   N     0.14228   0.49406   0.10417   0.00000  Uiso   1.00
N690   N     0.99924   0.81081   0.84393   0.00000  Uiso   1.00
C691   C     0.04078   0.27446   0.62638   0.00000  Uiso   1.00
C692   C     0.05470   0.38450   0.64340   0.00000  Uiso   1.00
C693   C     0.04688   0.44955   0.70066   0.00000  Uiso   1.00
C694   C     0.06227   0.54734   0.70695   0.00000  Uiso   1.00
C695   C     0.08049   0.71339   0.74090   0.00000  Uiso   1.00
C696   C     0.06766   0.19565   0.62267   0.00000  Uiso   1.00
C697   C     0.07073   0.10190   0.66248   0.00000  Uiso   1.00
C698   C     0.09702   0.04070   0.65131   0.00000  Uiso   1.00
C699   C     0.13535   0.91351   0.65302   0.00000  Uiso   1.00
C700   C     0.02824   0.28296   0.55095   0.00000  Uiso   1.00
C701   C     0.99816   0.26260   0.53045   0.00000  Uiso   1.00
C702   C     0.99126   0.27489   0.45889   0.00000  Uiso   1.00
C703   C     0.96838   0.28327   0.34925   0.00000  Uiso   1.00
C704   C     0.08201   0.33245   0.53573   0.00000  Uiso   1.00
C705   C     0.07710   0.41600   0.59417   0.00000  Uiso   1.00
C706   C     0.09250   0.51371   0.60037   0.00000  Uiso   1.00
C707   C     0.08470   0.57890   0.65763   0.00000  Uiso   1.00
C708   C     0.09006   0.22714   0.57343   0.00000  Uiso   1.00
C709   C     0.11635   0.16606   0.56219   0.00000  Uiso   1.00
C710   C     0.11946   0.07226   0.60198   0.00000  Uiso   1.00
C711   C     0.05063   0.31446   0.50171   0.00000  Uiso   1.00
C712   C     0.04378   0.32677   0.43016   0.00000  Uiso   1.00
C713   C     0.01370   0.30644   0.40957   0.00000  Uiso   1.00
H714   H     0.02335   0.24993   0.66471   0.00000  Uiso   1.00
H715   H     0.02955   0.42514   0.73875   0.00000  Uiso   1.00
H716   H     0.05339   0.07754   0.70057   0.00000  Uiso   1.00
H717   H     0.98084   0.23823   0.56857   0.00000  Uiso   1.00
H718   H     0.04631   0.63327   0.79915   0.00000  Uiso   1.00
H719   H     0.09658   0.90032   0.71863   0.00000  Uiso   1.00
H720   H     0.94358   0.23915   0.44027   0.00000  Uiso   1.00
H721   H     0.09945   0.35697   0.49740   0.00000  Uiso   1.00
H722   H     0.10983   0.53807   0.56226   0.00000  Uiso   1.00
H723   H     0.13367   0.19046   0.52408   0.00000  Uiso   1.00
H724   H     0.06112   0.35115   0.39208   0.00000  Uiso   1.00
H725   H     0.11147   0.72492   0.65591   0.00000  Uiso   1.00
H726   H     0.16174   0.99196   0.57538   0.00000  Uiso   1.00
H727   H     0.00874   0.33080   0.29702   0.00000  Uiso   1.00
O728   O     0.08436   0.79628   0.77323   0.00000  Uiso   1.00
O729   O     0.15030   0.83466   0.66758   0.00000  Uiso   1.00
O730   O     0.94957   0.27921   0.30238   0.00000  Uiso   1.00
N731   N     0.06022   0.63000   0.75653   0.00000  Uiso   1.00
N732   N     0.10722   0.94474   0.68125   0.00000  Uiso   1.00
N733   N     0.96418   0.26149   0.42100   0.00000  Uiso   1.00
N734   N     0.09528   0.67931   0.67945   0.00000  Uiso   1.00
N735   N     0.14228   0.99406   0.60417   0.00000  Uiso   1.00
N736   N     0.99924   0.31081   0.34393   0.00000  Uiso   1.00
