data_job_05735
_audit_creation_date              2018-12-19
_audit_creation_method            'Materials Studio'
_symmetry_space_group_name_H-M    'P1'
_symmetry_Int_Tables_number       1
_symmetry_cell_setting            triclinic
loop_
_symmetry_equiv_pos_as_xyz
  x,y,z
_cell_length_a                    53.3864
_cell_length_b                    20.2768
_cell_length_c                    12.4702
_cell_angle_alpha                 90.0000
_cell_angle_beta                  90.0000
_cell_angle_gamma                 90.0000
loop_
_atom_site_label
_atom_site_type_symbol
_atom_site_fract_x
_atom_site_fract_y
_atom_site_fract_z
_atom_site_U_iso_or_equiv
_atom_site_adp_type
_atom_site_occupancy
C1     C     0.67847   0.89553   0.61393   0.00000  Uiso   1.00
C2     C     0.69161   0.93993   0.69501   0.00000  Uiso   1.00
C3     C     0.70252   0.91940   0.79034   0.00000  Uiso   1.00
C4     C     0.71361   0.96764   0.85351   0.00000  Uiso   1.00
C5     C     0.73399   0.02650   0.98417   0.00000  Uiso   1.00
C6     C     0.65218   0.92375   0.60021   0.00000  Uiso   1.00
C7     C     0.62995   0.88962   0.61581   0.00000  Uiso   1.00
C8     C     0.60785   0.92424   0.59916   0.00000  Uiso   1.00
C9     C     0.56702   0.95797   0.58255   0.00000  Uiso   1.00
C10    C     0.69180   0.90661   0.50730   0.00000  Uiso   1.00
C11    C     0.70286   0.85806   0.44478   0.00000  Uiso   1.00
C12    C     0.71411   0.87824   0.34989   0.00000  Uiso   1.00
C13    C     0.73478   0.88535   0.18904   0.00000  Uiso   1.00
C14    C     0.67876   0.01769   0.55660   0.00000  Uiso   1.00
C15    C     0.69177   0.00629   0.66386   0.00000  Uiso   1.00
C16    C     0.70284   0.05457   0.72691   0.00000  Uiso   1.00
C17    C     0.71377   0.03411   0.82231   0.00000  Uiso   1.00
C18    C     0.65234   0.99011   0.56906   0.00000  Uiso   1.00
C19    C     0.63027   0.02478   0.55238   0.00000  Uiso   1.00
C20    C     0.60801   0.99071   0.56796   0.00000  Uiso   1.00
C21    C     0.69195   0.97296   0.47616   0.00000  Uiso   1.00
C22    C     0.70318   0.99322   0.38135   0.00000  Uiso   1.00
C23    C     0.71426   0.94471   0.31869   0.00000  Uiso   1.00
H24    H     0.67834   0.84387   0.63818   0.00000  Uiso   1.00
H25    H     0.70239   0.86805   0.81442   0.00000  Uiso   1.00
H26    H     0.62983   0.83827   0.63990   0.00000  Uiso   1.00
H27    H     0.70274   0.80671   0.46890   0.00000  Uiso   1.00
H28    H     0.72912   0.92413   0.99610   0.00000  Uiso   1.00
H29    H     0.57612   0.86133   0.62809   0.00000  Uiso   1.00
H30    H     0.72985   0.79478   0.26750   0.00000  Uiso   1.00
H31    H     0.67888   0.06935   0.53235   0.00000  Uiso   1.00
H32    H     0.70296   0.10591   0.70278   0.00000  Uiso   1.00
H33    H     0.63040   0.07613   0.52827   0.00000  Uiso   1.00
H34    H     0.70330   0.04457   0.35727   0.00000  Uiso   1.00
H35    H     0.72958   0.11719   0.90550   0.00000  Uiso   1.00
H36    H     0.57658   0.05439   0.53748   0.00000  Uiso   1.00
H37    H     0.73031   0.98784   0.17689   0.00000  Uiso   1.00
O38    O     0.74518   0.04064   0.06484   0.00000  Uiso   1.00
O39    O     0.54445   0.95825   0.58201   0.00000  Uiso   1.00
O40    O     0.74614   0.87094   0.10892   0.00000  Uiso   1.00
N41    N     0.72593   0.96455   0.95137   0.00000  Uiso   1.00
N42    N     0.58289   0.90583   0.60733   0.00000  Uiso   1.00
N43    N     0.72660   0.84362   0.27019   0.00000  Uiso   1.00
N44    N     0.72618   0.06843   0.90262   0.00000  Uiso   1.00
N45    N     0.58313   0.00972   0.55857   0.00000  Uiso   1.00
N46    N     0.72685   0.94750   0.22143   0.00000  Uiso   1.00
C47    C     0.67847   0.39553   0.11393   0.00000  Uiso   1.00
C48    C     0.69161   0.43993   0.19501   0.00000  Uiso   1.00
C49    C     0.70252   0.41940   0.29034   0.00000  Uiso   1.00
C50    C     0.71361   0.46764   0.35351   0.00000  Uiso   1.00
C51    C     0.73399   0.52650   0.48417   0.00000  Uiso   1.00
C52    C     0.65218   0.42375   0.10021   0.00000  Uiso   1.00
C53    C     0.62995   0.38962   0.11581   0.00000  Uiso   1.00
C54    C     0.60785   0.42424   0.09916   0.00000  Uiso   1.00
C55    C     0.56702   0.45797   0.08255   0.00000  Uiso   1.00
C56    C     0.69180   0.40661   0.00730   0.00000  Uiso   1.00
C57    C     0.70286   0.35806   0.94478   0.00000  Uiso   1.00
C58    C     0.71411   0.37824   0.84989   0.00000  Uiso   1.00
C59    C     0.73478   0.38535   0.68904   0.00000  Uiso   1.00
C60    C     0.67876   0.51769   0.05660   0.00000  Uiso   1.00
C61    C     0.69177   0.50629   0.16386   0.00000  Uiso   1.00
C62    C     0.70284   0.55457   0.22691   0.00000  Uiso   1.00
C63    C     0.71377   0.53411   0.32231   0.00000  Uiso   1.00
C64    C     0.65234   0.49011   0.06906   0.00000  Uiso   1.00
C65    C     0.63027   0.52478   0.05238   0.00000  Uiso   1.00
C66    C     0.60801   0.49071   0.06796   0.00000  Uiso   1.00
C67    C     0.69195   0.47296   0.97616   0.00000  Uiso   1.00
C68    C     0.70318   0.49322   0.88135   0.00000  Uiso   1.00
C69    C     0.71426   0.44471   0.81869   0.00000  Uiso   1.00
H70    H     0.67834   0.34387   0.13818   0.00000  Uiso   1.00
H71    H     0.70239   0.36805   0.31442   0.00000  Uiso   1.00
H72    H     0.62983   0.33827   0.13990   0.00000  Uiso   1.00
H73    H     0.70274   0.30671   0.96890   0.00000  Uiso   1.00
H74    H     0.72912   0.42413   0.49610   0.00000  Uiso   1.00
H75    H     0.57612   0.36133   0.12809   0.00000  Uiso   1.00
H76    H     0.72985   0.29478   0.76750   0.00000  Uiso   1.00
H77    H     0.67888   0.56935   0.03235   0.00000  Uiso   1.00
H78    H     0.70296   0.60591   0.20278   0.00000  Uiso   1.00
H79    H     0.63040   0.57613   0.02827   0.00000  Uiso   1.00
H80    H     0.70330   0.54457   0.85727   0.00000  Uiso   1.00
H81    H     0.72958   0.61719   0.40550   0.00000  Uiso   1.00
H82    H     0.57658   0.55439   0.03748   0.00000  Uiso   1.00
H83    H     0.73031   0.48784   0.67689   0.00000  Uiso   1.00
O84    O     0.74518   0.54064   0.56484   0.00000  Uiso   1.00
O85    O     0.54445   0.45825   0.08201   0.00000  Uiso   1.00
O86    O     0.74614   0.37094   0.60892   0.00000  Uiso   1.00
N87    N     0.72593   0.46455   0.45137   0.00000  Uiso   1.00
N88    N     0.58289   0.40583   0.10733   0.00000  Uiso   1.00
N89    N     0.72660   0.34362   0.77019   0.00000  Uiso   1.00
N90    N     0.72618   0.56843   0.40262   0.00000  Uiso   1.00
N91    N     0.58313   0.50972   0.05857   0.00000  Uiso   1.00
N92    N     0.72685   0.44750   0.72143   0.00000  Uiso   1.00
C93    C     0.17847   0.89553   0.11393   0.00000  Uiso   1.00
C94    C     0.19161   0.93993   0.19501   0.00000  Uiso   1.00
C95    C     0.20252   0.91940   0.29034   0.00000  Uiso   1.00
C96    C     0.21361   0.96764   0.35351   0.00000  Uiso   1.00
C97    C     0.23399   0.02650   0.48417   0.00000  Uiso   1.00
C98    C     0.15218   0.92375   0.10021   0.00000  Uiso   1.00
C99    C     0.12995   0.88962   0.11581   0.00000  Uiso   1.00
C100   C     0.10785   0.92424   0.09916   0.00000  Uiso   1.00
C101   C     0.06702   0.95797   0.08255   0.00000  Uiso   1.00
C102   C     0.19180   0.90661   0.00730   0.00000  Uiso   1.00
C103   C     0.20286   0.85806   0.94478   0.00000  Uiso   1.00
C104   C     0.21411   0.87824   0.84989   0.00000  Uiso   1.00
C105   C     0.23478   0.88535   0.68904   0.00000  Uiso   1.00
C106   C     0.17876   0.01769   0.05660   0.00000  Uiso   1.00
C107   C     0.19177   0.00629   0.16386   0.00000  Uiso   1.00
C108   C     0.20284   0.05457   0.22691   0.00000  Uiso   1.00
C109   C     0.21377   0.03411   0.32231   0.00000  Uiso   1.00
C110   C     0.15234   0.99011   0.06906   0.00000  Uiso   1.00
C111   C     0.13027   0.02478   0.05238   0.00000  Uiso   1.00
C112   C     0.10801   0.99071   0.06796   0.00000  Uiso   1.00
C113   C     0.19195   0.97296   0.97616   0.00000  Uiso   1.00
C114   C     0.20318   0.99322   0.88135   0.00000  Uiso   1.00
C115   C     0.21426   0.94471   0.81869   0.00000  Uiso   1.00
H116   H     0.17834   0.84387   0.13818   0.00000  Uiso   1.00
H117   H     0.20239   0.86805   0.31442   0.00000  Uiso   1.00
H118   H     0.12983   0.83827   0.13990   0.00000  Uiso   1.00
H119   H     0.20274   0.80671   0.96890   0.00000  Uiso   1.00
H120   H     0.22912   0.92413   0.49610   0.00000  Uiso   1.00
H121   H     0.07612   0.86133   0.12809   0.00000  Uiso   1.00
H122   H     0.22985   0.79478   0.76750   0.00000  Uiso   1.00
H123   H     0.17888   0.06935   0.03235   0.00000  Uiso   1.00
H124   H     0.20296   0.10591   0.20278   0.00000  Uiso   1.00
H125   H     0.13040   0.07613   0.02827   0.00000  Uiso   1.00
H126   H     0.20330   0.04457   0.85727   0.00000  Uiso   1.00
H127   H     0.22958   0.11719   0.40550   0.00000  Uiso   1.00
H128   H     0.07658   0.05439   0.03748   0.00000  Uiso   1.00
H129   H     0.23031   0.98784   0.67689   0.00000  Uiso   1.00
O130   O     0.24518   0.04064   0.56484   0.00000  Uiso   1.00
O131   O     0.04445   0.95825   0.08201   0.00000  Uiso   1.00
O132   O     0.24614   0.87094   0.60892   0.00000  Uiso   1.00
N133   N     0.22593   0.96455   0.45137   0.00000  Uiso   1.00
N134   N     0.08289   0.90583   0.10733   0.00000  Uiso   1.00
N135   N     0.22660   0.84362   0.77019   0.00000  Uiso   1.00
N136   N     0.22618   0.06843   0.40262   0.00000  Uiso   1.00
N137   N     0.08313   0.00972   0.05857   0.00000  Uiso   1.00
N138   N     0.22685   0.94750   0.72143   0.00000  Uiso   1.00
C139   C     0.17847   0.39553   0.61393   0.00000  Uiso   1.00
C140   C     0.19161   0.43993   0.69501   0.00000  Uiso   1.00
C141   C     0.20252   0.41940   0.79034   0.00000  Uiso   1.00
C142   C     0.21361   0.46764   0.85351   0.00000  Uiso   1.00
C143   C     0.23399   0.52650   0.98417   0.00000  Uiso   1.00
C144   C     0.15218   0.42375   0.60021   0.00000  Uiso   1.00
C145   C     0.12995   0.38962   0.61581   0.00000  Uiso   1.00
C146   C     0.10785   0.42424   0.59916   0.00000  Uiso   1.00
C147   C     0.06702   0.45797   0.58255   0.00000  Uiso   1.00
C148   C     0.19180   0.40661   0.50730   0.00000  Uiso   1.00
C149   C     0.20286   0.35806   0.44478   0.00000  Uiso   1.00
C150   C     0.21411   0.37824   0.34989   0.00000  Uiso   1.00
C151   C     0.23478   0.38535   0.18904   0.00000  Uiso   1.00
C152   C     0.17876   0.51769   0.55660   0.00000  Uiso   1.00
C153   C     0.19177   0.50629   0.66386   0.00000  Uiso   1.00
C154   C     0.20284   0.55457   0.72691   0.00000  Uiso   1.00
C155   C     0.21377   0.53411   0.82231   0.00000  Uiso   1.00
C156   C     0.15234   0.49011   0.56906   0.00000  Uiso   1.00
C157   C     0.13027   0.52478   0.55238   0.00000  Uiso   1.00
C158   C     0.10801   0.49071   0.56796   0.00000  Uiso   1.00
C159   C     0.19195   0.47296   0.47616   0.00000  Uiso   1.00
C160   C     0.20318   0.49322   0.38135   0.00000  Uiso   1.00
C161   C     0.21426   0.44471   0.31869   0.00000  Uiso   1.00
H162   H     0.17834   0.34387   0.63818   0.00000  Uiso   1.00
H163   H     0.20239   0.36805   0.81442   0.00000  Uiso   1.00
H164   H     0.12983   0.33827   0.63990   0.00000  Uiso   1.00
H165   H     0.20274   0.30671   0.46890   0.00000  Uiso   1.00
H166   H     0.22912   0.42413   0.99610   0.00000  Uiso   1.00
H167   H     0.07612   0.36133   0.62809   0.00000  Uiso   1.00
H168   H     0.22985   0.29478   0.26750   0.00000  Uiso   1.00
H169   H     0.17888   0.56935   0.53235   0.00000  Uiso   1.00
H170   H     0.20296   0.60591   0.70278   0.00000  Uiso   1.00
H171   H     0.13040   0.57613   0.52827   0.00000  Uiso   1.00
H172   H     0.20330   0.54457   0.35727   0.00000  Uiso   1.00
H173   H     0.22958   0.61719   0.90550   0.00000  Uiso   1.00
H174   H     0.07658   0.55439   0.53748   0.00000  Uiso   1.00
H175   H     0.23031   0.48784   0.17689   0.00000  Uiso   1.00
O176   O     0.24518   0.54064   0.06484   0.00000  Uiso   1.00
O177   O     0.04445   0.45825   0.58201   0.00000  Uiso   1.00
O178   O     0.24614   0.37094   0.10892   0.00000  Uiso   1.00
N179   N     0.22593   0.46455   0.95137   0.00000  Uiso   1.00
N180   N     0.08289   0.40583   0.60733   0.00000  Uiso   1.00
N181   N     0.22660   0.34362   0.27019   0.00000  Uiso   1.00
N182   N     0.22618   0.56843   0.90262   0.00000  Uiso   1.00
N183   N     0.08313   0.50972   0.55857   0.00000  Uiso   1.00
N184   N     0.22685   0.44750   0.22143   0.00000  Uiso   1.00
C185   C     0.32153   0.10447   0.61393   0.00000  Uiso   1.00
C186   C     0.30839   0.06007   0.69501   0.00000  Uiso   1.00
C187   C     0.29748   0.08060   0.79034   0.00000  Uiso   1.00
C188   C     0.28639   0.03236   0.85351   0.00000  Uiso   1.00
C189   C     0.26601   0.97350   0.98417   0.00000  Uiso   1.00
C190   C     0.34782   0.07625   0.60021   0.00000  Uiso   1.00
C191   C     0.37005   0.11038   0.61581   0.00000  Uiso   1.00
C192   C     0.39215   0.07576   0.59916   0.00000  Uiso   1.00
C193   C     0.43298   0.04203   0.58255   0.00000  Uiso   1.00
C194   C     0.30820   0.09339   0.50730   0.00000  Uiso   1.00
C195   C     0.29714   0.14194   0.44478   0.00000  Uiso   1.00
C196   C     0.28589   0.12176   0.34989   0.00000  Uiso   1.00
C197   C     0.26522   0.11465   0.18904   0.00000  Uiso   1.00
C198   C     0.32124   0.98231   0.55660   0.00000  Uiso   1.00
C199   C     0.30823   0.99371   0.66386   0.00000  Uiso   1.00
C200   C     0.29716   0.94543   0.72691   0.00000  Uiso   1.00
C201   C     0.28623   0.96589   0.82231   0.00000  Uiso   1.00
C202   C     0.34766   0.00989   0.56906   0.00000  Uiso   1.00
C203   C     0.36973   0.97522   0.55238   0.00000  Uiso   1.00
C204   C     0.39199   0.00929   0.56796   0.00000  Uiso   1.00
C205   C     0.30805   0.02704   0.47616   0.00000  Uiso   1.00
C206   C     0.29682   0.00678   0.38135   0.00000  Uiso   1.00
C207   C     0.28574   0.05529   0.31869   0.00000  Uiso   1.00
H208   H     0.32166   0.15613   0.63818   0.00000  Uiso   1.00
H209   H     0.29761   0.13195   0.81442   0.00000  Uiso   1.00
H210   H     0.37017   0.16173   0.63990   0.00000  Uiso   1.00
H211   H     0.29726   0.19329   0.46890   0.00000  Uiso   1.00
H212   H     0.27088   0.07587   0.99610   0.00000  Uiso   1.00
H213   H     0.42388   0.13867   0.62809   0.00000  Uiso   1.00
H214   H     0.27015   0.20522   0.26750   0.00000  Uiso   1.00
H215   H     0.32112   0.93065   0.53235   0.00000  Uiso   1.00
H216   H     0.29704   0.89409   0.70278   0.00000  Uiso   1.00
H217   H     0.36960   0.92387   0.52827   0.00000  Uiso   1.00
H218   H     0.29670   0.95543   0.35727   0.00000  Uiso   1.00
H219   H     0.27042   0.88281   0.90550   0.00000  Uiso   1.00
H220   H     0.42342   0.94561   0.53748   0.00000  Uiso   1.00
H221   H     0.26969   0.01216   0.17689   0.00000  Uiso   1.00
O222   O     0.25482   0.95936   0.06484   0.00000  Uiso   1.00
O223   O     0.45555   0.04175   0.58201   0.00000  Uiso   1.00
O224   O     0.25386   0.12906   0.10892   0.00000  Uiso   1.00
N225   N     0.27407   0.03545   0.95137   0.00000  Uiso   1.00
N226   N     0.41711   0.09417   0.60733   0.00000  Uiso   1.00
N227   N     0.27340   0.15638   0.27019   0.00000  Uiso   1.00
N228   N     0.27382   0.93157   0.90262   0.00000  Uiso   1.00
N229   N     0.41687   0.99028   0.55857   0.00000  Uiso   1.00
N230   N     0.27315   0.05250   0.22143   0.00000  Uiso   1.00
C231   C     0.32153   0.60447   0.11393   0.00000  Uiso   1.00
C232   C     0.30839   0.56007   0.19501   0.00000  Uiso   1.00
C233   C     0.29748   0.58060   0.29034   0.00000  Uiso   1.00
C234   C     0.28639   0.53236   0.35351   0.00000  Uiso   1.00
C235   C     0.26601   0.47350   0.48417   0.00000  Uiso   1.00
C236   C     0.34782   0.57625   0.10021   0.00000  Uiso   1.00
C237   C     0.37005   0.61038   0.11581   0.00000  Uiso   1.00
C238   C     0.39215   0.57576   0.09916   0.00000  Uiso   1.00
C239   C     0.43298   0.54203   0.08255   0.00000  Uiso   1.00
C240   C     0.30820   0.59339   0.00730   0.00000  Uiso   1.00
C241   C     0.29714   0.64194   0.94478   0.00000  Uiso   1.00
C242   C     0.28589   0.62176   0.84989   0.00000  Uiso   1.00
C243   C     0.26522   0.61465   0.68904   0.00000  Uiso   1.00
C244   C     0.32124   0.48231   0.05660   0.00000  Uiso   1.00
C245   C     0.30823   0.49371   0.16386   0.00000  Uiso   1.00
C246   C     0.29716   0.44543   0.22691   0.00000  Uiso   1.00
C247   C     0.28623   0.46589   0.32231   0.00000  Uiso   1.00
C248   C     0.34766   0.50989   0.06906   0.00000  Uiso   1.00
C249   C     0.36973   0.47522   0.05238   0.00000  Uiso   1.00
C250   C     0.39199   0.50929   0.06796   0.00000  Uiso   1.00
C251   C     0.30805   0.52704   0.97616   0.00000  Uiso   1.00
C252   C     0.29682   0.50678   0.88135   0.00000  Uiso   1.00
C253   C     0.28574   0.55529   0.81869   0.00000  Uiso   1.00
H254   H     0.32166   0.65613   0.13818   0.00000  Uiso   1.00
H255   H     0.29761   0.63195   0.31442   0.00000  Uiso   1.00
H256   H     0.37017   0.66173   0.13990   0.00000  Uiso   1.00
H257   H     0.29726   0.69329   0.96890   0.00000  Uiso   1.00
H258   H     0.27088   0.57587   0.49610   0.00000  Uiso   1.00
H259   H     0.42388   0.63867   0.12809   0.00000  Uiso   1.00
H260   H     0.27015   0.70522   0.76750   0.00000  Uiso   1.00
H261   H     0.32112   0.43065   0.03235   0.00000  Uiso   1.00
H262   H     0.29704   0.39409   0.20278   0.00000  Uiso   1.00
H263   H     0.36960   0.42387   0.02827   0.00000  Uiso   1.00
H264   H     0.29670   0.45543   0.85727   0.00000  Uiso   1.00
H265   H     0.27042   0.38281   0.40550   0.00000  Uiso   1.00
H266   H     0.42342   0.44561   0.03748   0.00000  Uiso   1.00
H267   H     0.26969   0.51216   0.67689   0.00000  Uiso   1.00
O268   O     0.25482   0.45936   0.56484   0.00000  Uiso   1.00
O269   O     0.45555   0.54175   0.08201   0.00000  Uiso   1.00
O270   O     0.25386   0.62906   0.60892   0.00000  Uiso   1.00
N271   N     0.27407   0.53545   0.45137   0.00000  Uiso   1.00
N272   N     0.41711   0.59417   0.10733   0.00000  Uiso   1.00
N273   N     0.27340   0.65638   0.77019   0.00000  Uiso   1.00
N274   N     0.27382   0.43157   0.40262   0.00000  Uiso   1.00
N275   N     0.41687   0.49028   0.05857   0.00000  Uiso   1.00
N276   N     0.27315   0.55250   0.72143   0.00000  Uiso   1.00
C277   C     0.82153   0.10447   0.11393   0.00000  Uiso   1.00
C278   C     0.80839   0.06007   0.19501   0.00000  Uiso   1.00
C279   C     0.79748   0.08060   0.29034   0.00000  Uiso   1.00
C280   C     0.78639   0.03236   0.35351   0.00000  Uiso   1.00
C281   C     0.76601   0.97350   0.48417   0.00000  Uiso   1.00
C282   C     0.84782   0.07625   0.10021   0.00000  Uiso   1.00
C283   C     0.87005   0.11038   0.11581   0.00000  Uiso   1.00
C284   C     0.89215   0.07576   0.09916   0.00000  Uiso   1.00
C285   C     0.93298   0.04203   0.08255   0.00000  Uiso   1.00
C286   C     0.80820   0.09339   0.00730   0.00000  Uiso   1.00
C287   C     0.79714   0.14194   0.94478   0.00000  Uiso   1.00
C288   C     0.78589   0.12176   0.84989   0.00000  Uiso   1.00
C289   C     0.76522   0.11465   0.68904   0.00000  Uiso   1.00
C290   C     0.82124   0.98231   0.05660   0.00000  Uiso   1.00
C291   C     0.80823   0.99371   0.16386   0.00000  Uiso   1.00
C292   C     0.79716   0.94543   0.22691   0.00000  Uiso   1.00
C293   C     0.78623   0.96589   0.32231   0.00000  Uiso   1.00
C294   C     0.84766   0.00989   0.06906   0.00000  Uiso   1.00
C295   C     0.86973   0.97522   0.05238   0.00000  Uiso   1.00
C296   C     0.89199   0.00929   0.06796   0.00000  Uiso   1.00
C297   C     0.80805   0.02704   0.97616   0.00000  Uiso   1.00
C298   C     0.79682   0.00678   0.88135   0.00000  Uiso   1.00
C299   C     0.78574   0.05529   0.81869   0.00000  Uiso   1.00
H300   H     0.82166   0.15613   0.13818   0.00000  Uiso   1.00
H301   H     0.79761   0.13195   0.31442   0.00000  Uiso   1.00
H302   H     0.87017   0.16173   0.13990   0.00000  Uiso   1.00
H303   H     0.79726   0.19329   0.96890   0.00000  Uiso   1.00
H304   H     0.77088   0.07587   0.49610   0.00000  Uiso   1.00
H305   H     0.92388   0.13867   0.12809   0.00000  Uiso   1.00
H306   H     0.77015   0.20522   0.76750   0.00000  Uiso   1.00
H307   H     0.82112   0.93065   0.03235   0.00000  Uiso   1.00
H308   H     0.79704   0.89409   0.20278   0.00000  Uiso   1.00
H309   H     0.86960   0.92387   0.02827   0.00000  Uiso   1.00
H310   H     0.79670   0.95543   0.85727   0.00000  Uiso   1.00
H311   H     0.77042   0.88281   0.40550   0.00000  Uiso   1.00
H312   H     0.92342   0.94561   0.03748   0.00000  Uiso   1.00
H313   H     0.76969   0.01216   0.67689   0.00000  Uiso   1.00
O314   O     0.75482   0.95936   0.56484   0.00000  Uiso   1.00
O315   O     0.95555   0.04175   0.08201   0.00000  Uiso   1.00
O316   O     0.75386   0.12906   0.60892   0.00000  Uiso   1.00
N317   N     0.77407   0.03545   0.45137   0.00000  Uiso   1.00
N318   N     0.91711   0.09417   0.10733   0.00000  Uiso   1.00
N319   N     0.77340   0.15638   0.77019   0.00000  Uiso   1.00
N320   N     0.77382   0.93157   0.40262   0.00000  Uiso   1.00
N321   N     0.91687   0.99028   0.05857   0.00000  Uiso   1.00
N322   N     0.77315   0.05250   0.72143   0.00000  Uiso   1.00
C323   C     0.82153   0.60447   0.61393   0.00000  Uiso   1.00
C324   C     0.80839   0.56007   0.69501   0.00000  Uiso   1.00
C325   C     0.79748   0.58060   0.79034   0.00000  Uiso   1.00
C326   C     0.78639   0.53236   0.85351   0.00000  Uiso   1.00
C327   C     0.76601   0.47350   0.98417   0.00000  Uiso   1.00
C328   C     0.84782   0.57625   0.60021   0.00000  Uiso   1.00
C329   C     0.87005   0.61038   0.61581   0.00000  Uiso   1.00
C330   C     0.89215   0.57576   0.59916   0.00000  Uiso   1.00
C331   C     0.93298   0.54203   0.58255   0.00000  Uiso   1.00
C332   C     0.80820   0.59339   0.50730   0.00000  Uiso   1.00
C333   C     0.79714   0.64194   0.44478   0.00000  Uiso   1.00
C334   C     0.78589   0.62176   0.34989   0.00000  Uiso   1.00
C335   C     0.76522   0.61465   0.18904   0.00000  Uiso   1.00
C336   C     0.82124   0.48231   0.55660   0.00000  Uiso   1.00
C337   C     0.80823   0.49371   0.66386   0.00000  Uiso   1.00
C338   C     0.79716   0.44543   0.72691   0.00000  Uiso   1.00
C339   C     0.78623   0.46589   0.82231   0.00000  Uiso   1.00
C340   C     0.84766   0.50989   0.56906   0.00000  Uiso   1.00
C341   C     0.86973   0.47522   0.55238   0.00000  Uiso   1.00
C342   C     0.89199   0.50929   0.56796   0.00000  Uiso   1.00
C343   C     0.80805   0.52704   0.47616   0.00000  Uiso   1.00
C344   C     0.79682   0.50678   0.38135   0.00000  Uiso   1.00
C345   C     0.78574   0.55529   0.31869   0.00000  Uiso   1.00
H346   H     0.82166   0.65613   0.63818   0.00000  Uiso   1.00
H347   H     0.79761   0.63195   0.81442   0.00000  Uiso   1.00
H348   H     0.87017   0.66173   0.63990   0.00000  Uiso   1.00
H349   H     0.79726   0.69329   0.46890   0.00000  Uiso   1.00
H350   H     0.77088   0.57587   0.99610   0.00000  Uiso   1.00
H351   H     0.92388   0.63867   0.62809   0.00000  Uiso   1.00
H352   H     0.77015   0.70522   0.26750   0.00000  Uiso   1.00
H353   H     0.82112   0.43065   0.53235   0.00000  Uiso   1.00
H354   H     0.79704   0.39409   0.70278   0.00000  Uiso   1.00
H355   H     0.86960   0.42387   0.52827   0.00000  Uiso   1.00
H356   H     0.79670   0.45543   0.35727   0.00000  Uiso   1.00
H357   H     0.77042   0.38281   0.90550   0.00000  Uiso   1.00
H358   H     0.92342   0.44561   0.53748   0.00000  Uiso   1.00
H359   H     0.76969   0.51216   0.17689   0.00000  Uiso   1.00
O360   O     0.75482   0.45936   0.06484   0.00000  Uiso   1.00
O361   O     0.95555   0.54175   0.58201   0.00000  Uiso   1.00
O362   O     0.75386   0.62906   0.10892   0.00000  Uiso   1.00
N363   N     0.77407   0.53545   0.95137   0.00000  Uiso   1.00
N364   N     0.91711   0.59417   0.60733   0.00000  Uiso   1.00
N365   N     0.77340   0.65638   0.27019   0.00000  Uiso   1.00
N366   N     0.77382   0.43157   0.90262   0.00000  Uiso   1.00
N367   N     0.91687   0.49028   0.55857   0.00000  Uiso   1.00
N368   N     0.77315   0.55250   0.22143   0.00000  Uiso   1.00
C369   C     0.92847   0.35447   0.86393   0.00000  Uiso   1.00
C370   C     0.94161   0.31007   0.94501   0.00000  Uiso   1.00
C371   C     0.95252   0.33060   0.04034   0.00000  Uiso   1.00
C372   C     0.96361   0.28236   0.10351   0.00000  Uiso   1.00
C373   C     0.98399   0.22350   0.23417   0.00000  Uiso   1.00
C374   C     0.90218   0.32625   0.85021   0.00000  Uiso   1.00
C375   C     0.87995   0.36038   0.86581   0.00000  Uiso   1.00
C376   C     0.85785   0.32576   0.84916   0.00000  Uiso   1.00
C377   C     0.81702   0.29203   0.83255   0.00000  Uiso   1.00
C378   C     0.94180   0.34339   0.75730   0.00000  Uiso   1.00
C379   C     0.95286   0.39194   0.69478   0.00000  Uiso   1.00
C380   C     0.96411   0.37176   0.59989   0.00000  Uiso   1.00
C381   C     0.98478   0.36465   0.43904   0.00000  Uiso   1.00
C382   C     0.92876   0.23231   0.80660   0.00000  Uiso   1.00
C383   C     0.94177   0.24371   0.91386   0.00000  Uiso   1.00
C384   C     0.95284   0.19543   0.97691   0.00000  Uiso   1.00
C385   C     0.96377   0.21589   0.07231   0.00000  Uiso   1.00
C386   C     0.90234   0.25989   0.81906   0.00000  Uiso   1.00
C387   C     0.88027   0.22522   0.80238   0.00000  Uiso   1.00
C388   C     0.85801   0.25929   0.81796   0.00000  Uiso   1.00
C389   C     0.94195   0.27704   0.72616   0.00000  Uiso   1.00
C390   C     0.95318   0.25678   0.63135   0.00000  Uiso   1.00
C391   C     0.96426   0.30529   0.56869   0.00000  Uiso   1.00
H392   H     0.92834   0.40613   0.88818   0.00000  Uiso   1.00
H393   H     0.95239   0.38195   0.06442   0.00000  Uiso   1.00
H394   H     0.87983   0.41173   0.88990   0.00000  Uiso   1.00
H395   H     0.95274   0.44329   0.71890   0.00000  Uiso   1.00
H396   H     0.97912   0.32587   0.24610   0.00000  Uiso   1.00
H397   H     0.82612   0.38867   0.87809   0.00000  Uiso   1.00
H398   H     0.97985   0.45522   0.51750   0.00000  Uiso   1.00
H399   H     0.92888   0.18065   0.78235   0.00000  Uiso   1.00
H400   H     0.95296   0.14409   0.95278   0.00000  Uiso   1.00
H401   H     0.88040   0.17387   0.77827   0.00000  Uiso   1.00
H402   H     0.95330   0.20543   0.60727   0.00000  Uiso   1.00
H403   H     0.97958   0.13281   0.15550   0.00000  Uiso   1.00
H404   H     0.82658   0.19561   0.78748   0.00000  Uiso   1.00
H405   H     0.98031   0.26216   0.42689   0.00000  Uiso   1.00
O406   O     0.99518   0.20936   0.31484   0.00000  Uiso   1.00
O407   O     0.79445   0.29175   0.83201   0.00000  Uiso   1.00
O408   O     0.99614   0.37906   0.35892   0.00000  Uiso   1.00
N409   N     0.97593   0.28545   0.20137   0.00000  Uiso   1.00
N410   N     0.83289   0.34417   0.85733   0.00000  Uiso   1.00
N411   N     0.97660   0.40638   0.52019   0.00000  Uiso   1.00
N412   N     0.97618   0.18157   0.15262   0.00000  Uiso   1.00
N413   N     0.83313   0.24028   0.80857   0.00000  Uiso   1.00
N414   N     0.97685   0.30250   0.47143   0.00000  Uiso   1.00
C415   C     0.92847   0.85447   0.36393   0.00000  Uiso   1.00
C416   C     0.94161   0.81007   0.44501   0.00000  Uiso   1.00
C417   C     0.95252   0.83060   0.54034   0.00000  Uiso   1.00
C418   C     0.96361   0.78236   0.60351   0.00000  Uiso   1.00
C419   C     0.98399   0.72350   0.73417   0.00000  Uiso   1.00
C420   C     0.90218   0.82625   0.35021   0.00000  Uiso   1.00
C421   C     0.87995   0.86038   0.36581   0.00000  Uiso   1.00
C422   C     0.85785   0.82576   0.34916   0.00000  Uiso   1.00
C423   C     0.81702   0.79203   0.33255   0.00000  Uiso   1.00
C424   C     0.94180   0.84339   0.25730   0.00000  Uiso   1.00
C425   C     0.95286   0.89194   0.19478   0.00000  Uiso   1.00
C426   C     0.96411   0.87176   0.09989   0.00000  Uiso   1.00
C427   C     0.98478   0.86465   0.93904   0.00000  Uiso   1.00
C428   C     0.92876   0.73231   0.30660   0.00000  Uiso   1.00
C429   C     0.94177   0.74371   0.41386   0.00000  Uiso   1.00
C430   C     0.95284   0.69543   0.47691   0.00000  Uiso   1.00
C431   C     0.96377   0.71589   0.57231   0.00000  Uiso   1.00
C432   C     0.90234   0.75989   0.31906   0.00000  Uiso   1.00
C433   C     0.88027   0.72522   0.30238   0.00000  Uiso   1.00
C434   C     0.85801   0.75929   0.31796   0.00000  Uiso   1.00
C435   C     0.94195   0.77704   0.22616   0.00000  Uiso   1.00
C436   C     0.95318   0.75678   0.13135   0.00000  Uiso   1.00
C437   C     0.96426   0.80529   0.06869   0.00000  Uiso   1.00
H438   H     0.92834   0.90613   0.38818   0.00000  Uiso   1.00
H439   H     0.95239   0.88195   0.56442   0.00000  Uiso   1.00
H440   H     0.87983   0.91173   0.38990   0.00000  Uiso   1.00
H441   H     0.95274   0.94329   0.21890   0.00000  Uiso   1.00
H442   H     0.97912   0.82587   0.74610   0.00000  Uiso   1.00
H443   H     0.82612   0.88867   0.37809   0.00000  Uiso   1.00
H444   H     0.97985   0.95522   0.01750   0.00000  Uiso   1.00
H445   H     0.92888   0.68065   0.28235   0.00000  Uiso   1.00
H446   H     0.95296   0.64409   0.45278   0.00000  Uiso   1.00
H447   H     0.88040   0.67387   0.27827   0.00000  Uiso   1.00
H448   H     0.95330   0.70543   0.10727   0.00000  Uiso   1.00
H449   H     0.97958   0.63281   0.65550   0.00000  Uiso   1.00
H450   H     0.82658   0.69561   0.28748   0.00000  Uiso   1.00
H451   H     0.98031   0.76216   0.92689   0.00000  Uiso   1.00
O452   O     0.99518   0.70936   0.81484   0.00000  Uiso   1.00
O453   O     0.79445   0.79175   0.33201   0.00000  Uiso   1.00
O454   O     0.99614   0.87906   0.85892   0.00000  Uiso   1.00
N455   N     0.97593   0.78545   0.70137   0.00000  Uiso   1.00
N456   N     0.83289   0.84417   0.35733   0.00000  Uiso   1.00
N457   N     0.97660   0.90638   0.02019   0.00000  Uiso   1.00
N458   N     0.97618   0.68157   0.65262   0.00000  Uiso   1.00
N459   N     0.83313   0.74028   0.30857   0.00000  Uiso   1.00
N460   N     0.97685   0.80250   0.97143   0.00000  Uiso   1.00
C461   C     0.42847   0.35447   0.36393   0.00000  Uiso   1.00
C462   C     0.44161   0.31007   0.44501   0.00000  Uiso   1.00
C463   C     0.45252   0.33060   0.54034   0.00000  Uiso   1.00
C464   C     0.46361   0.28236   0.60351   0.00000  Uiso   1.00
C465   C     0.48399   0.22350   0.73417   0.00000  Uiso   1.00
C466   C     0.40218   0.32625   0.35021   0.00000  Uiso   1.00
C467   C     0.37995   0.36038   0.36581   0.00000  Uiso   1.00
C468   C     0.35785   0.32576   0.34916   0.00000  Uiso   1.00
C469   C     0.31702   0.29203   0.33255   0.00000  Uiso   1.00
C470   C     0.44180   0.34339   0.25730   0.00000  Uiso   1.00
C471   C     0.45286   0.39194   0.19478   0.00000  Uiso   1.00
C472   C     0.46411   0.37176   0.09989   0.00000  Uiso   1.00
C473   C     0.48478   0.36465   0.93904   0.00000  Uiso   1.00
C474   C     0.42876   0.23231   0.30660   0.00000  Uiso   1.00
C475   C     0.44177   0.24371   0.41386   0.00000  Uiso   1.00
C476   C     0.45284   0.19543   0.47691   0.00000  Uiso   1.00
C477   C     0.46377   0.21589   0.57231   0.00000  Uiso   1.00
C478   C     0.40234   0.25989   0.31906   0.00000  Uiso   1.00
C479   C     0.38027   0.22522   0.30238   0.00000  Uiso   1.00
C480   C     0.35801   0.25929   0.31796   0.00000  Uiso   1.00
C481   C     0.44195   0.27704   0.22616   0.00000  Uiso   1.00
C482   C     0.45318   0.25678   0.13135   0.00000  Uiso   1.00
C483   C     0.46426   0.30529   0.06869   0.00000  Uiso   1.00
H484   H     0.42834   0.40613   0.38818   0.00000  Uiso   1.00
H485   H     0.45239   0.38195   0.56442   0.00000  Uiso   1.00
H486   H     0.37983   0.41173   0.38990   0.00000  Uiso   1.00
H487   H     0.45274   0.44329   0.21890   0.00000  Uiso   1.00
H488   H     0.47912   0.32587   0.74610   0.00000  Uiso   1.00
H489   H     0.32612   0.38867   0.37809   0.00000  Uiso   1.00
H490   H     0.47985   0.45522   0.01750   0.00000  Uiso   1.00
H491   H     0.42888   0.18065   0.28235   0.00000  Uiso   1.00
H492   H     0.45296   0.14409   0.45278   0.00000  Uiso   1.00
H493   H     0.38040   0.17387   0.27827   0.00000  Uiso   1.00
H494   H     0.45330   0.20543   0.10727   0.00000  Uiso   1.00
H495   H     0.47958   0.13281   0.65550   0.00000  Uiso   1.00
H496   H     0.32658   0.19561   0.28748   0.00000  Uiso   1.00
H497   H     0.48031   0.26216   0.92689   0.00000  Uiso   1.00
O498   O     0.49518   0.20936   0.81484   0.00000  Uiso   1.00
O499   O     0.29445   0.29175   0.33201   0.00000  Uiso   1.00
O500   O     0.49614   0.37906   0.85892   0.00000  Uiso   1.00
N501   N     0.47593   0.28545   0.70137   0.00000  Uiso   1.00
N502   N     0.33289   0.34417   0.35733   0.00000  Uiso   1.00
N503   N     0.47660   0.40638   0.02019   0.00000  Uiso   1.00
N504   N     0.47618   0.18157   0.65262   0.00000  Uiso   1.00
N505   N     0.33313   0.24028   0.30857   0.00000  Uiso   1.00
N506   N     0.47685   0.30250   0.97143   0.00000  Uiso   1.00
C507   C     0.42847   0.85447   0.86393   0.00000  Uiso   1.00
C508   C     0.44161   0.81007   0.94501   0.00000  Uiso   1.00
C509   C     0.45252   0.83060   0.04034   0.00000  Uiso   1.00
C510   C     0.46361   0.78236   0.10351   0.00000  Uiso   1.00
C511   C     0.48399   0.72350   0.23417   0.00000  Uiso   1.00
C512   C     0.40218   0.82625   0.85021   0.00000  Uiso   1.00
C513   C     0.37995   0.86038   0.86581   0.00000  Uiso   1.00
C514   C     0.35785   0.82576   0.84916   0.00000  Uiso   1.00
C515   C     0.31702   0.79203   0.83255   0.00000  Uiso   1.00
C516   C     0.44180   0.84339   0.75730   0.00000  Uiso   1.00
C517   C     0.45286   0.89194   0.69478   0.00000  Uiso   1.00
C518   C     0.46411   0.87176   0.59989   0.00000  Uiso   1.00
C519   C     0.48478   0.86465   0.43904   0.00000  Uiso   1.00
C520   C     0.42876   0.73231   0.80660   0.00000  Uiso   1.00
C521   C     0.44177   0.74371   0.91386   0.00000  Uiso   1.00
C522   C     0.45284   0.69543   0.97691   0.00000  Uiso   1.00
C523   C     0.46377   0.71589   0.07231   0.00000  Uiso   1.00
C524   C     0.40234   0.75989   0.81906   0.00000  Uiso   1.00
C525   C     0.38027   0.72522   0.80238   0.00000  Uiso   1.00
C526   C     0.35801   0.75929   0.81796   0.00000  Uiso   1.00
C527   C     0.44195   0.77704   0.72616   0.00000  Uiso   1.00
C528   C     0.45318   0.75678   0.63135   0.00000  Uiso   1.00
C529   C     0.46426   0.80529   0.56869   0.00000  Uiso   1.00
H530   H     0.42834   0.90613   0.88818   0.00000  Uiso   1.00
H531   H     0.45239   0.88195   0.06442   0.00000  Uiso   1.00
H532   H     0.37983   0.91173   0.88990   0.00000  Uiso   1.00
H533   H     0.45274   0.94329   0.71890   0.00000  Uiso   1.00
H534   H     0.47912   0.82587   0.24610   0.00000  Uiso   1.00
H535   H     0.32612   0.88867   0.87809   0.00000  Uiso   1.00
H536   H     0.47985   0.95522   0.51750   0.00000  Uiso   1.00
H537   H     0.42888   0.68065   0.78235   0.00000  Uiso   1.00
H538   H     0.45296   0.64409   0.95278   0.00000  Uiso   1.00
H539   H     0.38040   0.67387   0.77827   0.00000  Uiso   1.00
H540   H     0.45330   0.70543   0.60727   0.00000  Uiso   1.00
H541   H     0.47958   0.63281   0.15550   0.00000  Uiso   1.00
H542   H     0.32658   0.69561   0.78748   0.00000  Uiso   1.00
H543   H     0.48031   0.76216   0.42689   0.00000  Uiso   1.00
O544   O     0.49518   0.70936   0.31484   0.00000  Uiso   1.00
O545   O     0.29445   0.79175   0.83201   0.00000  Uiso   1.00
O546   O     0.49614   0.87906   0.35892   0.00000  Uiso   1.00
N547   N     0.47593   0.78545   0.20137   0.00000  Uiso   1.00
N548   N     0.33289   0.84417   0.85733   0.00000  Uiso   1.00
N549   N     0.47660   0.90638   0.52019   0.00000  Uiso   1.00
N550   N     0.47618   0.68157   0.15262   0.00000  Uiso   1.00
N551   N     0.33313   0.74028   0.80857   0.00000  Uiso   1.00
N552   N     0.47685   0.80250   0.47143   0.00000  Uiso   1.00
C553   C     0.57153   0.14553   0.86393   0.00000  Uiso   1.00
C554   C     0.55839   0.18993   0.94501   0.00000  Uiso   1.00
C555   C     0.54748   0.16940   0.04034   0.00000  Uiso   1.00
C556   C     0.53639   0.21764   0.10351   0.00000  Uiso   1.00
C557   C     0.51601   0.27650   0.23417   0.00000  Uiso   1.00
C558   C     0.59782   0.17375   0.85021   0.00000  Uiso   1.00
C559   C     0.62005   0.13962   0.86581   0.00000  Uiso   1.00
C560   C     0.64215   0.17424   0.84916   0.00000  Uiso   1.00
C561   C     0.68298   0.20797   0.83255   0.00000  Uiso   1.00
C562   C     0.55820   0.15661   0.75730   0.00000  Uiso   1.00
C563   C     0.54714   0.10806   0.69478   0.00000  Uiso   1.00
C564   C     0.53589   0.12824   0.59989   0.00000  Uiso   1.00
C565   C     0.51522   0.13535   0.43904   0.00000  Uiso   1.00
C566   C     0.57124   0.26769   0.80660   0.00000  Uiso   1.00
C567   C     0.55823   0.25629   0.91386   0.00000  Uiso   1.00
C568   C     0.54716   0.30457   0.97691   0.00000  Uiso   1.00
C569   C     0.53623   0.28411   0.07231   0.00000  Uiso   1.00
C570   C     0.59766   0.24011   0.81906   0.00000  Uiso   1.00
C571   C     0.61973   0.27478   0.80238   0.00000  Uiso   1.00
C572   C     0.64199   0.24071   0.81796   0.00000  Uiso   1.00
C573   C     0.55805   0.22296   0.72616   0.00000  Uiso   1.00
C574   C     0.54682   0.24322   0.63135   0.00000  Uiso   1.00
C575   C     0.53574   0.19471   0.56869   0.00000  Uiso   1.00
H576   H     0.57166   0.09387   0.88818   0.00000  Uiso   1.00
H577   H     0.54761   0.11805   0.06442   0.00000  Uiso   1.00
H578   H     0.62017   0.08827   0.88990   0.00000  Uiso   1.00
H579   H     0.54726   0.05671   0.71890   0.00000  Uiso   1.00
H580   H     0.52088   0.17413   0.24610   0.00000  Uiso   1.00
H581   H     0.67388   0.11133   0.87809   0.00000  Uiso   1.00
H582   H     0.52015   0.04478   0.51750   0.00000  Uiso   1.00
H583   H     0.57112   0.31935   0.78235   0.00000  Uiso   1.00
H584   H     0.54704   0.35591   0.95278   0.00000  Uiso   1.00
H585   H     0.61960   0.32613   0.77827   0.00000  Uiso   1.00
H586   H     0.54670   0.29457   0.60727   0.00000  Uiso   1.00
H587   H     0.52042   0.36719   0.15550   0.00000  Uiso   1.00
H588   H     0.67342   0.30439   0.78748   0.00000  Uiso   1.00
H589   H     0.51969   0.23784   0.42689   0.00000  Uiso   1.00
O590   O     0.50482   0.29064   0.31484   0.00000  Uiso   1.00
O591   O     0.70555   0.20825   0.83201   0.00000  Uiso   1.00
O592   O     0.50386   0.12094   0.35892   0.00000  Uiso   1.00
N593   N     0.52407   0.21455   0.20137   0.00000  Uiso   1.00
N594   N     0.66711   0.15583   0.85733   0.00000  Uiso   1.00
N595   N     0.52340   0.09362   0.52019   0.00000  Uiso   1.00
N596   N     0.52382   0.31843   0.15262   0.00000  Uiso   1.00
N597   N     0.66687   0.25972   0.80857   0.00000  Uiso   1.00
N598   N     0.52315   0.19750   0.47143   0.00000  Uiso   1.00
C599   C     0.57153   0.64553   0.36393   0.00000  Uiso   1.00
C600   C     0.55839   0.68993   0.44501   0.00000  Uiso   1.00
C601   C     0.54748   0.66940   0.54034   0.00000  Uiso   1.00
C602   C     0.53639   0.71764   0.60351   0.00000  Uiso   1.00
C603   C     0.51601   0.77650   0.73417   0.00000  Uiso   1.00
C604   C     0.59782   0.67375   0.35021   0.00000  Uiso   1.00
C605   C     0.62005   0.63962   0.36581   0.00000  Uiso   1.00
C606   C     0.64215   0.67424   0.34916   0.00000  Uiso   1.00
C607   C     0.68298   0.70797   0.33255   0.00000  Uiso   1.00
C608   C     0.55820   0.65661   0.25730   0.00000  Uiso   1.00
C609   C     0.54714   0.60806   0.19478   0.00000  Uiso   1.00
C610   C     0.53589   0.62824   0.09989   0.00000  Uiso   1.00
C611   C     0.51522   0.63535   0.93904   0.00000  Uiso   1.00
C612   C     0.57124   0.76769   0.30660   0.00000  Uiso   1.00
C613   C     0.55823   0.75629   0.41386   0.00000  Uiso   1.00
C614   C     0.54716   0.80457   0.47691   0.00000  Uiso   1.00
C615   C     0.53623   0.78411   0.57231   0.00000  Uiso   1.00
C616   C     0.59766   0.74011   0.31906   0.00000  Uiso   1.00
C617   C     0.61973   0.77478   0.30238   0.00000  Uiso   1.00
C618   C     0.64199   0.74071   0.31796   0.00000  Uiso   1.00
C619   C     0.55805   0.72296   0.22616   0.00000  Uiso   1.00
C620   C     0.54682   0.74322   0.13135   0.00000  Uiso   1.00
C621   C     0.53574   0.69471   0.06869   0.00000  Uiso   1.00
H622   H     0.57166   0.59387   0.38818   0.00000  Uiso   1.00
H623   H     0.54761   0.61805   0.56442   0.00000  Uiso   1.00
H624   H     0.62017   0.58827   0.38990   0.00000  Uiso   1.00
H625   H     0.54726   0.55671   0.21890   0.00000  Uiso   1.00
H626   H     0.52088   0.67413   0.74610   0.00000  Uiso   1.00
H627   H     0.67388   0.61133   0.37809   0.00000  Uiso   1.00
H628   H     0.52015   0.54478   0.01750   0.00000  Uiso   1.00
H629   H     0.57112   0.81935   0.28235   0.00000  Uiso   1.00
H630   H     0.54704   0.85591   0.45278   0.00000  Uiso   1.00
H631   H     0.61960   0.82613   0.27827   0.00000  Uiso   1.00
H632   H     0.54670   0.79457   0.10727   0.00000  Uiso   1.00
H633   H     0.52042   0.86719   0.65550   0.00000  Uiso   1.00
H634   H     0.67342   0.80439   0.28748   0.00000  Uiso   1.00
H635   H     0.51969   0.73784   0.92689   0.00000  Uiso   1.00
O636   O     0.50482   0.79064   0.81484   0.00000  Uiso   1.00
O637   O     0.70555   0.70825   0.33201   0.00000  Uiso   1.00
O638   O     0.50386   0.62094   0.85892   0.00000  Uiso   1.00
N639   N     0.52407   0.71455   0.70137   0.00000  Uiso   1.00
N640   N     0.66711   0.65583   0.35733   0.00000  Uiso   1.00
N641   N     0.52340   0.59362   0.02019   0.00000  Uiso   1.00
N642   N     0.52382   0.81843   0.65262   0.00000  Uiso   1.00
N643   N     0.66687   0.75972   0.30857   0.00000  Uiso   1.00
N644   N     0.52315   0.69750   0.97143   0.00000  Uiso   1.00
C645   C     0.07153   0.14553   0.36393   0.00000  Uiso   1.00
C646   C     0.05839   0.18993   0.44501   0.00000  Uiso   1.00
C647   C     0.04748   0.16940   0.54034   0.00000  Uiso   1.00
C648   C     0.03639   0.21764   0.60351   0.00000  Uiso   1.00
C649   C     0.01601   0.27650   0.73417   0.00000  Uiso   1.00
C650   C     0.09782   0.17375   0.35021   0.00000  Uiso   1.00
C651   C     0.12005   0.13962   0.36581   0.00000  Uiso   1.00
C652   C     0.14215   0.17424   0.34916   0.00000  Uiso   1.00
C653   C     0.18298   0.20797   0.33255   0.00000  Uiso   1.00
C654   C     0.05820   0.15661   0.25730   0.00000  Uiso   1.00
C655   C     0.04714   0.10806   0.19478   0.00000  Uiso   1.00
C656   C     0.03589   0.12824   0.09989   0.00000  Uiso   1.00
C657   C     0.01522   0.13535   0.93904   0.00000  Uiso   1.00
C658   C     0.07124   0.26769   0.30660   0.00000  Uiso   1.00
C659   C     0.05823   0.25629   0.41386   0.00000  Uiso   1.00
C660   C     0.04716   0.30457   0.47691   0.00000  Uiso   1.00
C661   C     0.03623   0.28411   0.57231   0.00000  Uiso   1.00
C662   C     0.09766   0.24011   0.31906   0.00000  Uiso   1.00
C663   C     0.11973   0.27478   0.30238   0.00000  Uiso   1.00
C664   C     0.14199   0.24071   0.31796   0.00000  Uiso   1.00
C665   C     0.05805   0.22296   0.22616   0.00000  Uiso   1.00
C666   C     0.04682   0.24322   0.13135   0.00000  Uiso   1.00
C667   C     0.03574   0.19471   0.06869   0.00000  Uiso   1.00
H668   H     0.07166   0.09387   0.38818   0.00000  Uiso   1.00
H669   H     0.04761   0.11805   0.56442   0.00000  Uiso   1.00
H670   H     0.12017   0.08827   0.38990   0.00000  Uiso   1.00
H671   H     0.04726   0.05671   0.21890   0.00000  Uiso   1.00
H672   H     0.02088   0.17413   0.74610   0.00000  Uiso   1.00
H673   H     0.17388   0.11133   0.37809   0.00000  Uiso   1.00
H674   H     0.02015   0.04478   0.01750   0.00000  Uiso   1.00
H675   H     0.07112   0.31935   0.28235   0.00000  Uiso   1.00
H676   H     0.04704   0.35591   0.45278   0.00000  Uiso   1.00
H677   H     0.11960   0.32613   0.27827   0.00000  Uiso   1.00
H678   H     0.04670   0.29457   0.10727   0.00000  Uiso   1.00
H679   H     0.02042   0.36719   0.65550   0.00000  Uiso   1.00
H680   H     0.17342   0.30439   0.28748   0.00000  Uiso   1.00
H681   H     0.01969   0.23784   0.92689   0.00000  Uiso   1.00
O682   O     0.00482   0.29064   0.81484   0.00000  Uiso   1.00
O683   O     0.20555   0.20825   0.33201   0.00000  Uiso   1.00
O684   O     0.00386   0.12094   0.85892   0.00000  Uiso   1.00
N685   N     0.02407   0.21455   0.70137   0.00000  Uiso   1.00
N686   N     0.16711   0.15583   0.35733   0.00000  Uiso   1.00
N687   N     0.02340   0.09362   0.02019   0.00000  Uiso   1.00
N688   N     0.02382   0.31843   0.65262   0.00000  Uiso   1.00
N689   N     0.16687   0.25972   0.30857   0.00000  Uiso   1.00
N690   N     0.02315   0.19750   0.97143   0.00000  Uiso   1.00
C691   C     0.07153   0.64553   0.86393   0.00000  Uiso   1.00
C692   C     0.05839   0.68993   0.94501   0.00000  Uiso   1.00
C693   C     0.04748   0.66940   0.04034   0.00000  Uiso   1.00
C694   C     0.03639   0.71764   0.10351   0.00000  Uiso   1.00
C695   C     0.01601   0.77650   0.23417   0.00000  Uiso   1.00
C696   C     0.09782   0.67375   0.85021   0.00000  Uiso   1.00
C697   C     0.12005   0.63962   0.86581   0.00000  Uiso   1.00
C698   C     0.14215   0.67424   0.84916   0.00000  Uiso   1.00
C699   C     0.18298   0.70797   0.83255   0.00000  Uiso   1.00
C700   C     0.05820   0.65661   0.75730   0.00000  Uiso   1.00
C701   C     0.04714   0.60806   0.69478   0.00000  Uiso   1.00
C702   C     0.03589   0.62824   0.59989   0.00000  Uiso   1.00
C703   C     0.01522   0.63535   0.43904   0.00000  Uiso   1.00
C704   C     0.07124   0.76769   0.80660   0.00000  Uiso   1.00
C705   C     0.05823   0.75629   0.91386   0.00000  Uiso   1.00
C706   C     0.04716   0.80457   0.97691   0.00000  Uiso   1.00
C707   C     0.03623   0.78411   0.07231   0.00000  Uiso   1.00
C708   C     0.09766   0.74011   0.81906   0.00000  Uiso   1.00
C709   C     0.11973   0.77478   0.80238   0.00000  Uiso   1.00
C710   C     0.14199   0.74071   0.81796   0.00000  Uiso   1.00
C711   C     0.05805   0.72296   0.72616   0.00000  Uiso   1.00
C712   C     0.04682   0.74322   0.63135   0.00000  Uiso   1.00
C713   C     0.03574   0.69471   0.56869   0.00000  Uiso   1.00
H714   H     0.07166   0.59387   0.88818   0.00000  Uiso   1.00
H715   H     0.04761   0.61805   0.06442   0.00000  Uiso   1.00
H716   H     0.12017   0.58827   0.88990   0.00000  Uiso   1.00
H717   H     0.04726   0.55671   0.71890   0.00000  Uiso   1.00
H718   H     0.02088   0.67413   0.24610   0.00000  Uiso   1.00
H719   H     0.17388   0.61133   0.87809   0.00000  Uiso   1.00
H720   H     0.02015   0.54478   0.51750   0.00000  Uiso   1.00
H721   H     0.07112   0.81935   0.78235   0.00000  Uiso   1.00
H722   H     0.04704   0.85591   0.95278   0.00000  Uiso   1.00
H723   H     0.11960   0.82613   0.77827   0.00000  Uiso   1.00
H724   H     0.04670   0.79457   0.60727   0.00000  Uiso   1.00
H725   H     0.02042   0.86719   0.15550   0.00000  Uiso   1.00
H726   H     0.17342   0.80439   0.78748   0.00000  Uiso   1.00
H727   H     0.01969   0.73784   0.42689   0.00000  Uiso   1.00
O728   O     0.00482   0.79064   0.31484   0.00000  Uiso   1.00
O729   O     0.20555   0.70825   0.83201   0.00000  Uiso   1.00
O730   O     0.00386   0.62094   0.35892   0.00000  Uiso   1.00
N731   N     0.02407   0.71455   0.20137   0.00000  Uiso   1.00
N732   N     0.16711   0.65583   0.85733   0.00000  Uiso   1.00
N733   N     0.02340   0.59362   0.52019   0.00000  Uiso   1.00
N734   N     0.02382   0.81843   0.15262   0.00000  Uiso   1.00
N735   N     0.16687   0.75972   0.80857   0.00000  Uiso   1.00
N736   N     0.02315   0.69750   0.47143   0.00000  Uiso   1.00
