data_job_04943
_audit_creation_date              2018-12-19
_audit_creation_method            'Materials Studio'
_symmetry_space_group_name_H-M    'P1'
_symmetry_Int_Tables_number       1
_symmetry_cell_setting            triclinic
loop_
_symmetry_equiv_pos_as_xyz
  x,y,z
_cell_length_a                    12.2553
_cell_length_b                    38.4079
_cell_length_c                    22.3474
_cell_angle_alpha                 90.0000
_cell_angle_beta                  90.0000
_cell_angle_gamma                 90.0000
loop_
_atom_site_label
_atom_site_type_symbol
_atom_site_fract_x
_atom_site_fract_y
_atom_site_fract_z
_atom_site_U_iso_or_equiv
_atom_site_adp_type
_atom_site_occupancy
C1     C     0.34526   0.54323   0.63293   0.00000  Uiso   1.00
C2     C     0.23220   0.55580   0.61434   0.00000  Uiso   1.00
C3     C     0.16622   0.54047   0.57129   0.00000  Uiso   1.00
C4     C     0.06560   0.55591   0.56077   0.00000  Uiso   1.00
C5     C     0.89514   0.57092   0.52710   0.00000  Uiso   1.00
C6     C     0.42178   0.57408   0.62378   0.00000  Uiso   1.00
C7     C     0.51520   0.57412   0.58867   0.00000  Uiso   1.00
C8     C     0.57417   0.60495   0.58610   0.00000  Uiso   1.00
C9     C     0.69808   0.64834   0.56712   0.00000  Uiso   1.00
C10    C     0.33975   0.53727   0.70032   0.00000  Uiso   1.00
C11    C     0.36423   0.50637   0.72959   0.00000  Uiso   1.00
C12    C     0.35416   0.50622   0.79147   0.00000  Uiso   1.00
C13    C     0.35071   0.49246   0.89134   0.00000  Uiso   1.00
C14    C     0.28390   0.59790   0.69080   0.00000  Uiso   1.00
C15    C     0.19888   0.58549   0.64577   0.00000  Uiso   1.00
C16    C     0.09833   0.60096   0.63532   0.00000  Uiso   1.00
C17    C     0.03220   0.58566   0.59226   0.00000  Uiso   1.00
C18    C     0.38845   0.60377   0.65521   0.00000  Uiso   1.00
C19    C     0.44731   0.63461   0.65270   0.00000  Uiso   1.00
C20    C     0.54078   0.63470   0.61759   0.00000  Uiso   1.00
C21    C     0.30642   0.56697   0.73176   0.00000  Uiso   1.00
C22    C     0.29633   0.56687   0.79361   0.00000  Uiso   1.00
C23    C     0.32077   0.53597   0.82296   0.00000  Uiso   1.00
H24    H     0.37122   0.52011   0.60846   0.00000  Uiso   1.00
H25    H     0.19205   0.51749   0.54697   0.00000  Uiso   1.00
H26    H     0.54097   0.55114   0.56436   0.00000  Uiso   1.00
H27    H     0.39002   0.48340   0.70525   0.00000  Uiso   1.00
H28    H     0.97872   0.52769   0.49265   0.00000  Uiso   1.00
H29    H     0.71447   0.59863   0.52932   0.00000  Uiso   1.00
H30    H     0.39616   0.45580   0.82642   0.00000  Uiso   1.00
H31    H     0.25795   0.62102   0.71527   0.00000  Uiso   1.00
H32    H     0.07256   0.62394   0.65965   0.00000  Uiso   1.00
H33    H     0.42149   0.65759   0.67703   0.00000  Uiso   1.00
H34    H     0.27053   0.58985   0.81792   0.00000  Uiso   1.00
H35    H     0.88174   0.61409   0.58410   0.00000  Uiso   1.00
H36    H     0.61750   0.68503   0.62077   0.00000  Uiso   1.00
H37    H     0.29918   0.54220   0.91787   0.00000  Uiso   1.00
O38    O     0.81034   0.57100   0.49984   0.00000  Uiso   1.00
O39    O     0.77563   0.66407   0.54796   0.00000  Uiso   1.00
O40    O     0.35800   0.47667   0.93775   0.00000  Uiso   1.00
N41    N     0.98133   0.54762   0.52181   0.00000  Uiso   1.00
N42    N     0.66921   0.61395   0.55609   0.00000  Uiso   1.00
N43    N     0.37164   0.48041   0.83386   0.00000  Uiso   1.00
N44    N     0.92915   0.59411   0.57102   0.00000  Uiso   1.00
N45    N     0.61702   0.66044   0.60530   0.00000  Uiso   1.00
N46    N     0.31946   0.52690   0.88306   0.00000  Uiso   1.00
C47    C     0.34526   0.04323   0.13293   0.00000  Uiso   1.00
C48    C     0.23220   0.05580   0.11434   0.00000  Uiso   1.00
C49    C     0.16622   0.04047   0.07129   0.00000  Uiso   1.00
C50    C     0.06560   0.05591   0.06077   0.00000  Uiso   1.00
C51    C     0.89514   0.07092   0.02710   0.00000  Uiso   1.00
C52    C     0.42178   0.07408   0.12378   0.00000  Uiso   1.00
C53    C     0.51520   0.07412   0.08867   0.00000  Uiso   1.00
C54    C     0.57417   0.10495   0.08610   0.00000  Uiso   1.00
C55    C     0.69808   0.14834   0.06712   0.00000  Uiso   1.00
C56    C     0.33975   0.03727   0.20032   0.00000  Uiso   1.00
C57    C     0.36423   0.00637   0.22959   0.00000  Uiso   1.00
C58    C     0.35416   0.00622   0.29147   0.00000  Uiso   1.00
C59    C     0.35071   0.99246   0.39134   0.00000  Uiso   1.00
C60    C     0.28390   0.09790   0.19080   0.00000  Uiso   1.00
C61    C     0.19888   0.08549   0.14577   0.00000  Uiso   1.00
C62    C     0.09833   0.10096   0.13532   0.00000  Uiso   1.00
C63    C     0.03220   0.08566   0.09226   0.00000  Uiso   1.00
C64    C     0.38845   0.10377   0.15521   0.00000  Uiso   1.00
C65    C     0.44731   0.13461   0.15270   0.00000  Uiso   1.00
C66    C     0.54078   0.13470   0.11759   0.00000  Uiso   1.00
C67    C     0.30642   0.06697   0.23176   0.00000  Uiso   1.00
C68    C     0.29633   0.06687   0.29361   0.00000  Uiso   1.00
C69    C     0.32077   0.03597   0.32296   0.00000  Uiso   1.00
H70    H     0.37122   0.02011   0.10846   0.00000  Uiso   1.00
H71    H     0.19205   0.01749   0.04697   0.00000  Uiso   1.00
H72    H     0.54097   0.05114   0.06436   0.00000  Uiso   1.00
H73    H     0.39002   0.98340   0.20525   0.00000  Uiso   1.00
H74    H     0.97872   0.02769   0.99265   0.00000  Uiso   1.00
H75    H     0.71447   0.09863   0.02932   0.00000  Uiso   1.00
H76    H     0.39616   0.95580   0.32642   0.00000  Uiso   1.00
H77    H     0.25795   0.12102   0.21527   0.00000  Uiso   1.00
H78    H     0.07256   0.12394   0.15965   0.00000  Uiso   1.00
H79    H     0.42149   0.15759   0.17703   0.00000  Uiso   1.00
H80    H     0.27053   0.08985   0.31792   0.00000  Uiso   1.00
H81    H     0.88174   0.11409   0.08410   0.00000  Uiso   1.00
H82    H     0.61750   0.18503   0.12077   0.00000  Uiso   1.00
H83    H     0.29918   0.04220   0.41787   0.00000  Uiso   1.00
O84    O     0.81034   0.07100   0.99984   0.00000  Uiso   1.00
O85    O     0.77563   0.16407   0.04796   0.00000  Uiso   1.00
O86    O     0.35800   0.97667   0.43775   0.00000  Uiso   1.00
N87    N     0.98133   0.04762   0.02181   0.00000  Uiso   1.00
N88    N     0.66921   0.11395   0.05609   0.00000  Uiso   1.00
N89    N     0.37164   0.98041   0.33386   0.00000  Uiso   1.00
N90    N     0.92915   0.09411   0.07102   0.00000  Uiso   1.00
N91    N     0.61702   0.16044   0.10530   0.00000  Uiso   1.00
N92    N     0.31946   0.02690   0.38306   0.00000  Uiso   1.00
C93    C     0.84526   0.54323   0.13293   0.00000  Uiso   1.00
C94    C     0.73220   0.55580   0.11434   0.00000  Uiso   1.00
C95    C     0.66622   0.54047   0.07129   0.00000  Uiso   1.00
C96    C     0.56560   0.55591   0.06077   0.00000  Uiso   1.00
C97    C     0.39514   0.57092   0.02710   0.00000  Uiso   1.00
C98    C     0.92178   0.57408   0.12378   0.00000  Uiso   1.00
C99    C     0.01520   0.57412   0.08867   0.00000  Uiso   1.00
C100   C     0.07417   0.60495   0.08610   0.00000  Uiso   1.00
C101   C     0.19808   0.64834   0.06712   0.00000  Uiso   1.00
C102   C     0.83975   0.53727   0.20032   0.00000  Uiso   1.00
C103   C     0.86423   0.50637   0.22959   0.00000  Uiso   1.00
C104   C     0.85416   0.50622   0.29147   0.00000  Uiso   1.00
C105   C     0.85071   0.49246   0.39134   0.00000  Uiso   1.00
C106   C     0.78390   0.59790   0.19080   0.00000  Uiso   1.00
C107   C     0.69888   0.58549   0.14577   0.00000  Uiso   1.00
C108   C     0.59833   0.60096   0.13532   0.00000  Uiso   1.00
C109   C     0.53220   0.58566   0.09226   0.00000  Uiso   1.00
C110   C     0.88845   0.60377   0.15521   0.00000  Uiso   1.00
C111   C     0.94731   0.63461   0.15270   0.00000  Uiso   1.00
C112   C     0.04078   0.63470   0.11759   0.00000  Uiso   1.00
C113   C     0.80642   0.56697   0.23176   0.00000  Uiso   1.00
C114   C     0.79633   0.56687   0.29361   0.00000  Uiso   1.00
C115   C     0.82077   0.53597   0.32296   0.00000  Uiso   1.00
H116   H     0.87122   0.52011   0.10846   0.00000  Uiso   1.00
H117   H     0.69205   0.51749   0.04697   0.00000  Uiso   1.00
H118   H     0.04097   0.55114   0.06436   0.00000  Uiso   1.00
H119   H     0.89002   0.48340   0.20525   0.00000  Uiso   1.00
H120   H     0.47872   0.52769   0.99265   0.00000  Uiso   1.00
H121   H     0.21447   0.59863   0.02932   0.00000  Uiso   1.00
H122   H     0.89616   0.45580   0.32642   0.00000  Uiso   1.00
H123   H     0.75795   0.62102   0.21527   0.00000  Uiso   1.00
H124   H     0.57256   0.62394   0.15965   0.00000  Uiso   1.00
H125   H     0.92149   0.65759   0.17703   0.00000  Uiso   1.00
H126   H     0.77053   0.58985   0.31792   0.00000  Uiso   1.00
H127   H     0.38174   0.61409   0.08410   0.00000  Uiso   1.00
H128   H     0.11750   0.68503   0.12077   0.00000  Uiso   1.00
H129   H     0.79918   0.54220   0.41787   0.00000  Uiso   1.00
O130   O     0.31034   0.57100   0.99984   0.00000  Uiso   1.00
O131   O     0.27563   0.66407   0.04796   0.00000  Uiso   1.00
O132   O     0.85800   0.47667   0.43775   0.00000  Uiso   1.00
N133   N     0.48133   0.54762   0.02181   0.00000  Uiso   1.00
N134   N     0.16921   0.61395   0.05609   0.00000  Uiso   1.00
N135   N     0.87164   0.48041   0.33386   0.00000  Uiso   1.00
N136   N     0.42915   0.59411   0.07102   0.00000  Uiso   1.00
N137   N     0.11702   0.66044   0.10530   0.00000  Uiso   1.00
N138   N     0.81946   0.52690   0.38306   0.00000  Uiso   1.00
C139   C     0.84526   0.04323   0.63293   0.00000  Uiso   1.00
C140   C     0.73220   0.05580   0.61434   0.00000  Uiso   1.00
C141   C     0.66622   0.04047   0.57129   0.00000  Uiso   1.00
C142   C     0.56560   0.05591   0.56077   0.00000  Uiso   1.00
C143   C     0.39514   0.07092   0.52710   0.00000  Uiso   1.00
C144   C     0.92178   0.07408   0.62378   0.00000  Uiso   1.00
C145   C     0.01520   0.07412   0.58867   0.00000  Uiso   1.00
C146   C     0.07417   0.10495   0.58610   0.00000  Uiso   1.00
C147   C     0.19808   0.14834   0.56712   0.00000  Uiso   1.00
C148   C     0.83975   0.03727   0.70032   0.00000  Uiso   1.00
C149   C     0.86423   0.00637   0.72959   0.00000  Uiso   1.00
C150   C     0.85416   0.00622   0.79147   0.00000  Uiso   1.00
C151   C     0.85071   0.99246   0.89134   0.00000  Uiso   1.00
C152   C     0.78390   0.09790   0.69080   0.00000  Uiso   1.00
C153   C     0.69888   0.08549   0.64577   0.00000  Uiso   1.00
C154   C     0.59833   0.10096   0.63532   0.00000  Uiso   1.00
C155   C     0.53220   0.08566   0.59226   0.00000  Uiso   1.00
C156   C     0.88845   0.10377   0.65521   0.00000  Uiso   1.00
C157   C     0.94731   0.13461   0.65270   0.00000  Uiso   1.00
C158   C     0.04078   0.13470   0.61759   0.00000  Uiso   1.00
C159   C     0.80642   0.06697   0.73176   0.00000  Uiso   1.00
C160   C     0.79633   0.06687   0.79361   0.00000  Uiso   1.00
C161   C     0.82077   0.03597   0.82296   0.00000  Uiso   1.00
H162   H     0.87122   0.02011   0.60846   0.00000  Uiso   1.00
H163   H     0.69205   0.01749   0.54697   0.00000  Uiso   1.00
H164   H     0.04097   0.05114   0.56436   0.00000  Uiso   1.00
H165   H     0.89002   0.98340   0.70525   0.00000  Uiso   1.00
H166   H     0.47872   0.02769   0.49265   0.00000  Uiso   1.00
H167   H     0.21447   0.09863   0.52932   0.00000  Uiso   1.00
H168   H     0.89616   0.95580   0.82642   0.00000  Uiso   1.00
H169   H     0.75795   0.12102   0.71527   0.00000  Uiso   1.00
H170   H     0.57256   0.12394   0.65965   0.00000  Uiso   1.00
H171   H     0.92149   0.15759   0.67703   0.00000  Uiso   1.00
H172   H     0.77053   0.08985   0.81792   0.00000  Uiso   1.00
H173   H     0.38174   0.11409   0.58410   0.00000  Uiso   1.00
H174   H     0.11750   0.18503   0.62077   0.00000  Uiso   1.00
H175   H     0.79918   0.04220   0.91787   0.00000  Uiso   1.00
O176   O     0.31034   0.07100   0.49984   0.00000  Uiso   1.00
O177   O     0.27563   0.16407   0.54796   0.00000  Uiso   1.00
O178   O     0.85800   0.97667   0.93775   0.00000  Uiso   1.00
N179   N     0.48133   0.04762   0.52181   0.00000  Uiso   1.00
N180   N     0.16921   0.11395   0.55609   0.00000  Uiso   1.00
N181   N     0.87164   0.98041   0.83386   0.00000  Uiso   1.00
N182   N     0.42915   0.09411   0.57102   0.00000  Uiso   1.00
N183   N     0.11702   0.16044   0.60530   0.00000  Uiso   1.00
N184   N     0.81946   0.02690   0.88306   0.00000  Uiso   1.00
C185   C     0.65474   0.45677   0.63293   0.00000  Uiso   1.00
C186   C     0.76780   0.44420   0.61434   0.00000  Uiso   1.00
C187   C     0.83378   0.45953   0.57129   0.00000  Uiso   1.00
C188   C     0.93440   0.44409   0.56077   0.00000  Uiso   1.00
C189   C     0.10486   0.42908   0.52710   0.00000  Uiso   1.00
C190   C     0.57822   0.42592   0.62378   0.00000  Uiso   1.00
C191   C     0.48480   0.42588   0.58867   0.00000  Uiso   1.00
C192   C     0.42583   0.39505   0.58610   0.00000  Uiso   1.00
C193   C     0.30192   0.35166   0.56712   0.00000  Uiso   1.00
C194   C     0.66025   0.46273   0.70032   0.00000  Uiso   1.00
C195   C     0.63577   0.49363   0.72959   0.00000  Uiso   1.00
C196   C     0.64584   0.49378   0.79147   0.00000  Uiso   1.00
C197   C     0.64929   0.50754   0.89134   0.00000  Uiso   1.00
C198   C     0.71610   0.40210   0.69080   0.00000  Uiso   1.00
C199   C     0.80112   0.41451   0.64577   0.00000  Uiso   1.00
C200   C     0.90167   0.39904   0.63532   0.00000  Uiso   1.00
C201   C     0.96780   0.41434   0.59226   0.00000  Uiso   1.00
C202   C     0.61155   0.39623   0.65521   0.00000  Uiso   1.00
C203   C     0.55269   0.36539   0.65270   0.00000  Uiso   1.00
C204   C     0.45922   0.36530   0.61759   0.00000  Uiso   1.00
C205   C     0.69358   0.43303   0.73176   0.00000  Uiso   1.00
C206   C     0.70367   0.43313   0.79361   0.00000  Uiso   1.00
C207   C     0.67923   0.46403   0.82296   0.00000  Uiso   1.00
H208   H     0.62878   0.47989   0.60846   0.00000  Uiso   1.00
H209   H     0.80795   0.48251   0.54697   0.00000  Uiso   1.00
H210   H     0.45903   0.44886   0.56436   0.00000  Uiso   1.00
H211   H     0.60998   0.51660   0.70525   0.00000  Uiso   1.00
H212   H     0.02128   0.47231   0.49265   0.00000  Uiso   1.00
H213   H     0.28553   0.40137   0.52932   0.00000  Uiso   1.00
H214   H     0.60384   0.54420   0.82642   0.00000  Uiso   1.00
H215   H     0.74205   0.37898   0.71527   0.00000  Uiso   1.00
H216   H     0.92744   0.37606   0.65965   0.00000  Uiso   1.00
H217   H     0.57851   0.34241   0.67703   0.00000  Uiso   1.00
H218   H     0.72947   0.41015   0.81792   0.00000  Uiso   1.00
H219   H     0.11826   0.38591   0.58410   0.00000  Uiso   1.00
H220   H     0.38250   0.31497   0.62077   0.00000  Uiso   1.00
H221   H     0.70082   0.45780   0.91787   0.00000  Uiso   1.00
O222   O     0.18966   0.42900   0.49984   0.00000  Uiso   1.00
O223   O     0.22437   0.33593   0.54796   0.00000  Uiso   1.00
O224   O     0.64200   0.52333   0.93775   0.00000  Uiso   1.00
N225   N     0.01867   0.45238   0.52181   0.00000  Uiso   1.00
N226   N     0.33079   0.38605   0.55609   0.00000  Uiso   1.00
N227   N     0.62836   0.51959   0.83386   0.00000  Uiso   1.00
N228   N     0.07085   0.40589   0.57102   0.00000  Uiso   1.00
N229   N     0.38298   0.33956   0.60530   0.00000  Uiso   1.00
N230   N     0.68054   0.47310   0.88306   0.00000  Uiso   1.00
C231   C     0.65474   0.95677   0.13293   0.00000  Uiso   1.00
C232   C     0.76780   0.94420   0.11434   0.00000  Uiso   1.00
C233   C     0.83378   0.95953   0.07129   0.00000  Uiso   1.00
C234   C     0.93440   0.94409   0.06077   0.00000  Uiso   1.00
C235   C     0.10486   0.92908   0.02710   0.00000  Uiso   1.00
C236   C     0.57822   0.92592   0.12378   0.00000  Uiso   1.00
C237   C     0.48480   0.92588   0.08867   0.00000  Uiso   1.00
C238   C     0.42583   0.89505   0.08610   0.00000  Uiso   1.00
C239   C     0.30192   0.85166   0.06712   0.00000  Uiso   1.00
C240   C     0.66025   0.96273   0.20032   0.00000  Uiso   1.00
C241   C     0.63577   0.99363   0.22959   0.00000  Uiso   1.00
C242   C     0.64584   0.99378   0.29147   0.00000  Uiso   1.00
C243   C     0.64929   0.00754   0.39134   0.00000  Uiso   1.00
C244   C     0.71610   0.90210   0.19080   0.00000  Uiso   1.00
C245   C     0.80112   0.91451   0.14577   0.00000  Uiso   1.00
C246   C     0.90167   0.89904   0.13532   0.00000  Uiso   1.00
C247   C     0.96780   0.91434   0.09226   0.00000  Uiso   1.00
C248   C     0.61155   0.89623   0.15521   0.00000  Uiso   1.00
C249   C     0.55269   0.86539   0.15270   0.00000  Uiso   1.00
C250   C     0.45922   0.86530   0.11759   0.00000  Uiso   1.00
C251   C     0.69358   0.93303   0.23176   0.00000  Uiso   1.00
C252   C     0.70367   0.93313   0.29361   0.00000  Uiso   1.00
C253   C     0.67923   0.96403   0.32296   0.00000  Uiso   1.00
H254   H     0.62878   0.97989   0.10846   0.00000  Uiso   1.00
H255   H     0.80795   0.98251   0.04697   0.00000  Uiso   1.00
H256   H     0.45903   0.94886   0.06436   0.00000  Uiso   1.00
H257   H     0.60998   0.01660   0.20525   0.00000  Uiso   1.00
H258   H     0.02128   0.97231   0.99265   0.00000  Uiso   1.00
H259   H     0.28553   0.90137   0.02932   0.00000  Uiso   1.00
H260   H     0.60384   0.04420   0.32642   0.00000  Uiso   1.00
H261   H     0.74205   0.87898   0.21527   0.00000  Uiso   1.00
H262   H     0.92744   0.87606   0.15965   0.00000  Uiso   1.00
H263   H     0.57851   0.84241   0.17703   0.00000  Uiso   1.00
H264   H     0.72947   0.91015   0.31792   0.00000  Uiso   1.00
H265   H     0.11826   0.88591   0.08410   0.00000  Uiso   1.00
H266   H     0.38250   0.81497   0.12077   0.00000  Uiso   1.00
H267   H     0.70082   0.95780   0.41787   0.00000  Uiso   1.00
O268   O     0.18966   0.92900   0.99984   0.00000  Uiso   1.00
O269   O     0.22437   0.83593   0.04796   0.00000  Uiso   1.00
O270   O     0.64200   0.02333   0.43775   0.00000  Uiso   1.00
N271   N     0.01867   0.95238   0.02181   0.00000  Uiso   1.00
N272   N     0.33079   0.88605   0.05609   0.00000  Uiso   1.00
N273   N     0.62836   0.01959   0.33386   0.00000  Uiso   1.00
N274   N     0.07085   0.90589   0.07102   0.00000  Uiso   1.00
N275   N     0.38298   0.83956   0.10530   0.00000  Uiso   1.00
N276   N     0.68054   0.97310   0.38306   0.00000  Uiso   1.00
C277   C     0.15474   0.45677   0.13293   0.00000  Uiso   1.00
C278   C     0.26780   0.44420   0.11434   0.00000  Uiso   1.00
C279   C     0.33378   0.45953   0.07129   0.00000  Uiso   1.00
C280   C     0.43440   0.44409   0.06077   0.00000  Uiso   1.00
C281   C     0.60486   0.42908   0.02710   0.00000  Uiso   1.00
C282   C     0.07822   0.42592   0.12378   0.00000  Uiso   1.00
C283   C     0.98480   0.42588   0.08867   0.00000  Uiso   1.00
C284   C     0.92583   0.39505   0.08610   0.00000  Uiso   1.00
C285   C     0.80192   0.35166   0.06712   0.00000  Uiso   1.00
C286   C     0.16025   0.46273   0.20032   0.00000  Uiso   1.00
C287   C     0.13577   0.49363   0.22959   0.00000  Uiso   1.00
C288   C     0.14584   0.49378   0.29147   0.00000  Uiso   1.00
C289   C     0.14929   0.50754   0.39134   0.00000  Uiso   1.00
C290   C     0.21610   0.40210   0.19080   0.00000  Uiso   1.00
C291   C     0.30112   0.41451   0.14577   0.00000  Uiso   1.00
C292   C     0.40167   0.39904   0.13532   0.00000  Uiso   1.00
C293   C     0.46780   0.41434   0.09226   0.00000  Uiso   1.00
C294   C     0.11155   0.39623   0.15521   0.00000  Uiso   1.00
C295   C     0.05269   0.36539   0.15270   0.00000  Uiso   1.00
C296   C     0.95922   0.36530   0.11759   0.00000  Uiso   1.00
C297   C     0.19358   0.43303   0.23176   0.00000  Uiso   1.00
C298   C     0.20367   0.43313   0.29361   0.00000  Uiso   1.00
C299   C     0.17923   0.46403   0.32296   0.00000  Uiso   1.00
H300   H     0.12878   0.47989   0.10846   0.00000  Uiso   1.00
H301   H     0.30795   0.48251   0.04697   0.00000  Uiso   1.00
H302   H     0.95903   0.44886   0.06436   0.00000  Uiso   1.00
H303   H     0.10998   0.51660   0.20525   0.00000  Uiso   1.00
H304   H     0.52128   0.47231   0.99265   0.00000  Uiso   1.00
H305   H     0.78553   0.40137   0.02932   0.00000  Uiso   1.00
H306   H     0.10384   0.54420   0.32642   0.00000  Uiso   1.00
H307   H     0.24205   0.37898   0.21527   0.00000  Uiso   1.00
H308   H     0.42744   0.37606   0.15965   0.00000  Uiso   1.00
H309   H     0.07851   0.34241   0.17703   0.00000  Uiso   1.00
H310   H     0.22947   0.41015   0.31792   0.00000  Uiso   1.00
H311   H     0.61826   0.38591   0.08410   0.00000  Uiso   1.00
H312   H     0.88250   0.31497   0.12077   0.00000  Uiso   1.00
H313   H     0.20082   0.45780   0.41787   0.00000  Uiso   1.00
O314   O     0.68966   0.42900   0.99984   0.00000  Uiso   1.00
O315   O     0.72437   0.33593   0.04796   0.00000  Uiso   1.00
O316   O     0.14200   0.52333   0.43775   0.00000  Uiso   1.00
N317   N     0.51867   0.45238   0.02181   0.00000  Uiso   1.00
N318   N     0.83079   0.38605   0.05609   0.00000  Uiso   1.00
N319   N     0.12836   0.51959   0.33386   0.00000  Uiso   1.00
N320   N     0.57085   0.40589   0.07102   0.00000  Uiso   1.00
N321   N     0.88298   0.33956   0.10530   0.00000  Uiso   1.00
N322   N     0.18054   0.47310   0.38306   0.00000  Uiso   1.00
C323   C     0.15474   0.95677   0.63293   0.00000  Uiso   1.00
C324   C     0.26780   0.94420   0.61434   0.00000  Uiso   1.00
C325   C     0.33378   0.95953   0.57129   0.00000  Uiso   1.00
C326   C     0.43440   0.94409   0.56077   0.00000  Uiso   1.00
C327   C     0.60486   0.92908   0.52710   0.00000  Uiso   1.00
C328   C     0.07822   0.92592   0.62378   0.00000  Uiso   1.00
C329   C     0.98480   0.92588   0.58867   0.00000  Uiso   1.00
C330   C     0.92583   0.89505   0.58610   0.00000  Uiso   1.00
C331   C     0.80192   0.85166   0.56712   0.00000  Uiso   1.00
C332   C     0.16025   0.96273   0.70032   0.00000  Uiso   1.00
C333   C     0.13577   0.99363   0.72959   0.00000  Uiso   1.00
C334   C     0.14584   0.99378   0.79147   0.00000  Uiso   1.00
C335   C     0.14929   0.00754   0.89134   0.00000  Uiso   1.00
C336   C     0.21610   0.90210   0.69080   0.00000  Uiso   1.00
C337   C     0.30112   0.91451   0.64577   0.00000  Uiso   1.00
C338   C     0.40167   0.89904   0.63532   0.00000  Uiso   1.00
C339   C     0.46780   0.91434   0.59226   0.00000  Uiso   1.00
C340   C     0.11155   0.89623   0.65521   0.00000  Uiso   1.00
C341   C     0.05269   0.86539   0.65270   0.00000  Uiso   1.00
C342   C     0.95922   0.86530   0.61759   0.00000  Uiso   1.00
C343   C     0.19358   0.93303   0.73176   0.00000  Uiso   1.00
C344   C     0.20367   0.93313   0.79361   0.00000  Uiso   1.00
C345   C     0.17923   0.96403   0.82296   0.00000  Uiso   1.00
H346   H     0.12878   0.97989   0.60846   0.00000  Uiso   1.00
H347   H     0.30795   0.98251   0.54697   0.00000  Uiso   1.00
H348   H     0.95903   0.94886   0.56436   0.00000  Uiso   1.00
H349   H     0.10998   0.01660   0.70525   0.00000  Uiso   1.00
H350   H     0.52128   0.97231   0.49265   0.00000  Uiso   1.00
H351   H     0.78553   0.90137   0.52932   0.00000  Uiso   1.00
H352   H     0.10384   0.04420   0.82642   0.00000  Uiso   1.00
H353   H     0.24205   0.87898   0.71527   0.00000  Uiso   1.00
H354   H     0.42744   0.87606   0.65965   0.00000  Uiso   1.00
H355   H     0.07851   0.84241   0.67703   0.00000  Uiso   1.00
H356   H     0.22947   0.91015   0.81792   0.00000  Uiso   1.00
H357   H     0.61826   0.88591   0.58410   0.00000  Uiso   1.00
H358   H     0.88250   0.81497   0.62077   0.00000  Uiso   1.00
H359   H     0.20082   0.95780   0.91787   0.00000  Uiso   1.00
O360   O     0.68966   0.92900   0.49984   0.00000  Uiso   1.00
O361   O     0.72437   0.83593   0.54796   0.00000  Uiso   1.00
O362   O     0.14200   0.02333   0.93775   0.00000  Uiso   1.00
N363   N     0.51867   0.95238   0.52181   0.00000  Uiso   1.00
N364   N     0.83079   0.88605   0.55609   0.00000  Uiso   1.00
N365   N     0.12836   0.01959   0.83386   0.00000  Uiso   1.00
N366   N     0.57085   0.90589   0.57102   0.00000  Uiso   1.00
N367   N     0.88298   0.83956   0.60530   0.00000  Uiso   1.00
N368   N     0.18054   0.97310   0.88306   0.00000  Uiso   1.00
C369   C     0.59526   0.70677   0.88293   0.00000  Uiso   1.00
C370   C     0.48220   0.69420   0.86434   0.00000  Uiso   1.00
C371   C     0.41622   0.70953   0.82129   0.00000  Uiso   1.00
C372   C     0.31560   0.69409   0.81077   0.00000  Uiso   1.00
C373   C     0.14514   0.67908   0.77710   0.00000  Uiso   1.00
C374   C     0.67178   0.67592   0.87378   0.00000  Uiso   1.00
C375   C     0.76520   0.67588   0.83867   0.00000  Uiso   1.00
C376   C     0.82417   0.64505   0.83610   0.00000  Uiso   1.00
C377   C     0.94808   0.60166   0.81712   0.00000  Uiso   1.00
C378   C     0.58975   0.71273   0.95032   0.00000  Uiso   1.00
C379   C     0.61423   0.74363   0.97959   0.00000  Uiso   1.00
C380   C     0.60416   0.74378   0.04147   0.00000  Uiso   1.00
C381   C     0.60071   0.75754   0.14134   0.00000  Uiso   1.00
C382   C     0.53390   0.65210   0.94080   0.00000  Uiso   1.00
C383   C     0.44888   0.66451   0.89577   0.00000  Uiso   1.00
C384   C     0.34833   0.64904   0.88532   0.00000  Uiso   1.00
C385   C     0.28220   0.66434   0.84226   0.00000  Uiso   1.00
C386   C     0.63845   0.64623   0.90521   0.00000  Uiso   1.00
C387   C     0.69731   0.61539   0.90270   0.00000  Uiso   1.00
C388   C     0.79078   0.61530   0.86759   0.00000  Uiso   1.00
C389   C     0.55642   0.68303   0.98176   0.00000  Uiso   1.00
C390   C     0.54633   0.68313   0.04361   0.00000  Uiso   1.00
C391   C     0.57077   0.71403   0.07296   0.00000  Uiso   1.00
H392   H     0.62122   0.72989   0.85846   0.00000  Uiso   1.00
H393   H     0.44205   0.73251   0.79697   0.00000  Uiso   1.00
H394   H     0.79097   0.69886   0.81436   0.00000  Uiso   1.00
H395   H     0.64002   0.76660   0.95525   0.00000  Uiso   1.00
H396   H     0.22872   0.72231   0.74265   0.00000  Uiso   1.00
H397   H     0.96447   0.65137   0.77932   0.00000  Uiso   1.00
H398   H     0.64616   0.79420   0.07642   0.00000  Uiso   1.00
H399   H     0.50795   0.62898   0.96527   0.00000  Uiso   1.00
H400   H     0.32256   0.62606   0.90965   0.00000  Uiso   1.00
H401   H     0.67149   0.59241   0.92703   0.00000  Uiso   1.00
H402   H     0.52053   0.66015   0.06792   0.00000  Uiso   1.00
H403   H     0.13174   0.63591   0.83410   0.00000  Uiso   1.00
H404   H     0.86750   0.56497   0.87077   0.00000  Uiso   1.00
H405   H     0.54918   0.70780   0.16787   0.00000  Uiso   1.00
O406   O     0.06034   0.67900   0.74984   0.00000  Uiso   1.00
O407   O     0.02563   0.58593   0.79796   0.00000  Uiso   1.00
O408   O     0.60800   0.77333   0.18775   0.00000  Uiso   1.00
N409   N     0.23133   0.70238   0.77181   0.00000  Uiso   1.00
N410   N     0.91921   0.63605   0.80609   0.00000  Uiso   1.00
N411   N     0.62164   0.76959   0.08386   0.00000  Uiso   1.00
N412   N     0.17915   0.65589   0.82102   0.00000  Uiso   1.00
N413   N     0.86702   0.58956   0.85530   0.00000  Uiso   1.00
N414   N     0.56946   0.72310   0.13306   0.00000  Uiso   1.00
C415   C     0.59526   0.20677   0.38293   0.00000  Uiso   1.00
C416   C     0.48220   0.19420   0.36434   0.00000  Uiso   1.00
C417   C     0.41622   0.20953   0.32129   0.00000  Uiso   1.00
C418   C     0.31560   0.19409   0.31077   0.00000  Uiso   1.00
C419   C     0.14514   0.17908   0.27710   0.00000  Uiso   1.00
C420   C     0.67178   0.17592   0.37378   0.00000  Uiso   1.00
C421   C     0.76520   0.17588   0.33867   0.00000  Uiso   1.00
C422   C     0.82417   0.14505   0.33610   0.00000  Uiso   1.00
C423   C     0.94808   0.10166   0.31712   0.00000  Uiso   1.00
C424   C     0.58975   0.21273   0.45032   0.00000  Uiso   1.00
C425   C     0.61423   0.24363   0.47959   0.00000  Uiso   1.00
C426   C     0.60416   0.24378   0.54147   0.00000  Uiso   1.00
C427   C     0.60071   0.25754   0.64134   0.00000  Uiso   1.00
C428   C     0.53390   0.15210   0.44080   0.00000  Uiso   1.00
C429   C     0.44888   0.16451   0.39577   0.00000  Uiso   1.00
C430   C     0.34833   0.14904   0.38532   0.00000  Uiso   1.00
C431   C     0.28220   0.16434   0.34226   0.00000  Uiso   1.00
C432   C     0.63845   0.14623   0.40521   0.00000  Uiso   1.00
C433   C     0.69731   0.11539   0.40270   0.00000  Uiso   1.00
C434   C     0.79078   0.11530   0.36759   0.00000  Uiso   1.00
C435   C     0.55642   0.18303   0.48176   0.00000  Uiso   1.00
C436   C     0.54633   0.18313   0.54361   0.00000  Uiso   1.00
C437   C     0.57077   0.21403   0.57296   0.00000  Uiso   1.00
H438   H     0.62122   0.22989   0.35846   0.00000  Uiso   1.00
H439   H     0.44205   0.23251   0.29697   0.00000  Uiso   1.00
H440   H     0.79097   0.19886   0.31436   0.00000  Uiso   1.00
H441   H     0.64002   0.26660   0.45525   0.00000  Uiso   1.00
H442   H     0.22872   0.22231   0.24265   0.00000  Uiso   1.00
H443   H     0.96447   0.15137   0.27932   0.00000  Uiso   1.00
H444   H     0.64616   0.29420   0.57642   0.00000  Uiso   1.00
H445   H     0.50795   0.12898   0.46527   0.00000  Uiso   1.00
H446   H     0.32256   0.12606   0.40965   0.00000  Uiso   1.00
H447   H     0.67149   0.09241   0.42703   0.00000  Uiso   1.00
H448   H     0.52053   0.16015   0.56792   0.00000  Uiso   1.00
H449   H     0.13174   0.13591   0.33410   0.00000  Uiso   1.00
H450   H     0.86750   0.06497   0.37077   0.00000  Uiso   1.00
H451   H     0.54918   0.20780   0.66787   0.00000  Uiso   1.00
O452   O     0.06034   0.17900   0.24984   0.00000  Uiso   1.00
O453   O     0.02563   0.08593   0.29796   0.00000  Uiso   1.00
O454   O     0.60800   0.27333   0.68775   0.00000  Uiso   1.00
N455   N     0.23133   0.20238   0.27181   0.00000  Uiso   1.00
N456   N     0.91921   0.13605   0.30609   0.00000  Uiso   1.00
N457   N     0.62164   0.26959   0.58386   0.00000  Uiso   1.00
N458   N     0.17915   0.15589   0.32102   0.00000  Uiso   1.00
N459   N     0.86702   0.08956   0.35530   0.00000  Uiso   1.00
N460   N     0.56946   0.22310   0.63306   0.00000  Uiso   1.00
C461   C     0.09526   0.70677   0.38293   0.00000  Uiso   1.00
C462   C     0.98220   0.69420   0.36434   0.00000  Uiso   1.00
C463   C     0.91622   0.70953   0.32129   0.00000  Uiso   1.00
C464   C     0.81560   0.69409   0.31077   0.00000  Uiso   1.00
C465   C     0.64514   0.67908   0.27710   0.00000  Uiso   1.00
C466   C     0.17178   0.67592   0.37378   0.00000  Uiso   1.00
C467   C     0.26520   0.67588   0.33867   0.00000  Uiso   1.00
C468   C     0.32417   0.64505   0.33610   0.00000  Uiso   1.00
C469   C     0.44808   0.60166   0.31712   0.00000  Uiso   1.00
C470   C     0.08975   0.71273   0.45032   0.00000  Uiso   1.00
C471   C     0.11423   0.74363   0.47959   0.00000  Uiso   1.00
C472   C     0.10416   0.74378   0.54147   0.00000  Uiso   1.00
C473   C     0.10071   0.75754   0.64134   0.00000  Uiso   1.00
C474   C     0.03390   0.65210   0.44080   0.00000  Uiso   1.00
C475   C     0.94888   0.66451   0.39577   0.00000  Uiso   1.00
C476   C     0.84833   0.64904   0.38532   0.00000  Uiso   1.00
C477   C     0.78220   0.66434   0.34226   0.00000  Uiso   1.00
C478   C     0.13845   0.64623   0.40521   0.00000  Uiso   1.00
C479   C     0.19731   0.61539   0.40270   0.00000  Uiso   1.00
C480   C     0.29078   0.61530   0.36759   0.00000  Uiso   1.00
C481   C     0.05642   0.68303   0.48176   0.00000  Uiso   1.00
C482   C     0.04633   0.68313   0.54361   0.00000  Uiso   1.00
C483   C     0.07077   0.71403   0.57296   0.00000  Uiso   1.00
H484   H     0.12122   0.72989   0.35846   0.00000  Uiso   1.00
H485   H     0.94205   0.73251   0.29697   0.00000  Uiso   1.00
H486   H     0.29097   0.69886   0.31436   0.00000  Uiso   1.00
H487   H     0.14002   0.76660   0.45525   0.00000  Uiso   1.00
H488   H     0.72872   0.72231   0.24265   0.00000  Uiso   1.00
H489   H     0.46447   0.65137   0.27932   0.00000  Uiso   1.00
H490   H     0.14616   0.79420   0.57642   0.00000  Uiso   1.00
H491   H     0.00795   0.62898   0.46527   0.00000  Uiso   1.00
H492   H     0.82256   0.62606   0.40965   0.00000  Uiso   1.00
H493   H     0.17149   0.59241   0.42703   0.00000  Uiso   1.00
H494   H     0.02053   0.66015   0.56792   0.00000  Uiso   1.00
H495   H     0.63174   0.63591   0.33410   0.00000  Uiso   1.00
H496   H     0.36750   0.56497   0.37077   0.00000  Uiso   1.00
H497   H     0.04918   0.70780   0.66787   0.00000  Uiso   1.00
O498   O     0.56034   0.67900   0.24984   0.00000  Uiso   1.00
O499   O     0.52563   0.58593   0.29796   0.00000  Uiso   1.00
O500   O     0.10800   0.77333   0.68775   0.00000  Uiso   1.00
N501   N     0.73133   0.70238   0.27181   0.00000  Uiso   1.00
N502   N     0.41921   0.63605   0.30609   0.00000  Uiso   1.00
N503   N     0.12164   0.76959   0.58386   0.00000  Uiso   1.00
N504   N     0.67915   0.65589   0.32102   0.00000  Uiso   1.00
N505   N     0.36702   0.58956   0.35530   0.00000  Uiso   1.00
N506   N     0.06946   0.72310   0.63306   0.00000  Uiso   1.00
C507   C     0.09526   0.20677   0.88293   0.00000  Uiso   1.00
C508   C     0.98220   0.19420   0.86434   0.00000  Uiso   1.00
C509   C     0.91622   0.20953   0.82129   0.00000  Uiso   1.00
C510   C     0.81560   0.19409   0.81077   0.00000  Uiso   1.00
C511   C     0.64514   0.17908   0.77710   0.00000  Uiso   1.00
C512   C     0.17178   0.17592   0.87378   0.00000  Uiso   1.00
C513   C     0.26520   0.17588   0.83867   0.00000  Uiso   1.00
C514   C     0.32417   0.14505   0.83610   0.00000  Uiso   1.00
C515   C     0.44808   0.10166   0.81712   0.00000  Uiso   1.00
C516   C     0.08975   0.21273   0.95032   0.00000  Uiso   1.00
C517   C     0.11423   0.24363   0.97959   0.00000  Uiso   1.00
C518   C     0.10416   0.24378   0.04147   0.00000  Uiso   1.00
C519   C     0.10071   0.25754   0.14134   0.00000  Uiso   1.00
C520   C     0.03390   0.15210   0.94080   0.00000  Uiso   1.00
C521   C     0.94888   0.16451   0.89577   0.00000  Uiso   1.00
C522   C     0.84833   0.14904   0.88532   0.00000  Uiso   1.00
C523   C     0.78220   0.16434   0.84226   0.00000  Uiso   1.00
C524   C     0.13845   0.14623   0.90521   0.00000  Uiso   1.00
C525   C     0.19731   0.11539   0.90270   0.00000  Uiso   1.00
C526   C     0.29078   0.11530   0.86759   0.00000  Uiso   1.00
C527   C     0.05642   0.18303   0.98176   0.00000  Uiso   1.00
C528   C     0.04633   0.18313   0.04361   0.00000  Uiso   1.00
C529   C     0.07077   0.21403   0.07296   0.00000  Uiso   1.00
H530   H     0.12122   0.22989   0.85846   0.00000  Uiso   1.00
H531   H     0.94205   0.23251   0.79697   0.00000  Uiso   1.00
H532   H     0.29097   0.19886   0.81436   0.00000  Uiso   1.00
H533   H     0.14002   0.26660   0.95525   0.00000  Uiso   1.00
H534   H     0.72872   0.22231   0.74265   0.00000  Uiso   1.00
H535   H     0.46447   0.15137   0.77932   0.00000  Uiso   1.00
H536   H     0.14616   0.29420   0.07642   0.00000  Uiso   1.00
H537   H     0.00795   0.12898   0.96527   0.00000  Uiso   1.00
H538   H     0.82256   0.12606   0.90965   0.00000  Uiso   1.00
H539   H     0.17149   0.09241   0.92703   0.00000  Uiso   1.00
H540   H     0.02053   0.16015   0.06792   0.00000  Uiso   1.00
H541   H     0.63174   0.13591   0.83410   0.00000  Uiso   1.00
H542   H     0.36750   0.06497   0.87077   0.00000  Uiso   1.00
H543   H     0.04918   0.20780   0.16787   0.00000  Uiso   1.00
O544   O     0.56034   0.17900   0.74984   0.00000  Uiso   1.00
O545   O     0.52563   0.08593   0.79796   0.00000  Uiso   1.00
O546   O     0.10800   0.27333   0.18775   0.00000  Uiso   1.00
N547   N     0.73133   0.20238   0.77181   0.00000  Uiso   1.00
N548   N     0.41921   0.13605   0.80609   0.00000  Uiso   1.00
N549   N     0.12164   0.26959   0.08386   0.00000  Uiso   1.00
N550   N     0.67915   0.15589   0.82102   0.00000  Uiso   1.00
N551   N     0.36702   0.08956   0.85530   0.00000  Uiso   1.00
N552   N     0.06946   0.22310   0.13306   0.00000  Uiso   1.00
C553   C     0.90474   0.79323   0.88293   0.00000  Uiso   1.00
C554   C     0.01780   0.80580   0.86434   0.00000  Uiso   1.00
C555   C     0.08378   0.79047   0.82129   0.00000  Uiso   1.00
C556   C     0.18440   0.80591   0.81077   0.00000  Uiso   1.00
C557   C     0.35486   0.82092   0.77710   0.00000  Uiso   1.00
C558   C     0.82822   0.82408   0.87378   0.00000  Uiso   1.00
C559   C     0.73480   0.82412   0.83867   0.00000  Uiso   1.00
C560   C     0.67583   0.85495   0.83610   0.00000  Uiso   1.00
C561   C     0.55192   0.89834   0.81712   0.00000  Uiso   1.00
C562   C     0.91025   0.78727   0.95032   0.00000  Uiso   1.00
C563   C     0.88577   0.75637   0.97959   0.00000  Uiso   1.00
C564   C     0.89584   0.75622   0.04147   0.00000  Uiso   1.00
C565   C     0.89929   0.74246   0.14134   0.00000  Uiso   1.00
C566   C     0.96610   0.84790   0.94080   0.00000  Uiso   1.00
C567   C     0.05112   0.83549   0.89577   0.00000  Uiso   1.00
C568   C     0.15167   0.85096   0.88532   0.00000  Uiso   1.00
C569   C     0.21780   0.83566   0.84226   0.00000  Uiso   1.00
C570   C     0.86155   0.85377   0.90521   0.00000  Uiso   1.00
C571   C     0.80269   0.88461   0.90270   0.00000  Uiso   1.00
C572   C     0.70922   0.88470   0.86759   0.00000  Uiso   1.00
C573   C     0.94358   0.81697   0.98176   0.00000  Uiso   1.00
C574   C     0.95367   0.81687   0.04361   0.00000  Uiso   1.00
C575   C     0.92923   0.78597   0.07296   0.00000  Uiso   1.00
H576   H     0.87878   0.77011   0.85846   0.00000  Uiso   1.00
H577   H     0.05795   0.76749   0.79697   0.00000  Uiso   1.00
H578   H     0.70903   0.80114   0.81436   0.00000  Uiso   1.00
H579   H     0.85998   0.73340   0.95525   0.00000  Uiso   1.00
H580   H     0.27128   0.77769   0.74265   0.00000  Uiso   1.00
H581   H     0.53553   0.84863   0.77932   0.00000  Uiso   1.00
H582   H     0.85384   0.70580   0.07642   0.00000  Uiso   1.00
H583   H     0.99205   0.87102   0.96527   0.00000  Uiso   1.00
H584   H     0.17744   0.87394   0.90965   0.00000  Uiso   1.00
H585   H     0.82851   0.90759   0.92703   0.00000  Uiso   1.00
H586   H     0.97947   0.83985   0.06792   0.00000  Uiso   1.00
H587   H     0.36826   0.86409   0.83410   0.00000  Uiso   1.00
H588   H     0.63250   0.93503   0.87077   0.00000  Uiso   1.00
H589   H     0.95082   0.79220   0.16787   0.00000  Uiso   1.00
O590   O     0.43966   0.82100   0.74984   0.00000  Uiso   1.00
O591   O     0.47437   0.91407   0.79796   0.00000  Uiso   1.00
O592   O     0.89200   0.72667   0.18775   0.00000  Uiso   1.00
N593   N     0.26867   0.79762   0.77181   0.00000  Uiso   1.00
N594   N     0.58079   0.86395   0.80609   0.00000  Uiso   1.00
N595   N     0.87836   0.73041   0.08386   0.00000  Uiso   1.00
N596   N     0.32085   0.84411   0.82102   0.00000  Uiso   1.00
N597   N     0.63298   0.91044   0.85530   0.00000  Uiso   1.00
N598   N     0.93054   0.77690   0.13306   0.00000  Uiso   1.00
C599   C     0.90474   0.29323   0.38293   0.00000  Uiso   1.00
C600   C     0.01780   0.30580   0.36434   0.00000  Uiso   1.00
C601   C     0.08378   0.29047   0.32129   0.00000  Uiso   1.00
C602   C     0.18440   0.30591   0.31077   0.00000  Uiso   1.00
C603   C     0.35486   0.32092   0.27710   0.00000  Uiso   1.00
C604   C     0.82822   0.32408   0.37378   0.00000  Uiso   1.00
C605   C     0.73480   0.32412   0.33867   0.00000  Uiso   1.00
C606   C     0.67583   0.35495   0.33610   0.00000  Uiso   1.00
C607   C     0.55192   0.39834   0.31712   0.00000  Uiso   1.00
C608   C     0.91025   0.28727   0.45032   0.00000  Uiso   1.00
C609   C     0.88577   0.25637   0.47959   0.00000  Uiso   1.00
C610   C     0.89584   0.25622   0.54147   0.00000  Uiso   1.00
C611   C     0.89929   0.24246   0.64134   0.00000  Uiso   1.00
C612   C     0.96610   0.34790   0.44080   0.00000  Uiso   1.00
C613   C     0.05112   0.33549   0.39577   0.00000  Uiso   1.00
C614   C     0.15167   0.35096   0.38532   0.00000  Uiso   1.00
C615   C     0.21780   0.33566   0.34226   0.00000  Uiso   1.00
C616   C     0.86155   0.35377   0.40521   0.00000  Uiso   1.00
C617   C     0.80269   0.38461   0.40270   0.00000  Uiso   1.00
C618   C     0.70922   0.38470   0.36759   0.00000  Uiso   1.00
C619   C     0.94358   0.31697   0.48176   0.00000  Uiso   1.00
C620   C     0.95367   0.31687   0.54361   0.00000  Uiso   1.00
C621   C     0.92923   0.28597   0.57296   0.00000  Uiso   1.00
H622   H     0.87878   0.27011   0.35846   0.00000  Uiso   1.00
H623   H     0.05795   0.26749   0.29697   0.00000  Uiso   1.00
H624   H     0.70903   0.30114   0.31436   0.00000  Uiso   1.00
H625   H     0.85998   0.23340   0.45525   0.00000  Uiso   1.00
H626   H     0.27128   0.27769   0.24265   0.00000  Uiso   1.00
H627   H     0.53553   0.34863   0.27932   0.00000  Uiso   1.00
H628   H     0.85384   0.20580   0.57642   0.00000  Uiso   1.00
H629   H     0.99205   0.37102   0.46527   0.00000  Uiso   1.00
H630   H     0.17744   0.37394   0.40965   0.00000  Uiso   1.00
H631   H     0.82851   0.40759   0.42703   0.00000  Uiso   1.00
H632   H     0.97947   0.33985   0.56792   0.00000  Uiso   1.00
H633   H     0.36826   0.36409   0.33410   0.00000  Uiso   1.00
H634   H     0.63250   0.43503   0.37077   0.00000  Uiso   1.00
H635   H     0.95082   0.29220   0.66787   0.00000  Uiso   1.00
O636   O     0.43966   0.32100   0.24984   0.00000  Uiso   1.00
O637   O     0.47437   0.41407   0.29796   0.00000  Uiso   1.00
O638   O     0.89200   0.22667   0.68775   0.00000  Uiso   1.00
N639   N     0.26867   0.29762   0.27181   0.00000  Uiso   1.00
N640   N     0.58079   0.36395   0.30609   0.00000  Uiso   1.00
N641   N     0.87836   0.23041   0.58386   0.00000  Uiso   1.00
N642   N     0.32085   0.34411   0.32102   0.00000  Uiso   1.00
N643   N     0.63298   0.41044   0.35530   0.00000  Uiso   1.00
N644   N     0.93054   0.27690   0.63306   0.00000  Uiso   1.00
C645   C     0.40474   0.79323   0.38293   0.00000  Uiso   1.00
C646   C     0.51780   0.80580   0.36434   0.00000  Uiso   1.00
C647   C     0.58378   0.79047   0.32129   0.00000  Uiso   1.00
C648   C     0.68440   0.80591   0.31077   0.00000  Uiso   1.00
C649   C     0.85486   0.82092   0.27710   0.00000  Uiso   1.00
C650   C     0.32822   0.82408   0.37378   0.00000  Uiso   1.00
C651   C     0.23480   0.82412   0.33867   0.00000  Uiso   1.00
C652   C     0.17583   0.85495   0.33610   0.00000  Uiso   1.00
C653   C     0.05192   0.89834   0.31712   0.00000  Uiso   1.00
C654   C     0.41025   0.78727   0.45032   0.00000  Uiso   1.00
C655   C     0.38577   0.75637   0.47959   0.00000  Uiso   1.00
C656   C     0.39584   0.75622   0.54147   0.00000  Uiso   1.00
C657   C     0.39929   0.74246   0.64134   0.00000  Uiso   1.00
C658   C     0.46610   0.84790   0.44080   0.00000  Uiso   1.00
C659   C     0.55112   0.83549   0.39577   0.00000  Uiso   1.00
C660   C     0.65167   0.85096   0.38532   0.00000  Uiso   1.00
C661   C     0.71780   0.83566   0.34226   0.00000  Uiso   1.00
C662   C     0.36155   0.85377   0.40521   0.00000  Uiso   1.00
C663   C     0.30269   0.88461   0.40270   0.00000  Uiso   1.00
C664   C     0.20922   0.88470   0.36759   0.00000  Uiso   1.00
C665   C     0.44358   0.81697   0.48176   0.00000  Uiso   1.00
C666   C     0.45367   0.81687   0.54361   0.00000  Uiso   1.00
C667   C     0.42923   0.78597   0.57296   0.00000  Uiso   1.00
H668   H     0.37878   0.77011   0.35846   0.00000  Uiso   1.00
H669   H     0.55795   0.76749   0.29697   0.00000  Uiso   1.00
H670   H     0.20903   0.80114   0.31436   0.00000  Uiso   1.00
H671   H     0.35998   0.73340   0.45525   0.00000  Uiso   1.00
H672   H     0.77128   0.77769   0.24265   0.00000  Uiso   1.00
H673   H     0.03553   0.84863   0.27932   0.00000  Uiso   1.00
H674   H     0.35384   0.70580   0.57642   0.00000  Uiso   1.00
H675   H     0.49205   0.87102   0.46527   0.00000  Uiso   1.00
H676   H     0.67744   0.87394   0.40965   0.00000  Uiso   1.00
H677   H     0.32851   0.90759   0.42703   0.00000  Uiso   1.00
H678   H     0.47947   0.83985   0.56792   0.00000  Uiso   1.00
H679   H     0.86826   0.86409   0.33410   0.00000  Uiso   1.00
H680   H     0.13250   0.93503   0.37077   0.00000  Uiso   1.00
H681   H     0.45082   0.79220   0.66787   0.00000  Uiso   1.00
O682   O     0.93966   0.82100   0.24984   0.00000  Uiso   1.00
O683   O     0.97437   0.91407   0.29796   0.00000  Uiso   1.00
O684   O     0.39200   0.72667   0.68775   0.00000  Uiso   1.00
N685   N     0.76867   0.79762   0.27181   0.00000  Uiso   1.00
N686   N     0.08079   0.86395   0.30609   0.00000  Uiso   1.00
N687   N     0.37836   0.73041   0.58386   0.00000  Uiso   1.00
N688   N     0.82085   0.84411   0.32102   0.00000  Uiso   1.00
N689   N     0.13298   0.91044   0.35530   0.00000  Uiso   1.00
N690   N     0.43054   0.77690   0.63306   0.00000  Uiso   1.00
C691   C     0.40474   0.29323   0.88293   0.00000  Uiso   1.00
C692   C     0.51780   0.30580   0.86434   0.00000  Uiso   1.00
C693   C     0.58378   0.29047   0.82129   0.00000  Uiso   1.00
C694   C     0.68440   0.30591   0.81077   0.00000  Uiso   1.00
C695   C     0.85486   0.32092   0.77710   0.00000  Uiso   1.00
C696   C     0.32822   0.32408   0.87378   0.00000  Uiso   1.00
C697   C     0.23480   0.32412   0.83867   0.00000  Uiso   1.00
C698   C     0.17583   0.35495   0.83610   0.00000  Uiso   1.00
C699   C     0.05192   0.39834   0.81712   0.00000  Uiso   1.00
C700   C     0.41025   0.28727   0.95032   0.00000  Uiso   1.00
C701   C     0.38577   0.25637   0.97959   0.00000  Uiso   1.00
C702   C     0.39584   0.25622   0.04147   0.00000  Uiso   1.00
C703   C     0.39929   0.24246   0.14134   0.00000  Uiso   1.00
C704   C     0.46610   0.34790   0.94080   0.00000  Uiso   1.00
C705   C     0.55112   0.33549   0.89577   0.00000  Uiso   1.00
C706   C     0.65167   0.35096   0.88532   0.00000  Uiso   1.00
C707   C     0.71780   0.33566   0.84226   0.00000  Uiso   1.00
C708   C     0.36155   0.35377   0.90521   0.00000  Uiso   1.00
C709   C     0.30269   0.38461   0.90270   0.00000  Uiso   1.00
C710   C     0.20922   0.38470   0.86759   0.00000  Uiso   1.00
C711   C     0.44358   0.31697   0.98176   0.00000  Uiso   1.00
C712   C     0.45367   0.31687   0.04361   0.00000  Uiso   1.00
C713   C     0.42923   0.28597   0.07296   0.00000  Uiso   1.00
H714   H     0.37878   0.27011   0.85846   0.00000  Uiso   1.00
H715   H     0.55795   0.26749   0.79697   0.00000  Uiso   1.00
H716   H     0.20903   0.30114   0.81436   0.00000  Uiso   1.00
H717   H     0.35998   0.23340   0.95525   0.00000  Uiso   1.00
H718   H     0.77128   0.27769   0.74265   0.00000  Uiso   1.00
H719   H     0.03553   0.34863   0.77932   0.00000  Uiso   1.00
H720   H     0.35384   0.20580   0.07642   0.00000  Uiso   1.00
H721   H     0.49205   0.37102   0.96527   0.00000  Uiso   1.00
H722   H     0.67744   0.37394   0.90965   0.00000  Uiso   1.00
H723   H     0.32851   0.40759   0.92703   0.00000  Uiso   1.00
H724   H     0.47947   0.33985   0.06792   0.00000  Uiso   1.00
H725   H     0.86826   0.36409   0.83410   0.00000  Uiso   1.00
H726   H     0.13250   0.43503   0.87077   0.00000  Uiso   1.00
H727   H     0.45082   0.29220   0.16787   0.00000  Uiso   1.00
O728   O     0.93966   0.32100   0.74984   0.00000  Uiso   1.00
O729   O     0.97437   0.41407   0.79796   0.00000  Uiso   1.00
O730   O     0.39200   0.22667   0.18775   0.00000  Uiso   1.00
N731   N     0.76867   0.29762   0.77181   0.00000  Uiso   1.00
N732   N     0.08079   0.36395   0.80609   0.00000  Uiso   1.00
N733   N     0.37836   0.23041   0.08386   0.00000  Uiso   1.00
N734   N     0.82085   0.34411   0.82102   0.00000  Uiso   1.00
N735   N     0.13298   0.41044   0.85530   0.00000  Uiso   1.00
N736   N     0.43054   0.27690   0.13306   0.00000  Uiso   1.00
