data_job_06819
_audit_creation_date              2018-12-19
_audit_creation_method            'Materials Studio'
_symmetry_space_group_name_H-M    'P1'
_symmetry_Int_Tables_number       1
_symmetry_cell_setting            triclinic
loop_
_symmetry_equiv_pos_as_xyz
  x,y,z
_cell_length_a                    25.4792
_cell_length_b                    35.6770
_cell_length_c                    36.9138
_cell_angle_alpha                 90.0000
_cell_angle_beta                  140.0322
_cell_angle_gamma                 90.0000
loop_
_atom_site_label
_atom_site_type_symbol
_atom_site_fract_x
_atom_site_fract_y
_atom_site_fract_z
_atom_site_U_iso_or_equiv
_atom_site_adp_type
_atom_site_occupancy
C1     C     0.88538   0.16694   0.07965   0.00000  Uiso   1.00
C2     C     0.44868   0.69731   0.10557   0.00000  Uiso   1.00
C3     C     0.49348   0.71656   0.15521   0.00000  Uiso   1.00
C4     C     0.54834   0.74331   0.17180   0.00000  Uiso   1.00
C5     C     0.64513   0.78938   0.21688   0.00000  Uiso   1.00
C6     C     0.80655   0.18011   0.01998   0.00000  Uiso   1.00
C7     C     0.73186   0.18488   0.99765   0.00000  Uiso   1.00
C8     C     0.66707   0.19714   0.94219   0.00000  Uiso   1.00
C9     C     0.54319   0.21647   0.85437   0.00000  Uiso   1.00
C10    C     0.91306   0.13252   0.07311   0.00000  Uiso   1.00
C11    C     0.92791   0.09728   0.09545   0.00000  Uiso   1.00
C12    C     0.95278   0.06947   0.08471   0.00000  Uiso   1.00
C13    C     0.99428   0.01492   0.07940   0.00000  Uiso   1.00
C14    C     0.40313   0.68024   0.02084   0.00000  Uiso   1.00
C15    C     0.45832   0.70453   0.07362   0.00000  Uiso   1.00
C16    C     0.51313   0.73126   0.09014   0.00000  Uiso   1.00
C17    C     0.55800   0.75054   0.13980   0.00000  Uiso   1.00
C18    C     0.81619   0.18733   0.98803   0.00000  Uiso   1.00
C19    C     0.75150   0.19958   0.93259   0.00000  Uiso   1.00
C20    C     0.67673   0.20437   0.91018   0.00000  Uiso   1.00
C21    C     0.42271   0.63974   0.04117   0.00000  Uiso   1.00
C22    C     0.44755   0.61199   0.03039   0.00000  Uiso   1.00
C23    C     0.96244   0.07671   0.05271   0.00000  Uiso   1.00
H24    H     0.87786   0.16132   0.10452   0.00000  Uiso   1.00
H25    H     0.98599   0.21096   0.17992   0.00000  Uiso   1.00
H26    H     0.72441   0.17928   0.02238   0.00000  Uiso   1.00
H27    H     0.92044   0.09170   0.12017   0.00000  Uiso   1.00
H28    H     0.61011   0.76919   0.24941   0.00000  Uiso   1.00
H29    H     0.55854   0.20238   0.91723   0.00000  Uiso   1.00
H30    H     0.97189   0.01770   0.12343   0.00000  Uiso   1.00
H31    H     0.41064   0.68586   0.99597   0.00000  Uiso   1.00
H32    H     0.52058   0.73684   0.06542   0.00000  Uiso   1.00
H33    H     0.25899   0.70516   0.90788   0.00000  Uiso   1.00
H34    H     0.45501   0.61758   0.00567   0.00000  Uiso   1.00
H35    H     0.63817   0.79020   0.15647   0.00000  Uiso   1.00
H36    H     0.58660   0.22339   0.82429   0.00000  Uiso   1.00
H37    H     0.99995   0.03870   0.03050   0.00000  Uiso   1.00
O38    O     0.69585   0.81280   0.25057   0.00000  Uiso   1.00
O39    O     0.47220   0.22514   0.81476   0.00000  Uiso   1.00
O40    O     0.01452   0.98284   0.08530   0.00000  Uiso   1.00
N41    N     0.60164   0.76713   0.21801   0.00000  Uiso   1.00
N42    N     0.58595   0.20468   0.90745   0.00000  Uiso   1.00
N43    N     0.97238   0.03201   0.10022   0.00000  Uiso   1.00
N44    N     0.61674   0.77844   0.16801   0.00000  Uiso   1.00
N45    N     0.60106   0.21598   0.85744   0.00000  Uiso   1.00
N46    N     0.98749   0.04331   0.05021   0.00000  Uiso   1.00
C47    C     0.31904   0.28193   0.98967   0.00000  Uiso   1.00
C48    C     0.40441   0.27889   0.05111   0.00000  Uiso   1.00
C49    C     0.44815   0.24595   0.07913   0.00000  Uiso   1.00
C50    C     0.52527   0.24908   0.13529   0.00000  Uiso   1.00
C51    C     0.65292   0.23905   0.22658   0.00000  Uiso   1.00
C52    C     0.76688   0.80187   0.99036   0.00000  Uiso   1.00
C53    C     0.69498   0.78826   0.96729   0.00000  Uiso   1.00
C54    C     0.65632   0.81074   0.97232   0.00000  Uiso   1.00
C55    C     0.57042   0.83641   0.96926   0.00000  Uiso   1.00
C56    C     0.32639   0.30899   0.96175   0.00000  Uiso   1.00
C57    C     0.30451   0.30136   0.91460   0.00000  Uiso   1.00
C58    C     0.31594   0.32984   0.89552   0.00000  Uiso   1.00
C59    C     0.32244   0.36656   0.84802   0.00000  Uiso   1.00
C60    C     0.37824   0.34607   0.03960   0.00000  Uiso   1.00
C61    C     0.43656   0.31373   0.07823   0.00000  Uiso   1.00
C62    C     0.51364   0.31691   0.13437   0.00000  Uiso   1.00
C63    C     0.55748   0.28398   0.16246   0.00000  Uiso   1.00
C64    C     0.79903   0.83671   0.01749   0.00000  Uiso   1.00
C65    C     0.76047   0.85922   0.02254   0.00000  Uiso   1.00
C66    C     0.68853   0.84565   0.99949   0.00000  Uiso   1.00
C67    C     0.35855   0.34383   0.98887   0.00000  Uiso   1.00
C68    C     0.37001   0.37233   0.96985   0.00000  Uiso   1.00
C69    C     0.34815   0.36474   0.92269   0.00000  Uiso   1.00
H70    H     0.29400   0.25481   0.96855   0.00000  Uiso   1.00
H71    H     0.42324   0.21899   0.05812   0.00000  Uiso   1.00
H72    H     0.67011   0.76130   0.94630   0.00000  Uiso   1.00
H73    H     0.27963   0.27440   0.89362   0.00000  Uiso   1.00
H74    H     0.58068   0.19464   0.16940   0.00000  Uiso   1.00
H75    H     0.54693   0.78386   0.93360   0.00000  Uiso   1.00
H76    H     0.27787   0.31148   0.82251   0.00000  Uiso   1.00
H77    H     0.90327   0.87320   0.06072   0.00000  Uiso   1.00
H78    H     0.53851   0.34388   0.15535   0.00000  Uiso   1.00
H79    H     0.78537   0.88618   0.04353   0.00000  Uiso   1.00
H80    H     0.39489   0.39928   0.99085   0.00000  Uiso   1.00
H81    H     0.67424   0.29601   0.24831   0.00000  Uiso   1.00
H82    H     0.64048   0.88522   0.01251   0.00000  Uiso   1.00
H83    H     0.37142   0.41284   0.90143   0.00000  Uiso   1.00
O84    O     0.71444   0.22390   0.26945   0.00000  Uiso   1.00
O85    O     0.51416   0.84094   0.96008   0.00000  Uiso   1.00
O86    O     0.31716   0.37718   0.81434   0.00000  Uiso   1.00
N87    N     0.58415   0.22252   0.17498   0.00000  Uiso   1.00
N88    N     0.58513   0.80593   0.95453   0.00000  Uiso   1.00
N89    N     0.30102   0.33176   0.85066   0.00000  Uiso   1.00
N90    N     0.63449   0.27707   0.21744   0.00000  Uiso   1.00
N91    N     0.63547   0.86047   0.99699   0.00000  Uiso   1.00
N92    N     0.35136   0.38630   0.89313   0.00000  Uiso   1.00
C93    C     0.69438   0.03325   0.66877   0.00000  Uiso   1.00
C94    C     0.76135   0.01690   0.68021   0.00000  Uiso   1.00
C95    C     0.77795   0.02745   0.65356   0.00000  Uiso   1.00
C96    C     0.84176   0.00913   0.66998   0.00000  Uiso   1.00
C97    C     0.93879   0.98797   0.68140   0.00000  Uiso   1.00
C98    C     0.14212   0.50013   0.65317   0.00000  Uiso   1.00
C99    C     0.55847   0.99660   0.60380   0.00000  Uiso   1.00
C100   C     0.52191   0.96416   0.59746   0.00000  Uiso   1.00
C101   C     0.43382   0.91698   0.56692   0.00000  Uiso   1.00
C102   C     0.23711   0.54754   0.72538   0.00000  Uiso   1.00
C103   C     0.23331   0.58387   0.73672   0.00000  Uiso   1.00
C104   C     0.27672   0.59134   0.79118   0.00000  Uiso   1.00
C105   C     0.33612   0.61778   0.87276   0.00000  Uiso   1.00
C106   C     0.27819   0.48193   0.74532   0.00000  Uiso   1.00
C107   C     0.80687   0.98902   0.72179   0.00000  Uiso   1.00
C108   C     0.87068   0.97068   0.73826   0.00000  Uiso   1.00
C109   C     0.88737   0.98121   0.71164   0.00000  Uiso   1.00
C110   C     0.18764   0.47226   0.69475   0.00000  Uiso   1.00
C111   C     0.15119   0.43982   0.68849   0.00000  Uiso   1.00
C112   C     0.06751   0.43624   0.63912   0.00000  Uiso   1.00
C113   C     0.78264   0.01967   0.76696   0.00000  Uiso   1.00
C114   C     0.32605   0.52709   0.82141   0.00000  Uiso   1.00
C115   C     0.32232   0.56342   0.83283   0.00000  Uiso   1.00
H116   H     0.15894   0.55495   0.63640   0.00000  Uiso   1.00
H117   H     0.74270   0.04902   0.62138   0.00000  Uiso   1.00
H118   H     0.52325   0.01817   0.57163   0.00000  Uiso   1.00
H119   H     0.19808   0.60543   0.70453   0.00000  Uiso   1.00
H120   H     0.85562   0.03016   0.62306   0.00000  Uiso   1.00
H121   H     0.39290   0.96511   0.51816   0.00000  Uiso   1.00
H122   H     0.26155   0.64911   0.79841   0.00000  Uiso   1.00
H123   H     0.31364   0.46023   0.77769   0.00000  Uiso   1.00
H124   H     0.90589   0.94911   0.77043   0.00000  Uiso   1.00
H125   H     0.18644   0.41826   0.72068   0.00000  Uiso   1.00
H126   H     0.36127   0.50551   0.85358   0.00000  Uiso   1.00
H127   H     0.98807   0.94906   0.74403   0.00000  Uiso   1.00
H128   H     0.02535   0.38402   0.63913   0.00000  Uiso   1.00
H129   H     0.39401   0.56801   0.91938   0.00000  Uiso   1.00
O130   O     0.97972   0.98399   0.67620   0.00000  Uiso   1.00
O131   O     0.37265   0.89866   0.53859   0.00000  Uiso   1.00
O132   O     0.35632   0.64006   0.90627   0.00000  Uiso   1.00
N133   N     0.87414   0.01260   0.65253   0.00000  Uiso   1.00
N134   N     0.44153   0.95179   0.55445   0.00000  Uiso   1.00
N135   N     0.28617   0.62380   0.81646   0.00000  Uiso   1.00
N136   N     0.94541   0.96897   0.71763   0.00000  Uiso   1.00
N137   N     0.01280   0.40815   0.61955   0.00000  Uiso   1.00
N138   N     0.35744   0.58017   0.88156   0.00000  Uiso   1.00
C139   C     0.62074   0.33843   0.98764   0.00000  Uiso   1.00
C140   C     0.55624   0.30865   0.96130   0.00000  Uiso   1.00
C141   C     0.51083   0.28952   0.91147   0.00000  Uiso   1.00
C142   C     0.45489   0.26333   0.89449   0.00000  Uiso   1.00
C143   C     0.35632   0.21811   0.84879   0.00000  Uiso   1.00
C144   C     0.69896   0.32480   0.04719   0.00000  Uiso   1.00
C145   C     0.27354   0.81926   0.06958   0.00000  Uiso   1.00
C146   C     0.83775   0.30669   0.12491   0.00000  Uiso   1.00
C147   C     0.46075   0.78658   0.21256   0.00000  Uiso   1.00
C148   C     0.59428   0.37327   0.99449   0.00000  Uiso   1.00
C149   C     0.58086   0.40849   0.97257   0.00000  Uiso   1.00
C150   C     0.55695   0.43672   0.98354   0.00000  Uiso   1.00
C151   C     0.51742   0.49186   0.98936   0.00000  Uiso   1.00
C152   C     0.60215   0.32594   0.04611   0.00000  Uiso   1.00
C153   C     0.54615   0.30187   0.99306   0.00000  Uiso   1.00
C154   C     0.49027   0.27571   0.97616   0.00000  Uiso   1.00
C155   C     0.44478   0.25654   0.92631   0.00000  Uiso   1.00
C156   C     0.68887   0.31802   0.07895   0.00000  Uiso   1.00
C157   C     0.75298   0.30545   0.13427   0.00000  Uiso   1.00
C158   C     0.82763   0.29989   0.15673   0.00000  Uiso   1.00
C159   C     0.58418   0.36649   0.02625   0.00000  Uiso   1.00
C160   C     0.56029   0.39467   0.03726   0.00000  Uiso   1.00
C161   C     0.54684   0.42993   0.01536   0.00000  Uiso   1.00
H162   H     0.62860   0.34370   0.96292   0.00000  Uiso   1.00
H163   H     0.51867   0.29477   0.88691   0.00000  Uiso   1.00
H164   H     0.28134   0.82452   0.04499   0.00000  Uiso   1.00
H165   H     0.08868   0.91372   0.94800   0.00000  Uiso   1.00
H166   H     0.39235   0.23752   0.81665   0.00000  Uiso   1.00
H167   H     0.44621   0.80025   0.14999   0.00000  Uiso   1.00
H168   H     0.03996   0.98836   0.94546   0.00000  Uiso   1.00
H169   H     0.59429   0.32067   0.07083   0.00000  Uiso   1.00
H170   H     0.48247   0.27047   0.00074   0.00000  Uiso   1.00
H171   H     0.74514   0.30021   0.15883   0.00000  Uiso   1.00
H172   H     0.55248   0.38942   0.06183   0.00000  Uiso   1.00
H173   H     0.36297   0.21779   0.90905   0.00000  Uiso   1.00
H174   H     0.91684   0.28053   0.24239   0.00000  Uiso   1.00
H175   H     0.51059   0.46863   0.03785   0.00000  Uiso   1.00
O176   O     0.30474   0.19504   0.81481   0.00000  Uiso   1.00
O177   O     0.53139   0.77735   0.25213   0.00000  Uiso   1.00
O178   O     0.99839   0.02414   0.98379   0.00000  Uiso   1.00
N179   N     0.40077   0.23977   0.84801   0.00000  Uiso   1.00
N180   N     0.41860   0.79842   0.15966   0.00000  Uiso   1.00
N181   N     0.03881   0.97429   0.96845   0.00000  Uiso   1.00
N182   N     0.38496   0.22915   0.89773   0.00000  Uiso   1.00
N183   N     0.90279   0.28780   0.20938   0.00000  Uiso   1.00
N184   N     0.52300   0.46367   0.01817   0.00000  Uiso   1.00
C185   C     0.71453   0.71743   0.12784   0.00000  Uiso   1.00
C186   C     0.62880   0.71918   0.06641   0.00000  Uiso   1.00
C187   C     0.58384   0.75157   0.03662   0.00000  Uiso   1.00
C188   C     0.50658   0.74724   0.98079   0.00000  Uiso   1.00
C189   C     0.37820   0.75535   0.88920   0.00000  Uiso   1.00
C190   C     0.76690   0.69669   0.12787   0.00000  Uiso   1.00
C191   C     0.83807   0.71018   0.14978   0.00000  Uiso   1.00
C192   C     0.37707   0.18692   0.14570   0.00000  Uiso   1.00
C193   C     0.46313   0.16011   0.14958   0.00000  Uiso   1.00
C194   C     0.70866   0.69168   0.15760   0.00000  Uiso   1.00
C195   C     0.73087   0.70096   0.20452   0.00000  Uiso   1.00
C196   C     0.72085   0.67348   0.22548   0.00000  Uiso   1.00
C197   C     0.71648   0.63889   0.27552   0.00000  Uiso   1.00
C198   C     0.65726   0.65215   0.08167   0.00000  Uiso   1.00
C199   C     0.59769   0.68371   0.04132   0.00000  Uiso   1.00
C200   C     0.52047   0.67934   0.98553   0.00000  Uiso   1.00
C201   C     0.47541   0.71172   0.95567   0.00000  Uiso   1.00
C202   C     0.73579   0.66123   0.10279   0.00000  Uiso   1.00
C203   C     0.27470   0.13795   0.09869   0.00000  Uiso   1.00
C204   C     0.34591   0.15140   0.12058   0.00000  Uiso   1.00
C205   C     0.67754   0.65622   0.13252   0.00000  Uiso   1.00
C206   C     0.66750   0.62872   0.15342   0.00000  Uiso   1.00
C207   C     0.68969   0.63795   0.20035   0.00000  Uiso   1.00
H208   H     0.73876   0.74504   0.14737   0.00000  Uiso   1.00
H209   H     0.60794   0.77901   0.05605   0.00000  Uiso   1.00
H210   H     0.86213   0.73762   0.16919   0.00000  Uiso   1.00
H211   H     0.75495   0.72840   0.22392   0.00000  Uiso   1.00
H212   H     0.44921   0.80103   0.94372   0.00000  Uiso   1.00
H213   H     0.48519   0.21377   0.18232   0.00000  Uiso   1.00
H214   H     0.75917   0.69431   0.29772   0.00000  Uiso   1.00
H215   H     0.63304   0.62454   0.06214   0.00000  Uiso   1.00
H216   H     0.49642   0.65189   0.96613   0.00000  Uiso   1.00
H217   H     0.25061   0.11051   0.07928   0.00000  Uiso   1.00
H218   H     0.64342   0.60129   0.13400   0.00000  Uiso   1.00
H219   H     0.35869   0.69786   0.87074   0.00000  Uiso   1.00
H220   H     0.39468   0.11059   0.10934   0.00000  Uiso   1.00
H221   H     0.66865   0.59114   0.22474   0.00000  Uiso   1.00
O222   O     0.31599   0.76961   0.84561   0.00000  Uiso   1.00
O223   O     0.51920   0.15513   0.15864   0.00000  Uiso   1.00
O224   O     0.72266   0.62961   0.31004   0.00000  Uiso   1.00
N225   N     0.44664   0.77299   0.93973   0.00000  Uiso   1.00
N226   N     0.44776   0.19141   0.16279   0.00000  Uiso   1.00
N227   N     0.73646   0.67322   0.27069   0.00000  Uiso   1.00
N228   N     0.39794   0.71748   0.90046   0.00000  Uiso   1.00
N229   N     0.39905   0.13589   0.12352   0.00000  Uiso   1.00
N230   N     0.68776   0.61771   0.23142   0.00000  Uiso   1.00
C231   C     0.31777   0.94575   0.40129   0.00000  Uiso   1.00
C232   C     0.25347   0.95974   0.39395   0.00000  Uiso   1.00
C233   C     0.23934   0.94535   0.42084   0.00000  Uiso   1.00
C234   C     0.17774   0.96204   0.40846   0.00000  Uiso   1.00
C235   C     0.08490   0.97921   0.40285   0.00000  Uiso   1.00
C236   C     0.37035   0.97968   0.41974   0.00000  Uiso   1.00
C237   C     0.95450   0.48205   0.46831   0.00000  Uiso   1.00
C238   C     0.49128   0.01552   0.47764   0.00000  Uiso   1.00
C239   C     0.57991   0.06363   0.51204   0.00000  Uiso   1.00
C240   C     0.77173   0.43568   0.34237   0.00000  Uiso   1.00
C241   C     0.77296   0.40106   0.32589   0.00000  Uiso   1.00
C242   C     0.72672   0.39748   0.27008   0.00000  Uiso   1.00
C243   C     0.66221   0.37727   0.18436   0.00000  Uiso   1.00
C244   C     0.23349   0.00096   0.33150   0.00000  Uiso   1.00
C245   C     0.20770   0.98973   0.35604   0.00000  Uiso   1.00
C246   C     0.14610   0.00643   0.34362   0.00000  Uiso   1.00
C247   C     0.13188   0.99207   0.37049   0.00000  Uiso   1.00
C248   C     0.32458   0.00966   0.38183   0.00000  Uiso   1.00
C249   C     0.36125   0.04313   0.39109   0.00000  Uiso   1.00
C250   C     0.94543   0.54556   0.43966   0.00000  Uiso   1.00
C251   C     0.22595   0.96566   0.30446   0.00000  Uiso   1.00
C252   C     0.17971   0.96214   0.24867   0.00000  Uiso   1.00
C253   C     0.68086   0.42752   0.23211   0.00000  Uiso   1.00
H254   H     0.85341   0.42241   0.43080   0.00000  Uiso   1.00
H255   H     0.27479   0.92215   0.45017   0.00000  Uiso   1.00
H256   H     0.98991   0.45884   0.49763   0.00000  Uiso   1.00
H257   H     0.80839   0.37786   0.35523   0.00000  Uiso   1.00
H258   H     0.16745   0.93510   0.45494   0.00000  Uiso   1.00
H259   H     0.62105   0.01246   0.55500   0.00000  Uiso   1.00
H260   H     0.73828   0.34169   0.25473   0.00000  Uiso   1.00
H261   H     0.19785   0.02431   0.30199   0.00000  Uiso   1.00
H262   H     0.11068   0.02964   0.31429   0.00000  Uiso   1.00
H263   H     0.82581   0.56633   0.36175   0.00000  Uiso   1.00
H264   H     0.14429   0.98535   0.21935   0.00000  Uiso   1.00
H265   H     0.03426   0.02234   0.34466   0.00000  Uiso   1.00
H266   H     0.98786   0.59970   0.44471   0.00000  Uiso   1.00
H267   H     0.60509   0.42893   0.14444   0.00000  Uiso   1.00
O268   O     0.04634   0.98040   0.41023   0.00000  Uiso   1.00
O269   O     0.64144   0.08189   0.54149   0.00000  Uiso   1.00
O270   O     0.63926   0.35784   0.14754   0.00000  Uiso   1.00
N271   N     0.14805   0.95489   0.42729   0.00000  Uiso   1.00
N272   N     0.57214   0.02722   0.52084   0.00000  Uiso   1.00
N273   N     0.71431   0.36757   0.24012   0.00000  Uiso   1.00
N274   N     0.07639   0.00184   0.36795   0.00000  Uiso   1.00
N275   N     0.00047   0.57417   0.46150   0.00000  Uiso   1.00
N276   N     0.64264   0.41451   0.18077   0.00000  Uiso   1.00
C277   C     0.38538   0.66694   0.07965   0.00000  Uiso   1.00
C278   C     0.94868   0.19731   0.10557   0.00000  Uiso   1.00
C279   C     0.99348   0.21656   0.15521   0.00000  Uiso   1.00
C280   C     0.04834   0.24331   0.17180   0.00000  Uiso   1.00
C281   C     0.14513   0.28938   0.21688   0.00000  Uiso   1.00
C282   C     0.30655   0.68011   0.01998   0.00000  Uiso   1.00
C283   C     0.23186   0.68488   0.99765   0.00000  Uiso   1.00
C284   C     0.16707   0.69714   0.94219   0.00000  Uiso   1.00
C285   C     0.04319   0.71647   0.85437   0.00000  Uiso   1.00
C286   C     0.41306   0.63252   0.07311   0.00000  Uiso   1.00
C287   C     0.42791   0.59728   0.09545   0.00000  Uiso   1.00
C288   C     0.45278   0.56947   0.08471   0.00000  Uiso   1.00
C289   C     0.49428   0.51492   0.07940   0.00000  Uiso   1.00
C290   C     0.90313   0.18024   0.02084   0.00000  Uiso   1.00
C291   C     0.95832   0.20453   0.07362   0.00000  Uiso   1.00
C292   C     0.01313   0.23126   0.09014   0.00000  Uiso   1.00
C293   C     0.05800   0.25054   0.13980   0.00000  Uiso   1.00
C294   C     0.31619   0.68733   0.98803   0.00000  Uiso   1.00
C295   C     0.25150   0.69958   0.93259   0.00000  Uiso   1.00
C296   C     0.17673   0.70437   0.91018   0.00000  Uiso   1.00
C297   C     0.92271   0.13974   0.04117   0.00000  Uiso   1.00
C298   C     0.94755   0.11199   0.03039   0.00000  Uiso   1.00
C299   C     0.46244   0.57671   0.05271   0.00000  Uiso   1.00
H300   H     0.37786   0.66132   0.10452   0.00000  Uiso   1.00
H301   H     0.48599   0.71096   0.17992   0.00000  Uiso   1.00
H302   H     0.22441   0.67928   0.02238   0.00000  Uiso   1.00
H303   H     0.42044   0.59170   0.12017   0.00000  Uiso   1.00
H304   H     0.11011   0.26919   0.24941   0.00000  Uiso   1.00
H305   H     0.05854   0.70238   0.91723   0.00000  Uiso   1.00
H306   H     0.47189   0.51770   0.12343   0.00000  Uiso   1.00
H307   H     0.91064   0.18586   0.99597   0.00000  Uiso   1.00
H308   H     0.02058   0.23684   0.06542   0.00000  Uiso   1.00
H309   H     0.75899   0.20516   0.90788   0.00000  Uiso   1.00
H310   H     0.95501   0.11758   0.00567   0.00000  Uiso   1.00
H311   H     0.13817   0.29020   0.15647   0.00000  Uiso   1.00
H312   H     0.08660   0.72339   0.82429   0.00000  Uiso   1.00
H313   H     0.49995   0.53870   0.03050   0.00000  Uiso   1.00
O314   O     0.19585   0.31280   0.25057   0.00000  Uiso   1.00
O315   O     0.97220   0.72514   0.81476   0.00000  Uiso   1.00
O316   O     0.51452   0.48284   0.08530   0.00000  Uiso   1.00
N317   N     0.10164   0.26713   0.21801   0.00000  Uiso   1.00
N318   N     0.08595   0.70468   0.90745   0.00000  Uiso   1.00
N319   N     0.47238   0.53201   0.10022   0.00000  Uiso   1.00
N320   N     0.11674   0.27844   0.16801   0.00000  Uiso   1.00
N321   N     0.10106   0.71598   0.85744   0.00000  Uiso   1.00
N322   N     0.48749   0.54331   0.05021   0.00000  Uiso   1.00
C323   C     0.81904   0.78193   0.98967   0.00000  Uiso   1.00
C324   C     0.90441   0.77889   0.05111   0.00000  Uiso   1.00
C325   C     0.94815   0.74595   0.07913   0.00000  Uiso   1.00
C326   C     0.02527   0.74908   0.13529   0.00000  Uiso   1.00
C327   C     0.15292   0.73905   0.22658   0.00000  Uiso   1.00
C328   C     0.26688   0.30187   0.99036   0.00000  Uiso   1.00
C329   C     0.19498   0.28826   0.96729   0.00000  Uiso   1.00
C330   C     0.15632   0.31074   0.97232   0.00000  Uiso   1.00
C331   C     0.07042   0.33641   0.96926   0.00000  Uiso   1.00
C332   C     0.82639   0.80899   0.96175   0.00000  Uiso   1.00
C333   C     0.80451   0.80136   0.91460   0.00000  Uiso   1.00
C334   C     0.81594   0.82984   0.89552   0.00000  Uiso   1.00
C335   C     0.82244   0.86656   0.84802   0.00000  Uiso   1.00
C336   C     0.87824   0.84607   0.03960   0.00000  Uiso   1.00
C337   C     0.93656   0.81373   0.07823   0.00000  Uiso   1.00
C338   C     0.01364   0.81691   0.13437   0.00000  Uiso   1.00
C339   C     0.05748   0.78398   0.16246   0.00000  Uiso   1.00
C340   C     0.29903   0.33671   0.01749   0.00000  Uiso   1.00
C341   C     0.26047   0.35922   0.02254   0.00000  Uiso   1.00
C342   C     0.18853   0.34565   0.99949   0.00000  Uiso   1.00
C343   C     0.85855   0.84383   0.98887   0.00000  Uiso   1.00
C344   C     0.87001   0.87233   0.96985   0.00000  Uiso   1.00
C345   C     0.84815   0.86474   0.92269   0.00000  Uiso   1.00
H346   H     0.79400   0.75481   0.96855   0.00000  Uiso   1.00
H347   H     0.92324   0.71899   0.05812   0.00000  Uiso   1.00
H348   H     0.17011   0.26130   0.94630   0.00000  Uiso   1.00
H349   H     0.77963   0.77440   0.89362   0.00000  Uiso   1.00
H350   H     0.08068   0.69464   0.16940   0.00000  Uiso   1.00
H351   H     0.04693   0.28386   0.93360   0.00000  Uiso   1.00
H352   H     0.77787   0.81148   0.82251   0.00000  Uiso   1.00
H353   H     0.40327   0.37320   0.06072   0.00000  Uiso   1.00
H354   H     0.03851   0.84388   0.15535   0.00000  Uiso   1.00
H355   H     0.28537   0.38618   0.04353   0.00000  Uiso   1.00
H356   H     0.89489   0.89928   0.99085   0.00000  Uiso   1.00
H357   H     0.17424   0.79601   0.24831   0.00000  Uiso   1.00
H358   H     0.14048   0.38522   0.01251   0.00000  Uiso   1.00
H359   H     0.87142   0.91284   0.90143   0.00000  Uiso   1.00
O360   O     0.21444   0.72390   0.26945   0.00000  Uiso   1.00
O361   O     0.01416   0.34094   0.96008   0.00000  Uiso   1.00
O362   O     0.81716   0.87718   0.81434   0.00000  Uiso   1.00
N363   N     0.08415   0.72252   0.17498   0.00000  Uiso   1.00
N364   N     0.08513   0.30593   0.95453   0.00000  Uiso   1.00
N365   N     0.80102   0.83176   0.85066   0.00000  Uiso   1.00
N366   N     0.13449   0.77707   0.21744   0.00000  Uiso   1.00
N367   N     0.13547   0.36047   0.99699   0.00000  Uiso   1.00
N368   N     0.85136   0.88630   0.89313   0.00000  Uiso   1.00
C369   C     0.19438   0.53325   0.66877   0.00000  Uiso   1.00
C370   C     0.26135   0.51690   0.68021   0.00000  Uiso   1.00
C371   C     0.27795   0.52745   0.65356   0.00000  Uiso   1.00
C372   C     0.34176   0.50913   0.66998   0.00000  Uiso   1.00
C373   C     0.43879   0.48797   0.68140   0.00000  Uiso   1.00
C374   C     0.64212   0.00013   0.65317   0.00000  Uiso   1.00
C375   C     0.05847   0.49660   0.60380   0.00000  Uiso   1.00
C376   C     0.02191   0.46416   0.59746   0.00000  Uiso   1.00
C377   C     0.93382   0.41698   0.56692   0.00000  Uiso   1.00
C378   C     0.73711   0.04754   0.72538   0.00000  Uiso   1.00
C379   C     0.73331   0.08387   0.73672   0.00000  Uiso   1.00
C380   C     0.77672   0.09134   0.79118   0.00000  Uiso   1.00
C381   C     0.83612   0.11778   0.87276   0.00000  Uiso   1.00
C382   C     0.77819   0.98193   0.74532   0.00000  Uiso   1.00
C383   C     0.30687   0.48902   0.72179   0.00000  Uiso   1.00
C384   C     0.37068   0.47068   0.73826   0.00000  Uiso   1.00
C385   C     0.38737   0.48121   0.71164   0.00000  Uiso   1.00
C386   C     0.68764   0.97226   0.69475   0.00000  Uiso   1.00
C387   C     0.65119   0.93982   0.68849   0.00000  Uiso   1.00
C388   C     0.56751   0.93624   0.63912   0.00000  Uiso   1.00
C389   C     0.28264   0.51967   0.76696   0.00000  Uiso   1.00
C390   C     0.82605   0.02709   0.82141   0.00000  Uiso   1.00
C391   C     0.82232   0.06342   0.83283   0.00000  Uiso   1.00
H392   H     0.65894   0.05495   0.63640   0.00000  Uiso   1.00
H393   H     0.24270   0.54902   0.62138   0.00000  Uiso   1.00
H394   H     0.02325   0.51817   0.57163   0.00000  Uiso   1.00
H395   H     0.69808   0.10543   0.70453   0.00000  Uiso   1.00
H396   H     0.35562   0.53016   0.62306   0.00000  Uiso   1.00
H397   H     0.89290   0.46511   0.51816   0.00000  Uiso   1.00
H398   H     0.76155   0.14911   0.79841   0.00000  Uiso   1.00
H399   H     0.81364   0.96023   0.77769   0.00000  Uiso   1.00
H400   H     0.40589   0.44911   0.77043   0.00000  Uiso   1.00
H401   H     0.68644   0.91826   0.72068   0.00000  Uiso   1.00
H402   H     0.86127   0.00551   0.85358   0.00000  Uiso   1.00
H403   H     0.48807   0.44906   0.74403   0.00000  Uiso   1.00
H404   H     0.52535   0.88402   0.63913   0.00000  Uiso   1.00
H405   H     0.89401   0.06801   0.91938   0.00000  Uiso   1.00
O406   O     0.47972   0.48399   0.67620   0.00000  Uiso   1.00
O407   O     0.87265   0.39866   0.53859   0.00000  Uiso   1.00
O408   O     0.85632   0.14006   0.90627   0.00000  Uiso   1.00
N409   N     0.37414   0.51260   0.65253   0.00000  Uiso   1.00
N410   N     0.94153   0.45179   0.55445   0.00000  Uiso   1.00
N411   N     0.78617   0.12380   0.81646   0.00000  Uiso   1.00
N412   N     0.44541   0.46897   0.71763   0.00000  Uiso   1.00
N413   N     0.51280   0.90815   0.61955   0.00000  Uiso   1.00
N414   N     0.85744   0.08017   0.88156   0.00000  Uiso   1.00
C415   C     0.12074   0.83843   0.98764   0.00000  Uiso   1.00
C416   C     0.05624   0.80865   0.96130   0.00000  Uiso   1.00
C417   C     0.01083   0.78952   0.91147   0.00000  Uiso   1.00
C418   C     0.95489   0.76333   0.89449   0.00000  Uiso   1.00
C419   C     0.85632   0.71811   0.84879   0.00000  Uiso   1.00
C420   C     0.19896   0.82480   0.04719   0.00000  Uiso   1.00
C421   C     0.77354   0.31926   0.06958   0.00000  Uiso   1.00
C422   C     0.33775   0.80669   0.12491   0.00000  Uiso   1.00
C423   C     0.96075   0.28658   0.21256   0.00000  Uiso   1.00
C424   C     0.09428   0.87327   0.99449   0.00000  Uiso   1.00
C425   C     0.08086   0.90849   0.97257   0.00000  Uiso   1.00
C426   C     0.05695   0.93672   0.98354   0.00000  Uiso   1.00
C427   C     0.01742   0.99186   0.98936   0.00000  Uiso   1.00
C428   C     0.10215   0.82594   0.04611   0.00000  Uiso   1.00
C429   C     0.04615   0.80187   0.99306   0.00000  Uiso   1.00
C430   C     0.99027   0.77571   0.97616   0.00000  Uiso   1.00
C431   C     0.94478   0.75654   0.92631   0.00000  Uiso   1.00
C432   C     0.18887   0.81802   0.07895   0.00000  Uiso   1.00
C433   C     0.25298   0.80545   0.13427   0.00000  Uiso   1.00
C434   C     0.32763   0.79989   0.15673   0.00000  Uiso   1.00
C435   C     0.08418   0.86649   0.02625   0.00000  Uiso   1.00
C436   C     0.06029   0.89467   0.03726   0.00000  Uiso   1.00
C437   C     0.04684   0.92993   0.01536   0.00000  Uiso   1.00
H438   H     0.12860   0.84370   0.96292   0.00000  Uiso   1.00
H439   H     0.01867   0.79477   0.88691   0.00000  Uiso   1.00
H440   H     0.78134   0.32452   0.04499   0.00000  Uiso   1.00
H441   H     0.58868   0.41372   0.94800   0.00000  Uiso   1.00
H442   H     0.89235   0.73752   0.81665   0.00000  Uiso   1.00
H443   H     0.94621   0.30025   0.14999   0.00000  Uiso   1.00
H444   H     0.53996   0.48836   0.94546   0.00000  Uiso   1.00
H445   H     0.09429   0.82067   0.07083   0.00000  Uiso   1.00
H446   H     0.98247   0.77047   0.00074   0.00000  Uiso   1.00
H447   H     0.24514   0.80021   0.15883   0.00000  Uiso   1.00
H448   H     0.05248   0.88942   0.06183   0.00000  Uiso   1.00
H449   H     0.86297   0.71779   0.90905   0.00000  Uiso   1.00
H450   H     0.41684   0.78053   0.24239   0.00000  Uiso   1.00
H451   H     0.01059   0.96863   0.03785   0.00000  Uiso   1.00
O452   O     0.80474   0.69504   0.81481   0.00000  Uiso   1.00
O453   O     0.03139   0.27735   0.25213   0.00000  Uiso   1.00
O454   O     0.49839   0.52414   0.98379   0.00000  Uiso   1.00
N455   N     0.90077   0.73977   0.84801   0.00000  Uiso   1.00
N456   N     0.91860   0.29842   0.15966   0.00000  Uiso   1.00
N457   N     0.53881   0.47429   0.96845   0.00000  Uiso   1.00
N458   N     0.88496   0.72915   0.89773   0.00000  Uiso   1.00
N459   N     0.40279   0.78780   0.20938   0.00000  Uiso   1.00
N460   N     0.02300   0.96367   0.01817   0.00000  Uiso   1.00
C461   C     0.21453   0.21743   0.12784   0.00000  Uiso   1.00
C462   C     0.12880   0.21918   0.06641   0.00000  Uiso   1.00
C463   C     0.08384   0.25157   0.03662   0.00000  Uiso   1.00
C464   C     0.00658   0.24724   0.98079   0.00000  Uiso   1.00
C465   C     0.87820   0.25535   0.88920   0.00000  Uiso   1.00
C466   C     0.26690   0.19669   0.12787   0.00000  Uiso   1.00
C467   C     0.33807   0.21018   0.14978   0.00000  Uiso   1.00
C468   C     0.87707   0.68692   0.14570   0.00000  Uiso   1.00
C469   C     0.96313   0.66011   0.14958   0.00000  Uiso   1.00
C470   C     0.20866   0.19168   0.15760   0.00000  Uiso   1.00
C471   C     0.23087   0.20096   0.20452   0.00000  Uiso   1.00
C472   C     0.22085   0.17348   0.22548   0.00000  Uiso   1.00
C473   C     0.21648   0.13889   0.27552   0.00000  Uiso   1.00
C474   C     0.15726   0.15215   0.08167   0.00000  Uiso   1.00
C475   C     0.09769   0.18371   0.04132   0.00000  Uiso   1.00
C476   C     0.02047   0.17934   0.98553   0.00000  Uiso   1.00
C477   C     0.97541   0.21172   0.95567   0.00000  Uiso   1.00
C478   C     0.23579   0.16123   0.10279   0.00000  Uiso   1.00
C479   C     0.77470   0.63795   0.09869   0.00000  Uiso   1.00
C480   C     0.84591   0.65140   0.12058   0.00000  Uiso   1.00
C481   C     0.17754   0.15622   0.13252   0.00000  Uiso   1.00
C482   C     0.16750   0.12872   0.15342   0.00000  Uiso   1.00
C483   C     0.18969   0.13795   0.20035   0.00000  Uiso   1.00
H484   H     0.23876   0.24504   0.14737   0.00000  Uiso   1.00
H485   H     0.10794   0.27901   0.05605   0.00000  Uiso   1.00
H486   H     0.36213   0.23762   0.16919   0.00000  Uiso   1.00
H487   H     0.25495   0.22840   0.22392   0.00000  Uiso   1.00
H488   H     0.94921   0.30103   0.94372   0.00000  Uiso   1.00
H489   H     0.98519   0.71377   0.18232   0.00000  Uiso   1.00
H490   H     0.25917   0.19431   0.29772   0.00000  Uiso   1.00
H491   H     0.13304   0.12454   0.06214   0.00000  Uiso   1.00
H492   H     0.99642   0.15189   0.96613   0.00000  Uiso   1.00
H493   H     0.75061   0.61051   0.07928   0.00000  Uiso   1.00
H494   H     0.14342   0.10129   0.13400   0.00000  Uiso   1.00
H495   H     0.85869   0.19786   0.87074   0.00000  Uiso   1.00
H496   H     0.89468   0.61059   0.10934   0.00000  Uiso   1.00
H497   H     0.16865   0.09114   0.22474   0.00000  Uiso   1.00
O498   O     0.81599   0.26961   0.84561   0.00000  Uiso   1.00
O499   O     0.01920   0.65513   0.15864   0.00000  Uiso   1.00
O500   O     0.22266   0.12961   0.31004   0.00000  Uiso   1.00
N501   N     0.94664   0.27299   0.93973   0.00000  Uiso   1.00
N502   N     0.94776   0.69141   0.16279   0.00000  Uiso   1.00
N503   N     0.23646   0.17322   0.27069   0.00000  Uiso   1.00
N504   N     0.89794   0.21748   0.90046   0.00000  Uiso   1.00
N505   N     0.89905   0.63589   0.12352   0.00000  Uiso   1.00
N506   N     0.18776   0.11771   0.23142   0.00000  Uiso   1.00
C507   C     0.81777   0.44575   0.40129   0.00000  Uiso   1.00
C508   C     0.75347   0.45974   0.39395   0.00000  Uiso   1.00
C509   C     0.73934   0.44535   0.42084   0.00000  Uiso   1.00
C510   C     0.67774   0.46204   0.40846   0.00000  Uiso   1.00
C511   C     0.58490   0.47921   0.40285   0.00000  Uiso   1.00
C512   C     0.87035   0.47968   0.41974   0.00000  Uiso   1.00
C513   C     0.45450   0.98205   0.46831   0.00000  Uiso   1.00
C514   C     0.99128   0.51552   0.47764   0.00000  Uiso   1.00
C515   C     0.07991   0.56363   0.51204   0.00000  Uiso   1.00
C516   C     0.27173   0.93568   0.34237   0.00000  Uiso   1.00
C517   C     0.27296   0.90106   0.32589   0.00000  Uiso   1.00
C518   C     0.22672   0.89748   0.27008   0.00000  Uiso   1.00
C519   C     0.16221   0.87727   0.18436   0.00000  Uiso   1.00
C520   C     0.73349   0.50096   0.33150   0.00000  Uiso   1.00
C521   C     0.70770   0.48973   0.35604   0.00000  Uiso   1.00
C522   C     0.64610   0.50643   0.34362   0.00000  Uiso   1.00
C523   C     0.63188   0.49207   0.37049   0.00000  Uiso   1.00
C524   C     0.82458   0.50966   0.38183   0.00000  Uiso   1.00
C525   C     0.86125   0.54313   0.39109   0.00000  Uiso   1.00
C526   C     0.44543   0.04556   0.43966   0.00000  Uiso   1.00
C527   C     0.72595   0.46566   0.30446   0.00000  Uiso   1.00
C528   C     0.67971   0.46214   0.24867   0.00000  Uiso   1.00
C529   C     0.18086   0.92752   0.23211   0.00000  Uiso   1.00
H530   H     0.35341   0.92241   0.43080   0.00000  Uiso   1.00
H531   H     0.77479   0.42215   0.45017   0.00000  Uiso   1.00
H532   H     0.48991   0.95884   0.49763   0.00000  Uiso   1.00
H533   H     0.30839   0.87786   0.35523   0.00000  Uiso   1.00
H534   H     0.66745   0.43510   0.45494   0.00000  Uiso   1.00
H535   H     0.12105   0.51246   0.55500   0.00000  Uiso   1.00
H536   H     0.23828   0.84169   0.25473   0.00000  Uiso   1.00
H537   H     0.69785   0.52431   0.30199   0.00000  Uiso   1.00
H538   H     0.61068   0.52964   0.31429   0.00000  Uiso   1.00
H539   H     0.32581   0.06633   0.36175   0.00000  Uiso   1.00
H540   H     0.64429   0.48535   0.21935   0.00000  Uiso   1.00
H541   H     0.53426   0.52234   0.34466   0.00000  Uiso   1.00
H542   H     0.48786   0.09970   0.44471   0.00000  Uiso   1.00
H543   H     0.10509   0.92893   0.14444   0.00000  Uiso   1.00
O544   O     0.54634   0.48040   0.41023   0.00000  Uiso   1.00
O545   O     0.14144   0.58189   0.54149   0.00000  Uiso   1.00
O546   O     0.13926   0.85784   0.14754   0.00000  Uiso   1.00
N547   N     0.64805   0.45489   0.42729   0.00000  Uiso   1.00
N548   N     0.07214   0.52722   0.52084   0.00000  Uiso   1.00
N549   N     0.21431   0.86757   0.24012   0.00000  Uiso   1.00
N550   N     0.57639   0.50184   0.36795   0.00000  Uiso   1.00
N551   N     0.50047   0.07417   0.46150   0.00000  Uiso   1.00
N552   N     0.14264   0.91451   0.18077   0.00000  Uiso   1.00
C553   C     0.88538   0.83306   0.57965   0.00000  Uiso   1.00
C554   C     0.44868   0.30269   0.60557   0.00000  Uiso   1.00
C555   C     0.49348   0.28344   0.65521   0.00000  Uiso   1.00
C556   C     0.54834   0.25669   0.67180   0.00000  Uiso   1.00
C557   C     0.64513   0.21062   0.71688   0.00000  Uiso   1.00
C558   C     0.80655   0.81989   0.51998   0.00000  Uiso   1.00
C559   C     0.73186   0.81512   0.49765   0.00000  Uiso   1.00
C560   C     0.66707   0.80286   0.44219   0.00000  Uiso   1.00
C561   C     0.54319   0.78353   0.35437   0.00000  Uiso   1.00
C562   C     0.91306   0.86748   0.57311   0.00000  Uiso   1.00
C563   C     0.92791   0.90272   0.59545   0.00000  Uiso   1.00
C564   C     0.95278   0.93053   0.58471   0.00000  Uiso   1.00
C565   C     0.99428   0.98508   0.57940   0.00000  Uiso   1.00
C566   C     0.40313   0.31976   0.52084   0.00000  Uiso   1.00
C567   C     0.45832   0.29547   0.57362   0.00000  Uiso   1.00
C568   C     0.51313   0.26874   0.59014   0.00000  Uiso   1.00
C569   C     0.55800   0.24946   0.63980   0.00000  Uiso   1.00
C570   C     0.81619   0.81267   0.48803   0.00000  Uiso   1.00
C571   C     0.75150   0.80042   0.43259   0.00000  Uiso   1.00
C572   C     0.67673   0.79563   0.41018   0.00000  Uiso   1.00
C573   C     0.42271   0.36026   0.54117   0.00000  Uiso   1.00
C574   C     0.44755   0.38801   0.53039   0.00000  Uiso   1.00
C575   C     0.96244   0.92329   0.55271   0.00000  Uiso   1.00
H576   H     0.87786   0.83868   0.60452   0.00000  Uiso   1.00
H577   H     0.98599   0.78904   0.67992   0.00000  Uiso   1.00
H578   H     0.72441   0.82072   0.52238   0.00000  Uiso   1.00
H579   H     0.92044   0.90830   0.62017   0.00000  Uiso   1.00
H580   H     0.61011   0.23081   0.74941   0.00000  Uiso   1.00
H581   H     0.55854   0.79762   0.41723   0.00000  Uiso   1.00
H582   H     0.97189   0.98230   0.62343   0.00000  Uiso   1.00
H583   H     0.41064   0.31414   0.49597   0.00000  Uiso   1.00
H584   H     0.52058   0.26316   0.56542   0.00000  Uiso   1.00
H585   H     0.25899   0.29484   0.40788   0.00000  Uiso   1.00
H586   H     0.45501   0.38242   0.50567   0.00000  Uiso   1.00
H587   H     0.63817   0.20980   0.65647   0.00000  Uiso   1.00
H588   H     0.58660   0.77661   0.32429   0.00000  Uiso   1.00
H589   H     0.99995   0.96130   0.53050   0.00000  Uiso   1.00
O590   O     0.69585   0.18720   0.75057   0.00000  Uiso   1.00
O591   O     0.47220   0.77486   0.31476   0.00000  Uiso   1.00
O592   O     0.01452   0.01716   0.58530   0.00000  Uiso   1.00
N593   N     0.60164   0.23287   0.71801   0.00000  Uiso   1.00
N594   N     0.58595   0.79532   0.40745   0.00000  Uiso   1.00
N595   N     0.97238   0.96799   0.60022   0.00000  Uiso   1.00
N596   N     0.61674   0.22156   0.66801   0.00000  Uiso   1.00
N597   N     0.60106   0.78402   0.35744   0.00000  Uiso   1.00
N598   N     0.98749   0.95669   0.55021   0.00000  Uiso   1.00
C599   C     0.31904   0.71807   0.48967   0.00000  Uiso   1.00
C600   C     0.40441   0.72111   0.55111   0.00000  Uiso   1.00
C601   C     0.44815   0.75405   0.57913   0.00000  Uiso   1.00
C602   C     0.52527   0.75092   0.63529   0.00000  Uiso   1.00
C603   C     0.65292   0.76095   0.72658   0.00000  Uiso   1.00
C604   C     0.76688   0.19813   0.49036   0.00000  Uiso   1.00
C605   C     0.69498   0.21174   0.46729   0.00000  Uiso   1.00
C606   C     0.65632   0.18926   0.47232   0.00000  Uiso   1.00
C607   C     0.57042   0.16359   0.46926   0.00000  Uiso   1.00
C608   C     0.32639   0.69101   0.46175   0.00000  Uiso   1.00
C609   C     0.30451   0.69864   0.41460   0.00000  Uiso   1.00
C610   C     0.31594   0.67016   0.39552   0.00000  Uiso   1.00
C611   C     0.32244   0.63344   0.34802   0.00000  Uiso   1.00
C612   C     0.37824   0.65393   0.53960   0.00000  Uiso   1.00
C613   C     0.43656   0.68627   0.57823   0.00000  Uiso   1.00
C614   C     0.51364   0.68309   0.63437   0.00000  Uiso   1.00
C615   C     0.55748   0.71602   0.66246   0.00000  Uiso   1.00
C616   C     0.79903   0.16329   0.51749   0.00000  Uiso   1.00
C617   C     0.76047   0.14078   0.52254   0.00000  Uiso   1.00
C618   C     0.68853   0.15435   0.49949   0.00000  Uiso   1.00
C619   C     0.35855   0.65617   0.48887   0.00000  Uiso   1.00
C620   C     0.37001   0.62767   0.46985   0.00000  Uiso   1.00
C621   C     0.34815   0.63526   0.42269   0.00000  Uiso   1.00
H622   H     0.29400   0.74519   0.46855   0.00000  Uiso   1.00
H623   H     0.42324   0.78101   0.55812   0.00000  Uiso   1.00
H624   H     0.67011   0.23870   0.44630   0.00000  Uiso   1.00
H625   H     0.27963   0.72560   0.39362   0.00000  Uiso   1.00
H626   H     0.58068   0.80536   0.66940   0.00000  Uiso   1.00
H627   H     0.54693   0.21614   0.43360   0.00000  Uiso   1.00
H628   H     0.27787   0.68852   0.32251   0.00000  Uiso   1.00
H629   H     0.90327   0.12680   0.56072   0.00000  Uiso   1.00
H630   H     0.53851   0.65612   0.65535   0.00000  Uiso   1.00
H631   H     0.78537   0.11382   0.54353   0.00000  Uiso   1.00
H632   H     0.39489   0.60072   0.49085   0.00000  Uiso   1.00
H633   H     0.67424   0.70399   0.74831   0.00000  Uiso   1.00
H634   H     0.64048   0.11478   0.51251   0.00000  Uiso   1.00
H635   H     0.37142   0.58716   0.40143   0.00000  Uiso   1.00
O636   O     0.71444   0.77610   0.76945   0.00000  Uiso   1.00
O637   O     0.51416   0.15906   0.46008   0.00000  Uiso   1.00
O638   O     0.31716   0.62282   0.31434   0.00000  Uiso   1.00
N639   N     0.58415   0.77748   0.67498   0.00000  Uiso   1.00
N640   N     0.58513   0.19407   0.45453   0.00000  Uiso   1.00
N641   N     0.30102   0.66824   0.35066   0.00000  Uiso   1.00
N642   N     0.63449   0.72293   0.71744   0.00000  Uiso   1.00
N643   N     0.63547   0.13953   0.49699   0.00000  Uiso   1.00
N644   N     0.35136   0.61370   0.39313   0.00000  Uiso   1.00
C645   C     0.69438   0.96675   0.16877   0.00000  Uiso   1.00
C646   C     0.76135   0.98310   0.18021   0.00000  Uiso   1.00
C647   C     0.77795   0.97255   0.15356   0.00000  Uiso   1.00
C648   C     0.84176   0.99087   0.16998   0.00000  Uiso   1.00
C649   C     0.93879   0.01203   0.18140   0.00000  Uiso   1.00
C650   C     0.14212   0.49987   0.15317   0.00000  Uiso   1.00
C651   C     0.55847   0.00340   0.10380   0.00000  Uiso   1.00
C652   C     0.52191   0.03584   0.09746   0.00000  Uiso   1.00
C653   C     0.43382   0.08302   0.06692   0.00000  Uiso   1.00
C654   C     0.23711   0.45246   0.22538   0.00000  Uiso   1.00
C655   C     0.23331   0.41613   0.23672   0.00000  Uiso   1.00
C656   C     0.27672   0.40866   0.29118   0.00000  Uiso   1.00
C657   C     0.33612   0.38222   0.37276   0.00000  Uiso   1.00
C658   C     0.27819   0.51807   0.24532   0.00000  Uiso   1.00
C659   C     0.80687   0.01098   0.22179   0.00000  Uiso   1.00
C660   C     0.87068   0.02932   0.23826   0.00000  Uiso   1.00
C661   C     0.88737   0.01879   0.21164   0.00000  Uiso   1.00
C662   C     0.18764   0.52774   0.19475   0.00000  Uiso   1.00
C663   C     0.15119   0.56018   0.18849   0.00000  Uiso   1.00
C664   C     0.06751   0.56376   0.13912   0.00000  Uiso   1.00
C665   C     0.78264   0.98033   0.26696   0.00000  Uiso   1.00
C666   C     0.32605   0.47291   0.32141   0.00000  Uiso   1.00
C667   C     0.32232   0.43658   0.33283   0.00000  Uiso   1.00
H668   H     0.15894   0.44505   0.13640   0.00000  Uiso   1.00
H669   H     0.74270   0.95098   0.12138   0.00000  Uiso   1.00
H670   H     0.52325   0.98183   0.07163   0.00000  Uiso   1.00
H671   H     0.19808   0.39457   0.20453   0.00000  Uiso   1.00
H672   H     0.85562   0.96984   0.12306   0.00000  Uiso   1.00
H673   H     0.39290   0.03489   0.01816   0.00000  Uiso   1.00
H674   H     0.26155   0.35089   0.29841   0.00000  Uiso   1.00
H675   H     0.31364   0.53977   0.27769   0.00000  Uiso   1.00
H676   H     0.90589   0.05089   0.27043   0.00000  Uiso   1.00
H677   H     0.18644   0.58174   0.22068   0.00000  Uiso   1.00
H678   H     0.36127   0.49449   0.35358   0.00000  Uiso   1.00
H679   H     0.98807   0.05094   0.24403   0.00000  Uiso   1.00
H680   H     0.02535   0.61598   0.13913   0.00000  Uiso   1.00
H681   H     0.39401   0.43199   0.41938   0.00000  Uiso   1.00
O682   O     0.97972   0.01601   0.17620   0.00000  Uiso   1.00
O683   O     0.37265   0.10134   0.03859   0.00000  Uiso   1.00
O684   O     0.35632   0.35994   0.40627   0.00000  Uiso   1.00
N685   N     0.87414   0.98740   0.15253   0.00000  Uiso   1.00
N686   N     0.44153   0.04821   0.05445   0.00000  Uiso   1.00
N687   N     0.28617   0.37620   0.31646   0.00000  Uiso   1.00
N688   N     0.94541   0.03103   0.21763   0.00000  Uiso   1.00
N689   N     0.01280   0.59185   0.11955   0.00000  Uiso   1.00
N690   N     0.35744   0.41983   0.38156   0.00000  Uiso   1.00
C691   C     0.62074   0.66157   0.48764   0.00000  Uiso   1.00
C692   C     0.55624   0.69135   0.46130   0.00000  Uiso   1.00
C693   C     0.51083   0.71048   0.41147   0.00000  Uiso   1.00
C694   C     0.45489   0.73667   0.39449   0.00000  Uiso   1.00
C695   C     0.35632   0.78189   0.34879   0.00000  Uiso   1.00
C696   C     0.69896   0.67520   0.54719   0.00000  Uiso   1.00
C697   C     0.27354   0.18074   0.56958   0.00000  Uiso   1.00
C698   C     0.83775   0.69331   0.62491   0.00000  Uiso   1.00
C699   C     0.46075   0.21342   0.71256   0.00000  Uiso   1.00
C700   C     0.59428   0.62673   0.49449   0.00000  Uiso   1.00
C701   C     0.58086   0.59151   0.47257   0.00000  Uiso   1.00
C702   C     0.55695   0.56328   0.48354   0.00000  Uiso   1.00
C703   C     0.51742   0.50814   0.48936   0.00000  Uiso   1.00
C704   C     0.60215   0.67406   0.54611   0.00000  Uiso   1.00
C705   C     0.54615   0.69813   0.49306   0.00000  Uiso   1.00
C706   C     0.49027   0.72429   0.47616   0.00000  Uiso   1.00
C707   C     0.44478   0.74346   0.42631   0.00000  Uiso   1.00
C708   C     0.68887   0.68198   0.57895   0.00000  Uiso   1.00
C709   C     0.75298   0.69455   0.63427   0.00000  Uiso   1.00
C710   C     0.82763   0.70011   0.65673   0.00000  Uiso   1.00
C711   C     0.58418   0.63351   0.52625   0.00000  Uiso   1.00
C712   C     0.56029   0.60533   0.53726   0.00000  Uiso   1.00
C713   C     0.54684   0.57007   0.51536   0.00000  Uiso   1.00
H714   H     0.62860   0.65630   0.46292   0.00000  Uiso   1.00
H715   H     0.51867   0.70523   0.38691   0.00000  Uiso   1.00
H716   H     0.28134   0.17548   0.54499   0.00000  Uiso   1.00
H717   H     0.08868   0.08628   0.44800   0.00000  Uiso   1.00
H718   H     0.39235   0.76248   0.31665   0.00000  Uiso   1.00
H719   H     0.44621   0.19975   0.64999   0.00000  Uiso   1.00
H720   H     0.03996   0.01164   0.44546   0.00000  Uiso   1.00
H721   H     0.59429   0.67933   0.57083   0.00000  Uiso   1.00
H722   H     0.48247   0.72953   0.50074   0.00000  Uiso   1.00
H723   H     0.74514   0.69979   0.65883   0.00000  Uiso   1.00
H724   H     0.55248   0.61058   0.56183   0.00000  Uiso   1.00
H725   H     0.36297   0.78221   0.40905   0.00000  Uiso   1.00
H726   H     0.91684   0.71947   0.74239   0.00000  Uiso   1.00
H727   H     0.51059   0.53136   0.53785   0.00000  Uiso   1.00
O728   O     0.30474   0.80496   0.31481   0.00000  Uiso   1.00
O729   O     0.53139   0.22265   0.75213   0.00000  Uiso   1.00
O730   O     0.99839   0.97586   0.48379   0.00000  Uiso   1.00
N731   N     0.40077   0.76023   0.34801   0.00000  Uiso   1.00
N732   N     0.41860   0.20158   0.65966   0.00000  Uiso   1.00
N733   N     0.03881   0.02571   0.46845   0.00000  Uiso   1.00
N734   N     0.38496   0.77085   0.39773   0.00000  Uiso   1.00
N735   N     0.90279   0.71220   0.70938   0.00000  Uiso   1.00
N736   N     0.52300   0.53633   0.51817   0.00000  Uiso   1.00
C737   C     0.71453   0.28257   0.62784   0.00000  Uiso   1.00
C738   C     0.62880   0.28082   0.56641   0.00000  Uiso   1.00
C739   C     0.58384   0.24843   0.53662   0.00000  Uiso   1.00
C740   C     0.50658   0.25276   0.48079   0.00000  Uiso   1.00
C741   C     0.37820   0.24465   0.38920   0.00000  Uiso   1.00
C742   C     0.76690   0.30331   0.62787   0.00000  Uiso   1.00
C743   C     0.83807   0.28982   0.64978   0.00000  Uiso   1.00
C744   C     0.37707   0.81308   0.64570   0.00000  Uiso   1.00
C745   C     0.46313   0.83989   0.64958   0.00000  Uiso   1.00
C746   C     0.70866   0.30832   0.65760   0.00000  Uiso   1.00
C747   C     0.73087   0.29904   0.70452   0.00000  Uiso   1.00
C748   C     0.72085   0.32652   0.72548   0.00000  Uiso   1.00
C749   C     0.71648   0.36111   0.77552   0.00000  Uiso   1.00
C750   C     0.65726   0.34785   0.58167   0.00000  Uiso   1.00
C751   C     0.59769   0.31629   0.54132   0.00000  Uiso   1.00
C752   C     0.52047   0.32066   0.48553   0.00000  Uiso   1.00
C753   C     0.47541   0.28828   0.45567   0.00000  Uiso   1.00
C754   C     0.73579   0.33877   0.60279   0.00000  Uiso   1.00
C755   C     0.27470   0.86205   0.59869   0.00000  Uiso   1.00
C756   C     0.34591   0.84860   0.62058   0.00000  Uiso   1.00
C757   C     0.67754   0.34378   0.63252   0.00000  Uiso   1.00
C758   C     0.66750   0.37128   0.65342   0.00000  Uiso   1.00
C759   C     0.68969   0.36205   0.70035   0.00000  Uiso   1.00
H760   H     0.73876   0.25496   0.64737   0.00000  Uiso   1.00
H761   H     0.60794   0.22099   0.55605   0.00000  Uiso   1.00
H762   H     0.86213   0.26238   0.66919   0.00000  Uiso   1.00
H763   H     0.75495   0.27160   0.72392   0.00000  Uiso   1.00
H764   H     0.44921   0.19897   0.44372   0.00000  Uiso   1.00
H765   H     0.48519   0.78623   0.68232   0.00000  Uiso   1.00
H766   H     0.75917   0.30569   0.79772   0.00000  Uiso   1.00
H767   H     0.63304   0.37546   0.56214   0.00000  Uiso   1.00
H768   H     0.49642   0.34811   0.46613   0.00000  Uiso   1.00
H769   H     0.25061   0.88949   0.57928   0.00000  Uiso   1.00
H770   H     0.64342   0.39871   0.63400   0.00000  Uiso   1.00
H771   H     0.35869   0.30214   0.37074   0.00000  Uiso   1.00
H772   H     0.39468   0.88941   0.60934   0.00000  Uiso   1.00
H773   H     0.66865   0.40886   0.72474   0.00000  Uiso   1.00
O774   O     0.31599   0.23039   0.34561   0.00000  Uiso   1.00
O775   O     0.51920   0.84487   0.65864   0.00000  Uiso   1.00
O776   O     0.72266   0.37039   0.81004   0.00000  Uiso   1.00
N777   N     0.44664   0.22701   0.43973   0.00000  Uiso   1.00
N778   N     0.44776   0.80859   0.66279   0.00000  Uiso   1.00
N779   N     0.73646   0.32678   0.77069   0.00000  Uiso   1.00
N780   N     0.39794   0.28252   0.40046   0.00000  Uiso   1.00
N781   N     0.39905   0.86411   0.62352   0.00000  Uiso   1.00
N782   N     0.68776   0.38229   0.73142   0.00000  Uiso   1.00
C783   C     0.31777   0.05425   0.90129   0.00000  Uiso   1.00
C784   C     0.25347   0.04026   0.89395   0.00000  Uiso   1.00
C785   C     0.23934   0.05465   0.92084   0.00000  Uiso   1.00
C786   C     0.17774   0.03796   0.90846   0.00000  Uiso   1.00
C787   C     0.08490   0.02079   0.90285   0.00000  Uiso   1.00
C788   C     0.37035   0.02032   0.91974   0.00000  Uiso   1.00
C789   C     0.95450   0.51795   0.96831   0.00000  Uiso   1.00
C790   C     0.49128   0.98448   0.97764   0.00000  Uiso   1.00
C791   C     0.57991   0.93637   0.01204   0.00000  Uiso   1.00
C792   C     0.77173   0.56432   0.84237   0.00000  Uiso   1.00
C793   C     0.77296   0.59894   0.82589   0.00000  Uiso   1.00
C794   C     0.72672   0.60252   0.77008   0.00000  Uiso   1.00
C795   C     0.66221   0.62273   0.68436   0.00000  Uiso   1.00
C796   C     0.23349   0.99904   0.83150   0.00000  Uiso   1.00
C797   C     0.20770   0.01027   0.85604   0.00000  Uiso   1.00
C798   C     0.14610   0.99357   0.84362   0.00000  Uiso   1.00
C799   C     0.13188   0.00793   0.87049   0.00000  Uiso   1.00
C800   C     0.32458   0.99034   0.88183   0.00000  Uiso   1.00
C801   C     0.36125   0.95687   0.89109   0.00000  Uiso   1.00
C802   C     0.94543   0.45444   0.93966   0.00000  Uiso   1.00
C803   C     0.22595   0.03434   0.80446   0.00000  Uiso   1.00
C804   C     0.17971   0.03786   0.74867   0.00000  Uiso   1.00
C805   C     0.68086   0.57248   0.73211   0.00000  Uiso   1.00
H806   H     0.85341   0.57759   0.93080   0.00000  Uiso   1.00
H807   H     0.27479   0.07785   0.95017   0.00000  Uiso   1.00
H808   H     0.98991   0.54116   0.99763   0.00000  Uiso   1.00
H809   H     0.80839   0.62214   0.85523   0.00000  Uiso   1.00
H810   H     0.16745   0.06490   0.95494   0.00000  Uiso   1.00
H811   H     0.62105   0.98754   0.05500   0.00000  Uiso   1.00
H812   H     0.73828   0.65831   0.75473   0.00000  Uiso   1.00
H813   H     0.19785   0.97569   0.80199   0.00000  Uiso   1.00
H814   H     0.11068   0.97036   0.81429   0.00000  Uiso   1.00
H815   H     0.82581   0.43367   0.86175   0.00000  Uiso   1.00
H816   H     0.14429   0.01465   0.71935   0.00000  Uiso   1.00
H817   H     0.03426   0.97766   0.84466   0.00000  Uiso   1.00
H818   H     0.98786   0.40030   0.94471   0.00000  Uiso   1.00
H819   H     0.60509   0.57107   0.64444   0.00000  Uiso   1.00
O820   O     0.04634   0.01960   0.91023   0.00000  Uiso   1.00
O821   O     0.64144   0.91811   0.04149   0.00000  Uiso   1.00
O822   O     0.63926   0.64216   0.64754   0.00000  Uiso   1.00
N823   N     0.14805   0.04511   0.92729   0.00000  Uiso   1.00
N824   N     0.57214   0.97278   0.02084   0.00000  Uiso   1.00
N825   N     0.71431   0.63243   0.74012   0.00000  Uiso   1.00
N826   N     0.07639   0.99816   0.86795   0.00000  Uiso   1.00
N827   N     0.00047   0.42583   0.96150   0.00000  Uiso   1.00
N828   N     0.64264   0.58549   0.68077   0.00000  Uiso   1.00
C829   C     0.38538   0.33306   0.57965   0.00000  Uiso   1.00
C830   C     0.94868   0.80269   0.60557   0.00000  Uiso   1.00
C831   C     0.99348   0.78344   0.65521   0.00000  Uiso   1.00
C832   C     0.04834   0.75669   0.67180   0.00000  Uiso   1.00
C833   C     0.14513   0.71062   0.71688   0.00000  Uiso   1.00
C834   C     0.30655   0.31989   0.51998   0.00000  Uiso   1.00
C835   C     0.23186   0.31512   0.49765   0.00000  Uiso   1.00
C836   C     0.16707   0.30286   0.44219   0.00000  Uiso   1.00
C837   C     0.04319   0.28353   0.35437   0.00000  Uiso   1.00
C838   C     0.41306   0.36748   0.57311   0.00000  Uiso   1.00
C839   C     0.42791   0.40272   0.59545   0.00000  Uiso   1.00
C840   C     0.45278   0.43053   0.58471   0.00000  Uiso   1.00
C841   C     0.49428   0.48508   0.57940   0.00000  Uiso   1.00
C842   C     0.90313   0.81976   0.52084   0.00000  Uiso   1.00
C843   C     0.95832   0.79547   0.57362   0.00000  Uiso   1.00
C844   C     0.01313   0.76874   0.59014   0.00000  Uiso   1.00
C845   C     0.05800   0.74946   0.63980   0.00000  Uiso   1.00
C846   C     0.31619   0.31267   0.48803   0.00000  Uiso   1.00
C847   C     0.25150   0.30042   0.43259   0.00000  Uiso   1.00
C848   C     0.17673   0.29563   0.41018   0.00000  Uiso   1.00
C849   C     0.92271   0.86026   0.54117   0.00000  Uiso   1.00
C850   C     0.94755   0.88801   0.53039   0.00000  Uiso   1.00
C851   C     0.46244   0.42329   0.55271   0.00000  Uiso   1.00
H852   H     0.37786   0.33868   0.60452   0.00000  Uiso   1.00
H853   H     0.48599   0.28904   0.67992   0.00000  Uiso   1.00
H854   H     0.22441   0.32072   0.52238   0.00000  Uiso   1.00
H855   H     0.42044   0.40830   0.62017   0.00000  Uiso   1.00
H856   H     0.11011   0.73081   0.74941   0.00000  Uiso   1.00
H857   H     0.05854   0.29762   0.41723   0.00000  Uiso   1.00
H858   H     0.47189   0.48230   0.62343   0.00000  Uiso   1.00
H859   H     0.91064   0.81414   0.49597   0.00000  Uiso   1.00
H860   H     0.02058   0.76316   0.56542   0.00000  Uiso   1.00
H861   H     0.75899   0.79484   0.40788   0.00000  Uiso   1.00
H862   H     0.95501   0.88242   0.50567   0.00000  Uiso   1.00
H863   H     0.13817   0.70980   0.65647   0.00000  Uiso   1.00
H864   H     0.08660   0.27661   0.32429   0.00000  Uiso   1.00
H865   H     0.49995   0.46130   0.53050   0.00000  Uiso   1.00
O866   O     0.19585   0.68720   0.75057   0.00000  Uiso   1.00
O867   O     0.97220   0.27486   0.31476   0.00000  Uiso   1.00
O868   O     0.51452   0.51716   0.58530   0.00000  Uiso   1.00
N869   N     0.10164   0.73287   0.71801   0.00000  Uiso   1.00
N870   N     0.08595   0.29532   0.40745   0.00000  Uiso   1.00
N871   N     0.47238   0.46799   0.60022   0.00000  Uiso   1.00
N872   N     0.11674   0.72156   0.66801   0.00000  Uiso   1.00
N873   N     0.10106   0.28402   0.35744   0.00000  Uiso   1.00
N874   N     0.48749   0.45669   0.55021   0.00000  Uiso   1.00
C875   C     0.81904   0.21807   0.48967   0.00000  Uiso   1.00
C876   C     0.90441   0.22111   0.55111   0.00000  Uiso   1.00
C877   C     0.94815   0.25405   0.57913   0.00000  Uiso   1.00
C878   C     0.02527   0.25092   0.63529   0.00000  Uiso   1.00
C879   C     0.15292   0.26095   0.72658   0.00000  Uiso   1.00
C880   C     0.26688   0.69813   0.49036   0.00000  Uiso   1.00
C881   C     0.19498   0.71174   0.46729   0.00000  Uiso   1.00
C882   C     0.15632   0.68926   0.47232   0.00000  Uiso   1.00
C883   C     0.07042   0.66359   0.46926   0.00000  Uiso   1.00
C884   C     0.82639   0.19101   0.46175   0.00000  Uiso   1.00
C885   C     0.80451   0.19864   0.41460   0.00000  Uiso   1.00
C886   C     0.81594   0.17016   0.39552   0.00000  Uiso   1.00
C887   C     0.82244   0.13344   0.34802   0.00000  Uiso   1.00
C888   C     0.87824   0.15393   0.53960   0.00000  Uiso   1.00
C889   C     0.93656   0.18627   0.57823   0.00000  Uiso   1.00
C890   C     0.01364   0.18309   0.63437   0.00000  Uiso   1.00
C891   C     0.05748   0.21602   0.66246   0.00000  Uiso   1.00
C892   C     0.29903   0.66329   0.51749   0.00000  Uiso   1.00
C893   C     0.26047   0.64078   0.52254   0.00000  Uiso   1.00
C894   C     0.18853   0.65435   0.49949   0.00000  Uiso   1.00
C895   C     0.85855   0.15617   0.48887   0.00000  Uiso   1.00
C896   C     0.87001   0.12767   0.46985   0.00000  Uiso   1.00
C897   C     0.84815   0.13526   0.42269   0.00000  Uiso   1.00
H898   H     0.79400   0.24519   0.46855   0.00000  Uiso   1.00
H899   H     0.92324   0.28101   0.55812   0.00000  Uiso   1.00
H900   H     0.17011   0.73870   0.44630   0.00000  Uiso   1.00
H901   H     0.77963   0.22560   0.39362   0.00000  Uiso   1.00
H902   H     0.08068   0.30536   0.66940   0.00000  Uiso   1.00
H903   H     0.04693   0.71614   0.43360   0.00000  Uiso   1.00
H904   H     0.77787   0.18852   0.32251   0.00000  Uiso   1.00
H905   H     0.40327   0.62680   0.56072   0.00000  Uiso   1.00
H906   H     0.03851   0.15612   0.65535   0.00000  Uiso   1.00
H907   H     0.28537   0.61382   0.54353   0.00000  Uiso   1.00
H908   H     0.89489   0.10072   0.49085   0.00000  Uiso   1.00
H909   H     0.17424   0.20399   0.74831   0.00000  Uiso   1.00
H910   H     0.14048   0.61478   0.51251   0.00000  Uiso   1.00
H911   H     0.87142   0.08716   0.40143   0.00000  Uiso   1.00
O912   O     0.21444   0.27610   0.76945   0.00000  Uiso   1.00
O913   O     0.01416   0.65906   0.46008   0.00000  Uiso   1.00
O914   O     0.81716   0.12282   0.31434   0.00000  Uiso   1.00
N915   N     0.08415   0.27748   0.67498   0.00000  Uiso   1.00
N916   N     0.08513   0.69407   0.45453   0.00000  Uiso   1.00
N917   N     0.80102   0.16824   0.35066   0.00000  Uiso   1.00
N918   N     0.13449   0.22293   0.71744   0.00000  Uiso   1.00
N919   N     0.13547   0.63953   0.49699   0.00000  Uiso   1.00
N920   N     0.85136   0.11370   0.39313   0.00000  Uiso   1.00
C921   C     0.19438   0.46675   0.16877   0.00000  Uiso   1.00
C922   C     0.26135   0.48310   0.18021   0.00000  Uiso   1.00
C923   C     0.27795   0.47255   0.15356   0.00000  Uiso   1.00
C924   C     0.34176   0.49087   0.16998   0.00000  Uiso   1.00
C925   C     0.43879   0.51203   0.18140   0.00000  Uiso   1.00
C926   C     0.64212   0.99987   0.15317   0.00000  Uiso   1.00
C927   C     0.05847   0.50340   0.10380   0.00000  Uiso   1.00
C928   C     0.02191   0.53584   0.09746   0.00000  Uiso   1.00
C929   C     0.93382   0.58302   0.06692   0.00000  Uiso   1.00
C930   C     0.73711   0.95246   0.22538   0.00000  Uiso   1.00
C931   C     0.73331   0.91613   0.23672   0.00000  Uiso   1.00
C932   C     0.77672   0.90866   0.29118   0.00000  Uiso   1.00
C933   C     0.83612   0.88222   0.37276   0.00000  Uiso   1.00
C934   C     0.77819   0.01807   0.24532   0.00000  Uiso   1.00
C935   C     0.30687   0.51098   0.22179   0.00000  Uiso   1.00
C936   C     0.37068   0.52932   0.23826   0.00000  Uiso   1.00
C937   C     0.38737   0.51879   0.21164   0.00000  Uiso   1.00
C938   C     0.68764   0.02774   0.19475   0.00000  Uiso   1.00
C939   C     0.65119   0.06018   0.18849   0.00000  Uiso   1.00
C940   C     0.56751   0.06376   0.13912   0.00000  Uiso   1.00
C941   C     0.28264   0.48033   0.26696   0.00000  Uiso   1.00
C942   C     0.82605   0.97291   0.32141   0.00000  Uiso   1.00
C943   C     0.82232   0.93658   0.33283   0.00000  Uiso   1.00
H944   H     0.65894   0.94505   0.13640   0.00000  Uiso   1.00
H945   H     0.24270   0.45098   0.12138   0.00000  Uiso   1.00
H946   H     0.02325   0.48183   0.07163   0.00000  Uiso   1.00
H947   H     0.69808   0.89457   0.20453   0.00000  Uiso   1.00
H948   H     0.35562   0.46984   0.12306   0.00000  Uiso   1.00
H949   H     0.89290   0.53489   0.01816   0.00000  Uiso   1.00
H950   H     0.76155   0.85089   0.29841   0.00000  Uiso   1.00
H951   H     0.81364   0.03977   0.27769   0.00000  Uiso   1.00
H952   H     0.40589   0.55089   0.27043   0.00000  Uiso   1.00
H953   H     0.68644   0.08174   0.22068   0.00000  Uiso   1.00
H954   H     0.86127   0.99449   0.35358   0.00000  Uiso   1.00
H955   H     0.48807   0.55094   0.24403   0.00000  Uiso   1.00
H956   H     0.52535   0.11598   0.13913   0.00000  Uiso   1.00
H957   H     0.89401   0.93199   0.41938   0.00000  Uiso   1.00
O958   O     0.47972   0.51601   0.17620   0.00000  Uiso   1.00
O959   O     0.87265   0.60134   0.03859   0.00000  Uiso   1.00
O960   O     0.85632   0.85994   0.40627   0.00000  Uiso   1.00
N961   N     0.37414   0.48740   0.15253   0.00000  Uiso   1.00
N962   N     0.94153   0.54821   0.05445   0.00000  Uiso   1.00
N963   N     0.78617   0.87620   0.31646   0.00000  Uiso   1.00
N964   N     0.44541   0.53103   0.21763   0.00000  Uiso   1.00
N965   N     0.51280   0.09185   0.11955   0.00000  Uiso   1.00
N966   N     0.85744   0.91983   0.38156   0.00000  Uiso   1.00
C967   C     0.12074   0.16157   0.48764   0.00000  Uiso   1.00
C968   C     0.05624   0.19135   0.46130   0.00000  Uiso   1.00
C969   C     0.01083   0.21048   0.41147   0.00000  Uiso   1.00
C970   C     0.95489   0.23667   0.39449   0.00000  Uiso   1.00
C971   C     0.85632   0.28189   0.34879   0.00000  Uiso   1.00
C972   C     0.19896   0.17520   0.54719   0.00000  Uiso   1.00
C973   C     0.77354   0.68074   0.56958   0.00000  Uiso   1.00
C974   C     0.33775   0.19331   0.62491   0.00000  Uiso   1.00
C975   C     0.96075   0.71342   0.71256   0.00000  Uiso   1.00
C976   C     0.09428   0.12673   0.49449   0.00000  Uiso   1.00
C977   C     0.08086   0.09151   0.47257   0.00000  Uiso   1.00
C978   C     0.05695   0.06328   0.48354   0.00000  Uiso   1.00
C979   C     0.01742   0.00814   0.48936   0.00000  Uiso   1.00
C980   C     0.10215   0.17406   0.54611   0.00000  Uiso   1.00
C981   C     0.04615   0.19813   0.49306   0.00000  Uiso   1.00
C982   C     0.99027   0.22429   0.47616   0.00000  Uiso   1.00
C983   C     0.94478   0.24346   0.42631   0.00000  Uiso   1.00
C984   C     0.18887   0.18198   0.57895   0.00000  Uiso   1.00
C985   C     0.25298   0.19455   0.63427   0.00000  Uiso   1.00
C986   C     0.32763   0.20011   0.65673   0.00000  Uiso   1.00
C987   C     0.08418   0.13351   0.52625   0.00000  Uiso   1.00
C988   C     0.06029   0.10533   0.53726   0.00000  Uiso   1.00
C989   C     0.04684   0.07007   0.51536   0.00000  Uiso   1.00
H990   H     0.12860   0.15630   0.46292   0.00000  Uiso   1.00
H991   H     0.01867   0.20523   0.38691   0.00000  Uiso   1.00
H992   H     0.78134   0.67548   0.54499   0.00000  Uiso   1.00
H993   H     0.58868   0.58628   0.44800   0.00000  Uiso   1.00
H994   H     0.89235   0.26248   0.31665   0.00000  Uiso   1.00
H995   H     0.94621   0.69975   0.64999   0.00000  Uiso   1.00
H996   H     0.53996   0.51164   0.44546   0.00000  Uiso   1.00
H997   H     0.09429   0.17933   0.57083   0.00000  Uiso   1.00
H998   H     0.98247   0.22953   0.50074   0.00000  Uiso   1.00
H999   H     0.24514   0.19979   0.65883   0.00000  Uiso   1.00
H1000  H     0.05248   0.11058   0.56183   0.00000  Uiso   1.00
H1001  H     0.86297   0.28221   0.40905   0.00000  Uiso   1.00
H1002  H     0.41684   0.21947   0.74239   0.00000  Uiso   1.00
H1003  H     0.01059   0.03137   0.53785   0.00000  Uiso   1.00
O1004  O     0.80474   0.30496   0.31481   0.00000  Uiso   1.00
O1005  O     0.03139   0.72265   0.75213   0.00000  Uiso   1.00
O1006  O     0.49839   0.47586   0.48379   0.00000  Uiso   1.00
N1007  N     0.90077   0.26023   0.34801   0.00000  Uiso   1.00
N1008  N     0.91860   0.70158   0.65966   0.00000  Uiso   1.00
N1009  N     0.53881   0.52571   0.46845   0.00000  Uiso   1.00
N1010  N     0.88496   0.27085   0.39773   0.00000  Uiso   1.00
N1011  N     0.40279   0.21220   0.70938   0.00000  Uiso   1.00
N1012  N     0.02300   0.03633   0.51817   0.00000  Uiso   1.00
C1013  C     0.21453   0.78257   0.62784   0.00000  Uiso   1.00
C1014  C     0.12880   0.78082   0.56641   0.00000  Uiso   1.00
C1015  C     0.08384   0.74843   0.53662   0.00000  Uiso   1.00
C1016  C     0.00658   0.75276   0.48079   0.00000  Uiso   1.00
C1017  C     0.87820   0.74465   0.38920   0.00000  Uiso   1.00
C1018  C     0.26690   0.80331   0.62787   0.00000  Uiso   1.00
C1019  C     0.33807   0.78982   0.64978   0.00000  Uiso   1.00
C1020  C     0.87707   0.31308   0.64570   0.00000  Uiso   1.00
C1021  C     0.96313   0.33989   0.64958   0.00000  Uiso   1.00
C1022  C     0.20866   0.80832   0.65760   0.00000  Uiso   1.00
C1023  C     0.23087   0.79904   0.70452   0.00000  Uiso   1.00
C1024  C     0.22085   0.82652   0.72548   0.00000  Uiso   1.00
C1025  C     0.21648   0.86111   0.77552   0.00000  Uiso   1.00
C1026  C     0.15726   0.84785   0.58167   0.00000  Uiso   1.00
C1027  C     0.09769   0.81629   0.54132   0.00000  Uiso   1.00
C1028  C     0.02047   0.82066   0.48553   0.00000  Uiso   1.00
C1029  C     0.97541   0.78828   0.45567   0.00000  Uiso   1.00
C1030  C     0.23579   0.83877   0.60279   0.00000  Uiso   1.00
C1031  C     0.77470   0.36205   0.59869   0.00000  Uiso   1.00
C1032  C     0.84591   0.34860   0.62058   0.00000  Uiso   1.00
C1033  C     0.17754   0.84378   0.63252   0.00000  Uiso   1.00
C1034  C     0.16750   0.87128   0.65342   0.00000  Uiso   1.00
C1035  C     0.18969   0.86205   0.70035   0.00000  Uiso   1.00
H1036  H     0.23876   0.75496   0.64737   0.00000  Uiso   1.00
H1037  H     0.10794   0.72099   0.55605   0.00000  Uiso   1.00
H1038  H     0.36213   0.76238   0.66919   0.00000  Uiso   1.00
H1039  H     0.25495   0.77160   0.72392   0.00000  Uiso   1.00
H1040  H     0.94921   0.69897   0.44372   0.00000  Uiso   1.00
H1041  H     0.98519   0.28623   0.68232   0.00000  Uiso   1.00
H1042  H     0.25917   0.80569   0.79772   0.00000  Uiso   1.00
H1043  H     0.13304   0.87546   0.56214   0.00000  Uiso   1.00
H1044  H     0.99642   0.84811   0.46613   0.00000  Uiso   1.00
H1045  H     0.75061   0.38949   0.57928   0.00000  Uiso   1.00
H1046  H     0.14342   0.89871   0.63400   0.00000  Uiso   1.00
H1047  H     0.85869   0.80214   0.37074   0.00000  Uiso   1.00
H1048  H     0.89468   0.38941   0.60934   0.00000  Uiso   1.00
H1049  H     0.16865   0.90886   0.72474   0.00000  Uiso   1.00
O1050  O     0.81599   0.73039   0.34561   0.00000  Uiso   1.00
O1051  O     0.01920   0.34487   0.65864   0.00000  Uiso   1.00
O1052  O     0.22266   0.87039   0.81004   0.00000  Uiso   1.00
N1053  N     0.94664   0.72701   0.43973   0.00000  Uiso   1.00
N1054  N     0.94776   0.30859   0.66279   0.00000  Uiso   1.00
N1055  N     0.23646   0.82678   0.77069   0.00000  Uiso   1.00
N1056  N     0.89794   0.78252   0.40046   0.00000  Uiso   1.00
N1057  N     0.89905   0.36411   0.62352   0.00000  Uiso   1.00
N1058  N     0.18776   0.88229   0.73142   0.00000  Uiso   1.00
C1059  C     0.81777   0.55425   0.90129   0.00000  Uiso   1.00
C1060  C     0.75347   0.54026   0.89395   0.00000  Uiso   1.00
C1061  C     0.73934   0.55465   0.92084   0.00000  Uiso   1.00
C1062  C     0.67774   0.53796   0.90846   0.00000  Uiso   1.00
C1063  C     0.58490   0.52079   0.90285   0.00000  Uiso   1.00
C1064  C     0.87035   0.52032   0.91974   0.00000  Uiso   1.00
C1065  C     0.45450   0.01795   0.96831   0.00000  Uiso   1.00
C1066  C     0.99128   0.48448   0.97764   0.00000  Uiso   1.00
C1067  C     0.07991   0.43637   0.01204   0.00000  Uiso   1.00
C1068  C     0.27173   0.06432   0.84237   0.00000  Uiso   1.00
C1069  C     0.27296   0.09894   0.82589   0.00000  Uiso   1.00
C1070  C     0.22672   0.10252   0.77008   0.00000  Uiso   1.00
C1071  C     0.16221   0.12273   0.68436   0.00000  Uiso   1.00
C1072  C     0.73349   0.49904   0.83150   0.00000  Uiso   1.00
C1073  C     0.70770   0.51027   0.85604   0.00000  Uiso   1.00
C1074  C     0.64610   0.49357   0.84362   0.00000  Uiso   1.00
C1075  C     0.63188   0.50793   0.87049   0.00000  Uiso   1.00
C1076  C     0.82458   0.49034   0.88183   0.00000  Uiso   1.00
C1077  C     0.86125   0.45687   0.89109   0.00000  Uiso   1.00
C1078  C     0.44543   0.95444   0.93966   0.00000  Uiso   1.00
C1079  C     0.72595   0.53434   0.80446   0.00000  Uiso   1.00
C1080  C     0.67971   0.53786   0.74867   0.00000  Uiso   1.00
C1081  C     0.18086   0.07248   0.73211   0.00000  Uiso   1.00
H1082  H     0.35341   0.07759   0.93080   0.00000  Uiso   1.00
H1083  H     0.77479   0.57785   0.95017   0.00000  Uiso   1.00
H1084  H     0.48991   0.04116   0.99763   0.00000  Uiso   1.00
H1085  H     0.30839   0.12214   0.85523   0.00000  Uiso   1.00
H1086  H     0.66745   0.56490   0.95494   0.00000  Uiso   1.00
H1087  H     0.12105   0.48754   0.05500   0.00000  Uiso   1.00
H1088  H     0.23828   0.15831   0.75473   0.00000  Uiso   1.00
H1089  H     0.69785   0.47569   0.80199   0.00000  Uiso   1.00
H1090  H     0.61068   0.47036   0.81429   0.00000  Uiso   1.00
H1091  H     0.32581   0.93367   0.86175   0.00000  Uiso   1.00
H1092  H     0.64429   0.51465   0.71935   0.00000  Uiso   1.00
H1093  H     0.53426   0.47766   0.84466   0.00000  Uiso   1.00
H1094  H     0.48786   0.90030   0.94471   0.00000  Uiso   1.00
H1095  H     0.10509   0.07107   0.64444   0.00000  Uiso   1.00
O1096  O     0.54634   0.51960   0.91023   0.00000  Uiso   1.00
O1097  O     0.14144   0.41811   0.04149   0.00000  Uiso   1.00
O1098  O     0.13926   0.14216   0.64754   0.00000  Uiso   1.00
N1099  N     0.64805   0.54511   0.92729   0.00000  Uiso   1.00
N1100  N     0.07214   0.47278   0.02084   0.00000  Uiso   1.00
N1101  N     0.21431   0.13243   0.74012   0.00000  Uiso   1.00
N1102  N     0.57639   0.49816   0.86795   0.00000  Uiso   1.00
N1103  N     0.50047   0.92583   0.96150   0.00000  Uiso   1.00
N1104  N     0.14264   0.08549   0.68077   0.00000  Uiso   1.00
