data_job_03867
_audit_creation_date              2018-12-19
_audit_creation_method            'Materials Studio'
_symmetry_space_group_name_H-M    'P1'
_symmetry_Int_Tables_number       1
_symmetry_cell_setting            triclinic
loop_
_symmetry_equiv_pos_as_xyz
  x,y,z
_cell_length_a                    30.2455
_cell_length_b                    12.7279
_cell_length_c                    24.3666
_cell_angle_alpha                 90.0000
_cell_angle_beta                  90.0000
_cell_angle_gamma                 90.0000
loop_
_atom_site_label
_atom_site_type_symbol
_atom_site_fract_x
_atom_site_fract_y
_atom_site_fract_z
_atom_site_U_iso_or_equiv
_atom_site_adp_type
_atom_site_occupancy
C1     C     0.32272   0.79160   0.61795   0.00000  Uiso   1.00
C2     C     0.34337   0.68238   0.62015   0.00000  Uiso   1.00
C3     C     0.32517   0.59499   0.64564   0.00000  Uiso   1.00
C4     C     0.34922   0.50221   0.64308   0.00000  Uiso   1.00
C5     C     0.37509   0.33341   0.65064   0.00000  Uiso   1.00
C6     C     0.35696   0.86625   0.64224   0.00000  Uiso   1.00
C7     C     0.35018   0.93346   0.68629   0.00000  Uiso   1.00
C8     C     0.38568   0.99548   0.70231   0.00000  Uiso   1.00
C9     C     0.43264   0.11219   0.74414   0.00000  Uiso   1.00
C10    C     0.31928   0.81976   0.55727   0.00000  Uiso   1.00
C11    C     0.28083   0.84792   0.52989   0.00000  Uiso   1.00
C12    C     0.28460   0.87081   0.47437   0.00000  Uiso   1.00
C13    C     0.27306   0.91534   0.38428   0.00000  Uiso   1.00
C14    C     0.39779   0.78224   0.56806   0.00000  Uiso   1.00
C15    C     0.38414   0.67730   0.59305   0.00000  Uiso   1.00
C16    C     0.40823   0.58463   0.59044   0.00000  Uiso   1.00
C17    C     0.39007   0.49711   0.61593   0.00000  Uiso   1.00
C18    C     0.39773   0.86117   0.61514   0.00000  Uiso   1.00
C19    C     0.43324   0.92310   0.63110   0.00000  Uiso   1.00
C20    C     0.42653   0.99038   0.67516   0.00000  Uiso   1.00
C21    C     0.36006   0.81467   0.53017   0.00000  Uiso   1.00
C22    C     0.36389   0.83754   0.47469   0.00000  Uiso   1.00
C23    C     0.32545   0.86572   0.44722   0.00000  Uiso   1.00
H24    H     0.29097   0.79557   0.63905   0.00000  Uiso   1.00
H25    H     0.29362   0.59896   0.66662   0.00000  Uiso   1.00
H26    H     0.31863   0.93739   0.70725   0.00000  Uiso   1.00
H27    H     0.24928   0.85184   0.55087   0.00000  Uiso   1.00
H28    H     0.31453   0.37876   0.68524   0.00000  Uiso   1.00
H29    H     0.36726   0.09237   0.77092   0.00000  Uiso   1.00
H30    H     0.22104   0.91199   0.44116   0.00000  Uiso   1.00
H31    H     0.42954   0.77828   0.54696   0.00000  Uiso   1.00
H32    H     0.43978   0.58072   0.56947   0.00000  Uiso   1.00
H33    H     0.46479   0.91915   0.61011   0.00000  Uiso   1.00
H34    H     0.39545   0.83360   0.45373   0.00000  Uiso   1.00
H35    H     0.43317   0.36395   0.60640   0.00000  Uiso   1.00
H36    H     0.48590   0.07757   0.69208   0.00000  Uiso   1.00
H37    H     0.33967   0.89718   0.36232   0.00000  Uiso   1.00
O38    O     0.37810   0.24171   0.66231   0.00000  Uiso   1.00
O39    O     0.44727   0.17796   0.77471   0.00000  Uiso   1.00
O40    O     0.25543   0.94129   0.34207   0.00000  Uiso   1.00
N41    N     0.34105   0.40238   0.66359   0.00000  Uiso   1.00
N42    N     0.39035   0.06955   0.74370   0.00000  Uiso   1.00
N43    N     0.25364   0.90094   0.43540   0.00000  Uiso   1.00
N44    N     0.40488   0.39441   0.62117   0.00000  Uiso   1.00
N45    N     0.45418   0.06159   0.70127   0.00000  Uiso   1.00
N46    N     0.31748   0.89297   0.39298   0.00000  Uiso   1.00
C47    C     0.82272   0.29160   0.61795   0.00000  Uiso   1.00
C48    C     0.84337   0.18238   0.62015   0.00000  Uiso   1.00
C49    C     0.82517   0.09499   0.64564   0.00000  Uiso   1.00
C50    C     0.84922   0.00221   0.64308   0.00000  Uiso   1.00
C51    C     0.87509   0.83341   0.65064   0.00000  Uiso   1.00
C52    C     0.85696   0.36625   0.64224   0.00000  Uiso   1.00
C53    C     0.85018   0.43346   0.68629   0.00000  Uiso   1.00
C54    C     0.88568   0.49548   0.70231   0.00000  Uiso   1.00
C55    C     0.93264   0.61219   0.74414   0.00000  Uiso   1.00
C56    C     0.81928   0.31976   0.55727   0.00000  Uiso   1.00
C57    C     0.78083   0.34792   0.52989   0.00000  Uiso   1.00
C58    C     0.78460   0.37081   0.47437   0.00000  Uiso   1.00
C59    C     0.77306   0.41534   0.38428   0.00000  Uiso   1.00
C60    C     0.89779   0.28224   0.56806   0.00000  Uiso   1.00
C61    C     0.88414   0.17730   0.59305   0.00000  Uiso   1.00
C62    C     0.90823   0.08463   0.59044   0.00000  Uiso   1.00
C63    C     0.89007   0.99711   0.61593   0.00000  Uiso   1.00
C64    C     0.89773   0.36117   0.61514   0.00000  Uiso   1.00
C65    C     0.93324   0.42310   0.63110   0.00000  Uiso   1.00
C66    C     0.92653   0.49038   0.67516   0.00000  Uiso   1.00
C67    C     0.86006   0.31467   0.53017   0.00000  Uiso   1.00
C68    C     0.86389   0.33754   0.47469   0.00000  Uiso   1.00
C69    C     0.82545   0.36572   0.44722   0.00000  Uiso   1.00
H70    H     0.79097   0.29557   0.63905   0.00000  Uiso   1.00
H71    H     0.79362   0.09896   0.66662   0.00000  Uiso   1.00
H72    H     0.81863   0.43739   0.70725   0.00000  Uiso   1.00
H73    H     0.74928   0.35184   0.55087   0.00000  Uiso   1.00
H74    H     0.81453   0.87876   0.68524   0.00000  Uiso   1.00
H75    H     0.86726   0.59237   0.77092   0.00000  Uiso   1.00
H76    H     0.72104   0.41199   0.44116   0.00000  Uiso   1.00
H77    H     0.92954   0.27828   0.54696   0.00000  Uiso   1.00
H78    H     0.93978   0.08072   0.56947   0.00000  Uiso   1.00
H79    H     0.96479   0.41915   0.61011   0.00000  Uiso   1.00
H80    H     0.89545   0.33360   0.45373   0.00000  Uiso   1.00
H81    H     0.93317   0.86395   0.60640   0.00000  Uiso   1.00
H82    H     0.98590   0.57757   0.69208   0.00000  Uiso   1.00
H83    H     0.83967   0.39718   0.36232   0.00000  Uiso   1.00
O84    O     0.87810   0.74171   0.66231   0.00000  Uiso   1.00
O85    O     0.94727   0.67796   0.77471   0.00000  Uiso   1.00
O86    O     0.75543   0.44129   0.34207   0.00000  Uiso   1.00
N87    N     0.84105   0.90238   0.66359   0.00000  Uiso   1.00
N88    N     0.89035   0.56955   0.74370   0.00000  Uiso   1.00
N89    N     0.75364   0.40094   0.43540   0.00000  Uiso   1.00
N90    N     0.90488   0.89441   0.62117   0.00000  Uiso   1.00
N91    N     0.95418   0.56159   0.70127   0.00000  Uiso   1.00
N92    N     0.81748   0.39297   0.39298   0.00000  Uiso   1.00
C93    C     0.17728   0.70840   0.61795   0.00000  Uiso   1.00
C94    C     0.15663   0.81762   0.62015   0.00000  Uiso   1.00
C95    C     0.17483   0.90501   0.64564   0.00000  Uiso   1.00
C96    C     0.15078   0.99779   0.64308   0.00000  Uiso   1.00
C97    C     0.12491   0.16659   0.65064   0.00000  Uiso   1.00
C98    C     0.14304   0.63375   0.64224   0.00000  Uiso   1.00
C99    C     0.14982   0.56654   0.68629   0.00000  Uiso   1.00
C100   C     0.11432   0.50452   0.70231   0.00000  Uiso   1.00
C101   C     0.06736   0.38781   0.74414   0.00000  Uiso   1.00
C102   C     0.18072   0.68024   0.55727   0.00000  Uiso   1.00
C103   C     0.21917   0.65208   0.52989   0.00000  Uiso   1.00
C104   C     0.21540   0.62919   0.47437   0.00000  Uiso   1.00
C105   C     0.22694   0.58466   0.38428   0.00000  Uiso   1.00
C106   C     0.10221   0.71776   0.56806   0.00000  Uiso   1.00
C107   C     0.11586   0.82270   0.59305   0.00000  Uiso   1.00
C108   C     0.09177   0.91537   0.59044   0.00000  Uiso   1.00
C109   C     0.10993   0.00289   0.61593   0.00000  Uiso   1.00
C110   C     0.10227   0.63883   0.61514   0.00000  Uiso   1.00
C111   C     0.06676   0.57690   0.63110   0.00000  Uiso   1.00
C112   C     0.07347   0.50962   0.67516   0.00000  Uiso   1.00
C113   C     0.13994   0.68533   0.53017   0.00000  Uiso   1.00
C114   C     0.13611   0.66246   0.47469   0.00000  Uiso   1.00
C115   C     0.17455   0.63428   0.44722   0.00000  Uiso   1.00
H116   H     0.20903   0.70443   0.63905   0.00000  Uiso   1.00
H117   H     0.20638   0.90104   0.66662   0.00000  Uiso   1.00
H118   H     0.18137   0.56261   0.70725   0.00000  Uiso   1.00
H119   H     0.25072   0.64816   0.55087   0.00000  Uiso   1.00
H120   H     0.18547   0.12124   0.68524   0.00000  Uiso   1.00
H121   H     0.13274   0.40763   0.77092   0.00000  Uiso   1.00
H122   H     0.27896   0.58801   0.44116   0.00000  Uiso   1.00
H123   H     0.07046   0.72172   0.54696   0.00000  Uiso   1.00
H124   H     0.06022   0.91928   0.56947   0.00000  Uiso   1.00
H125   H     0.03521   0.58085   0.61011   0.00000  Uiso   1.00
H126   H     0.10455   0.66640   0.45373   0.00000  Uiso   1.00
H127   H     0.06683   0.13605   0.60640   0.00000  Uiso   1.00
H128   H     0.01410   0.42243   0.69208   0.00000  Uiso   1.00
H129   H     0.16033   0.60282   0.36232   0.00000  Uiso   1.00
O130   O     0.12190   0.25829   0.66231   0.00000  Uiso   1.00
O131   O     0.05273   0.32204   0.77471   0.00000  Uiso   1.00
O132   O     0.24457   0.55871   0.34207   0.00000  Uiso   1.00
N133   N     0.15895   0.09762   0.66359   0.00000  Uiso   1.00
N134   N     0.10965   0.43045   0.74370   0.00000  Uiso   1.00
N135   N     0.24636   0.59906   0.43540   0.00000  Uiso   1.00
N136   N     0.09512   0.10559   0.62117   0.00000  Uiso   1.00
N137   N     0.04582   0.43841   0.70127   0.00000  Uiso   1.00
N138   N     0.18252   0.60703   0.39298   0.00000  Uiso   1.00
C139   C     0.67728   0.20840   0.61795   0.00000  Uiso   1.00
C140   C     0.65663   0.31762   0.62015   0.00000  Uiso   1.00
C141   C     0.67483   0.40501   0.64564   0.00000  Uiso   1.00
C142   C     0.65078   0.49779   0.64308   0.00000  Uiso   1.00
C143   C     0.62491   0.66659   0.65064   0.00000  Uiso   1.00
C144   C     0.64304   0.13375   0.64224   0.00000  Uiso   1.00
C145   C     0.64982   0.06654   0.68629   0.00000  Uiso   1.00
C146   C     0.61432   0.00452   0.70231   0.00000  Uiso   1.00
C147   C     0.56736   0.88781   0.74414   0.00000  Uiso   1.00
C148   C     0.68072   0.18024   0.55727   0.00000  Uiso   1.00
C149   C     0.71917   0.15208   0.52989   0.00000  Uiso   1.00
C150   C     0.71540   0.12919   0.47437   0.00000  Uiso   1.00
C151   C     0.72694   0.08466   0.38428   0.00000  Uiso   1.00
C152   C     0.60221   0.21776   0.56806   0.00000  Uiso   1.00
C153   C     0.61586   0.32270   0.59305   0.00000  Uiso   1.00
C154   C     0.59177   0.41537   0.59044   0.00000  Uiso   1.00
C155   C     0.60993   0.50289   0.61593   0.00000  Uiso   1.00
C156   C     0.60227   0.13883   0.61514   0.00000  Uiso   1.00
C157   C     0.56676   0.07690   0.63110   0.00000  Uiso   1.00
C158   C     0.57347   0.00962   0.67516   0.00000  Uiso   1.00
C159   C     0.63994   0.18533   0.53017   0.00000  Uiso   1.00
C160   C     0.63611   0.16246   0.47469   0.00000  Uiso   1.00
C161   C     0.67455   0.13428   0.44722   0.00000  Uiso   1.00
H162   H     0.70903   0.20443   0.63905   0.00000  Uiso   1.00
H163   H     0.70638   0.40104   0.66662   0.00000  Uiso   1.00
H164   H     0.68137   0.06261   0.70725   0.00000  Uiso   1.00
H165   H     0.75072   0.14816   0.55087   0.00000  Uiso   1.00
H166   H     0.68547   0.62124   0.68524   0.00000  Uiso   1.00
H167   H     0.63274   0.90763   0.77092   0.00000  Uiso   1.00
H168   H     0.77896   0.08801   0.44116   0.00000  Uiso   1.00
H169   H     0.57046   0.22172   0.54696   0.00000  Uiso   1.00
H170   H     0.56022   0.41928   0.56947   0.00000  Uiso   1.00
H171   H     0.53521   0.08085   0.61011   0.00000  Uiso   1.00
H172   H     0.60455   0.16640   0.45373   0.00000  Uiso   1.00
H173   H     0.56683   0.63605   0.60640   0.00000  Uiso   1.00
H174   H     0.51410   0.92243   0.69208   0.00000  Uiso   1.00
H175   H     0.66033   0.10282   0.36232   0.00000  Uiso   1.00
O176   O     0.62190   0.75829   0.66231   0.00000  Uiso   1.00
O177   O     0.55273   0.82204   0.77471   0.00000  Uiso   1.00
O178   O     0.74457   0.05871   0.34207   0.00000  Uiso   1.00
N179   N     0.65895   0.59762   0.66359   0.00000  Uiso   1.00
N180   N     0.60965   0.93045   0.74370   0.00000  Uiso   1.00
N181   N     0.74636   0.09906   0.43540   0.00000  Uiso   1.00
N182   N     0.59512   0.60559   0.62117   0.00000  Uiso   1.00
N183   N     0.54582   0.93841   0.70127   0.00000  Uiso   1.00
N184   N     0.68252   0.10703   0.39298   0.00000  Uiso   1.00
C185   C     0.67728   0.79160   0.38205   0.00000  Uiso   1.00
C186   C     0.65663   0.68238   0.37985   0.00000  Uiso   1.00
C187   C     0.67483   0.59499   0.35436   0.00000  Uiso   1.00
C188   C     0.65078   0.50221   0.35692   0.00000  Uiso   1.00
C189   C     0.62491   0.33341   0.34936   0.00000  Uiso   1.00
C190   C     0.64304   0.86625   0.35776   0.00000  Uiso   1.00
C191   C     0.64982   0.93346   0.31371   0.00000  Uiso   1.00
C192   C     0.61432   0.99548   0.29769   0.00000  Uiso   1.00
C193   C     0.56736   0.11219   0.25586   0.00000  Uiso   1.00
C194   C     0.68072   0.81976   0.44273   0.00000  Uiso   1.00
C195   C     0.71917   0.84792   0.47011   0.00000  Uiso   1.00
C196   C     0.71540   0.87081   0.52563   0.00000  Uiso   1.00
C197   C     0.72694   0.91534   0.61572   0.00000  Uiso   1.00
C198   C     0.60221   0.78224   0.43194   0.00000  Uiso   1.00
C199   C     0.61586   0.67730   0.40695   0.00000  Uiso   1.00
C200   C     0.59177   0.58463   0.40956   0.00000  Uiso   1.00
C201   C     0.60993   0.49711   0.38407   0.00000  Uiso   1.00
C202   C     0.60227   0.86117   0.38486   0.00000  Uiso   1.00
C203   C     0.56676   0.92310   0.36890   0.00000  Uiso   1.00
C204   C     0.57347   0.99038   0.32484   0.00000  Uiso   1.00
C205   C     0.63994   0.81467   0.46983   0.00000  Uiso   1.00
C206   C     0.63611   0.83754   0.52531   0.00000  Uiso   1.00
C207   C     0.67455   0.86572   0.55278   0.00000  Uiso   1.00
H208   H     0.70903   0.79557   0.36095   0.00000  Uiso   1.00
H209   H     0.70638   0.59896   0.33338   0.00000  Uiso   1.00
H210   H     0.68137   0.93739   0.29275   0.00000  Uiso   1.00
H211   H     0.75072   0.85184   0.44913   0.00000  Uiso   1.00
H212   H     0.68547   0.37876   0.31476   0.00000  Uiso   1.00
H213   H     0.63274   0.09237   0.22908   0.00000  Uiso   1.00
H214   H     0.77896   0.91199   0.55884   0.00000  Uiso   1.00
H215   H     0.57046   0.77828   0.45304   0.00000  Uiso   1.00
H216   H     0.56022   0.58072   0.43053   0.00000  Uiso   1.00
H217   H     0.53521   0.91915   0.38989   0.00000  Uiso   1.00
H218   H     0.60455   0.83360   0.54627   0.00000  Uiso   1.00
H219   H     0.56683   0.36395   0.39360   0.00000  Uiso   1.00
H220   H     0.51410   0.07757   0.30792   0.00000  Uiso   1.00
H221   H     0.66033   0.89718   0.63768   0.00000  Uiso   1.00
O222   O     0.62190   0.24171   0.33769   0.00000  Uiso   1.00
O223   O     0.55273   0.17796   0.22529   0.00000  Uiso   1.00
O224   O     0.74457   0.94129   0.65793   0.00000  Uiso   1.00
N225   N     0.65895   0.40238   0.33641   0.00000  Uiso   1.00
N226   N     0.60965   0.06955   0.25630   0.00000  Uiso   1.00
N227   N     0.74636   0.90094   0.56460   0.00000  Uiso   1.00
N228   N     0.59512   0.39441   0.37883   0.00000  Uiso   1.00
N229   N     0.54582   0.06159   0.29873   0.00000  Uiso   1.00
N230   N     0.68252   0.89297   0.60702   0.00000  Uiso   1.00
C231   C     0.17728   0.29160   0.38205   0.00000  Uiso   1.00
C232   C     0.15663   0.18238   0.37985   0.00000  Uiso   1.00
C233   C     0.17483   0.09499   0.35436   0.00000  Uiso   1.00
C234   C     0.15078   0.00221   0.35692   0.00000  Uiso   1.00
C235   C     0.12491   0.83341   0.34936   0.00000  Uiso   1.00
C236   C     0.14304   0.36625   0.35776   0.00000  Uiso   1.00
C237   C     0.14982   0.43346   0.31371   0.00000  Uiso   1.00
C238   C     0.11432   0.49548   0.29769   0.00000  Uiso   1.00
C239   C     0.06736   0.61219   0.25586   0.00000  Uiso   1.00
C240   C     0.18072   0.31976   0.44273   0.00000  Uiso   1.00
C241   C     0.21917   0.34792   0.47011   0.00000  Uiso   1.00
C242   C     0.21540   0.37081   0.52563   0.00000  Uiso   1.00
C243   C     0.22694   0.41534   0.61572   0.00000  Uiso   1.00
C244   C     0.10221   0.28224   0.43194   0.00000  Uiso   1.00
C245   C     0.11586   0.17730   0.40695   0.00000  Uiso   1.00
C246   C     0.09177   0.08463   0.40956   0.00000  Uiso   1.00
C247   C     0.10993   0.99711   0.38407   0.00000  Uiso   1.00
C248   C     0.10227   0.36117   0.38486   0.00000  Uiso   1.00
C249   C     0.06676   0.42310   0.36890   0.00000  Uiso   1.00
C250   C     0.07347   0.49038   0.32484   0.00000  Uiso   1.00
C251   C     0.13994   0.31467   0.46983   0.00000  Uiso   1.00
C252   C     0.13611   0.33754   0.52531   0.00000  Uiso   1.00
C253   C     0.17455   0.36572   0.55278   0.00000  Uiso   1.00
H254   H     0.20903   0.29557   0.36095   0.00000  Uiso   1.00
H255   H     0.20638   0.09896   0.33338   0.00000  Uiso   1.00
H256   H     0.18137   0.43739   0.29275   0.00000  Uiso   1.00
H257   H     0.25072   0.35184   0.44913   0.00000  Uiso   1.00
H258   H     0.18547   0.87876   0.31476   0.00000  Uiso   1.00
H259   H     0.13274   0.59237   0.22908   0.00000  Uiso   1.00
H260   H     0.27896   0.41199   0.55884   0.00000  Uiso   1.00
H261   H     0.07046   0.27828   0.45304   0.00000  Uiso   1.00
H262   H     0.06022   0.08072   0.43053   0.00000  Uiso   1.00
H263   H     0.03521   0.41915   0.38989   0.00000  Uiso   1.00
H264   H     0.10455   0.33360   0.54627   0.00000  Uiso   1.00
H265   H     0.06683   0.86395   0.39360   0.00000  Uiso   1.00
H266   H     0.01410   0.57757   0.30792   0.00000  Uiso   1.00
H267   H     0.16033   0.39718   0.63768   0.00000  Uiso   1.00
O268   O     0.12190   0.74171   0.33769   0.00000  Uiso   1.00
O269   O     0.05273   0.67796   0.22529   0.00000  Uiso   1.00
O270   O     0.24457   0.44129   0.65793   0.00000  Uiso   1.00
N271   N     0.15895   0.90238   0.33641   0.00000  Uiso   1.00
N272   N     0.10965   0.56955   0.25630   0.00000  Uiso   1.00
N273   N     0.24636   0.40094   0.56460   0.00000  Uiso   1.00
N274   N     0.09512   0.89441   0.37883   0.00000  Uiso   1.00
N275   N     0.04582   0.56159   0.29873   0.00000  Uiso   1.00
N276   N     0.18252   0.39297   0.60702   0.00000  Uiso   1.00
C277   C     0.82272   0.70840   0.38205   0.00000  Uiso   1.00
C278   C     0.84337   0.81762   0.37985   0.00000  Uiso   1.00
C279   C     0.82517   0.90501   0.35436   0.00000  Uiso   1.00
C280   C     0.84922   0.99779   0.35692   0.00000  Uiso   1.00
C281   C     0.87509   0.16659   0.34936   0.00000  Uiso   1.00
C282   C     0.85696   0.63375   0.35776   0.00000  Uiso   1.00
C283   C     0.85018   0.56654   0.31371   0.00000  Uiso   1.00
C284   C     0.88568   0.50452   0.29769   0.00000  Uiso   1.00
C285   C     0.93264   0.38781   0.25586   0.00000  Uiso   1.00
C286   C     0.81928   0.68024   0.44273   0.00000  Uiso   1.00
C287   C     0.78083   0.65208   0.47011   0.00000  Uiso   1.00
C288   C     0.78460   0.62919   0.52563   0.00000  Uiso   1.00
C289   C     0.77306   0.58466   0.61572   0.00000  Uiso   1.00
C290   C     0.89779   0.71776   0.43194   0.00000  Uiso   1.00
C291   C     0.88414   0.82270   0.40695   0.00000  Uiso   1.00
C292   C     0.90823   0.91537   0.40956   0.00000  Uiso   1.00
C293   C     0.89007   0.00289   0.38407   0.00000  Uiso   1.00
C294   C     0.89773   0.63883   0.38486   0.00000  Uiso   1.00
C295   C     0.93324   0.57690   0.36890   0.00000  Uiso   1.00
C296   C     0.92653   0.50962   0.32484   0.00000  Uiso   1.00
C297   C     0.86006   0.68533   0.46983   0.00000  Uiso   1.00
C298   C     0.86389   0.66246   0.52531   0.00000  Uiso   1.00
C299   C     0.82545   0.63428   0.55278   0.00000  Uiso   1.00
H300   H     0.79097   0.70443   0.36095   0.00000  Uiso   1.00
H301   H     0.79362   0.90104   0.33338   0.00000  Uiso   1.00
H302   H     0.81863   0.56261   0.29275   0.00000  Uiso   1.00
H303   H     0.74928   0.64816   0.44913   0.00000  Uiso   1.00
H304   H     0.81453   0.12124   0.31476   0.00000  Uiso   1.00
H305   H     0.86726   0.40763   0.22908   0.00000  Uiso   1.00
H306   H     0.72104   0.58801   0.55884   0.00000  Uiso   1.00
H307   H     0.92954   0.72172   0.45304   0.00000  Uiso   1.00
H308   H     0.93978   0.91928   0.43053   0.00000  Uiso   1.00
H309   H     0.96479   0.58085   0.38989   0.00000  Uiso   1.00
H310   H     0.89545   0.66640   0.54627   0.00000  Uiso   1.00
H311   H     0.93317   0.13605   0.39360   0.00000  Uiso   1.00
H312   H     0.98590   0.42243   0.30792   0.00000  Uiso   1.00
H313   H     0.83967   0.60282   0.63768   0.00000  Uiso   1.00
O314   O     0.87810   0.25829   0.33769   0.00000  Uiso   1.00
O315   O     0.94727   0.32204   0.22529   0.00000  Uiso   1.00
O316   O     0.75543   0.55871   0.65793   0.00000  Uiso   1.00
N317   N     0.84105   0.09762   0.33641   0.00000  Uiso   1.00
N318   N     0.89035   0.43045   0.25630   0.00000  Uiso   1.00
N319   N     0.75364   0.59906   0.56460   0.00000  Uiso   1.00
N320   N     0.90488   0.10559   0.37883   0.00000  Uiso   1.00
N321   N     0.95418   0.43841   0.29873   0.00000  Uiso   1.00
N322   N     0.81748   0.60703   0.60702   0.00000  Uiso   1.00
C323   C     0.32272   0.20840   0.38205   0.00000  Uiso   1.00
C324   C     0.34337   0.31762   0.37985   0.00000  Uiso   1.00
C325   C     0.32517   0.40501   0.35436   0.00000  Uiso   1.00
C326   C     0.34922   0.49779   0.35692   0.00000  Uiso   1.00
C327   C     0.37509   0.66659   0.34936   0.00000  Uiso   1.00
C328   C     0.35696   0.13375   0.35776   0.00000  Uiso   1.00
C329   C     0.35018   0.06654   0.31371   0.00000  Uiso   1.00
C330   C     0.38568   0.00452   0.29769   0.00000  Uiso   1.00
C331   C     0.43264   0.88781   0.25586   0.00000  Uiso   1.00
C332   C     0.31928   0.18024   0.44273   0.00000  Uiso   1.00
C333   C     0.28083   0.15208   0.47011   0.00000  Uiso   1.00
C334   C     0.28460   0.12919   0.52563   0.00000  Uiso   1.00
C335   C     0.27306   0.08466   0.61572   0.00000  Uiso   1.00
C336   C     0.39779   0.21776   0.43194   0.00000  Uiso   1.00
C337   C     0.38414   0.32270   0.40695   0.00000  Uiso   1.00
C338   C     0.40823   0.41537   0.40956   0.00000  Uiso   1.00
C339   C     0.39007   0.50289   0.38407   0.00000  Uiso   1.00
C340   C     0.39773   0.13883   0.38486   0.00000  Uiso   1.00
C341   C     0.43324   0.07690   0.36890   0.00000  Uiso   1.00
C342   C     0.42653   0.00962   0.32484   0.00000  Uiso   1.00
C343   C     0.36006   0.18533   0.46983   0.00000  Uiso   1.00
C344   C     0.36389   0.16246   0.52531   0.00000  Uiso   1.00
C345   C     0.32545   0.13428   0.55278   0.00000  Uiso   1.00
H346   H     0.29097   0.20443   0.36095   0.00000  Uiso   1.00
H347   H     0.29362   0.40104   0.33338   0.00000  Uiso   1.00
H348   H     0.31863   0.06261   0.29275   0.00000  Uiso   1.00
H349   H     0.24928   0.14816   0.44913   0.00000  Uiso   1.00
H350   H     0.31453   0.62124   0.31476   0.00000  Uiso   1.00
H351   H     0.36726   0.90763   0.22908   0.00000  Uiso   1.00
H352   H     0.22104   0.08801   0.55884   0.00000  Uiso   1.00
H353   H     0.42954   0.22172   0.45304   0.00000  Uiso   1.00
H354   H     0.43978   0.41928   0.43053   0.00000  Uiso   1.00
H355   H     0.46479   0.08085   0.38989   0.00000  Uiso   1.00
H356   H     0.39545   0.16640   0.54627   0.00000  Uiso   1.00
H357   H     0.43317   0.63605   0.39360   0.00000  Uiso   1.00
H358   H     0.48590   0.92243   0.30792   0.00000  Uiso   1.00
H359   H     0.33967   0.10282   0.63768   0.00000  Uiso   1.00
O360   O     0.37810   0.75829   0.33769   0.00000  Uiso   1.00
O361   O     0.44727   0.82204   0.22529   0.00000  Uiso   1.00
O362   O     0.25543   0.05871   0.65793   0.00000  Uiso   1.00
N363   N     0.34105   0.59762   0.33641   0.00000  Uiso   1.00
N364   N     0.39035   0.93045   0.25630   0.00000  Uiso   1.00
N365   N     0.25364   0.09906   0.56460   0.00000  Uiso   1.00
N366   N     0.40488   0.60559   0.37883   0.00000  Uiso   1.00
N367   N     0.45418   0.93841   0.29873   0.00000  Uiso   1.00
N368   N     0.31748   0.10703   0.60702   0.00000  Uiso   1.00
C369   C     0.67728   0.70840   0.88205   0.00000  Uiso   1.00
C370   C     0.65663   0.81762   0.87985   0.00000  Uiso   1.00
C371   C     0.67483   0.90501   0.85436   0.00000  Uiso   1.00
C372   C     0.65078   0.99779   0.85692   0.00000  Uiso   1.00
C373   C     0.62491   0.16659   0.84936   0.00000  Uiso   1.00
C374   C     0.64304   0.63375   0.85776   0.00000  Uiso   1.00
C375   C     0.64982   0.56654   0.81371   0.00000  Uiso   1.00
C376   C     0.61432   0.50452   0.79769   0.00000  Uiso   1.00
C377   C     0.56736   0.38781   0.75586   0.00000  Uiso   1.00
C378   C     0.68072   0.68024   0.94273   0.00000  Uiso   1.00
C379   C     0.71917   0.65208   0.97011   0.00000  Uiso   1.00
C380   C     0.71540   0.62919   0.02563   0.00000  Uiso   1.00
C381   C     0.72694   0.58466   0.11572   0.00000  Uiso   1.00
C382   C     0.60221   0.71776   0.93194   0.00000  Uiso   1.00
C383   C     0.61586   0.82270   0.90695   0.00000  Uiso   1.00
C384   C     0.59177   0.91537   0.90956   0.00000  Uiso   1.00
C385   C     0.60993   0.00289   0.88407   0.00000  Uiso   1.00
C386   C     0.60227   0.63883   0.88486   0.00000  Uiso   1.00
C387   C     0.56676   0.57690   0.86890   0.00000  Uiso   1.00
C388   C     0.57347   0.50962   0.82484   0.00000  Uiso   1.00
C389   C     0.63994   0.68533   0.96983   0.00000  Uiso   1.00
C390   C     0.63611   0.66246   0.02531   0.00000  Uiso   1.00
C391   C     0.67455   0.63428   0.05278   0.00000  Uiso   1.00
H392   H     0.70903   0.70443   0.86095   0.00000  Uiso   1.00
H393   H     0.70638   0.90104   0.83338   0.00000  Uiso   1.00
H394   H     0.68137   0.56261   0.79275   0.00000  Uiso   1.00
H395   H     0.75072   0.64816   0.94913   0.00000  Uiso   1.00
H396   H     0.68547   0.12124   0.81476   0.00000  Uiso   1.00
H397   H     0.63274   0.40763   0.72908   0.00000  Uiso   1.00
H398   H     0.77896   0.58801   0.05884   0.00000  Uiso   1.00
H399   H     0.57046   0.72172   0.95304   0.00000  Uiso   1.00
H400   H     0.56022   0.91928   0.93053   0.00000  Uiso   1.00
H401   H     0.53521   0.58085   0.88989   0.00000  Uiso   1.00
H402   H     0.60455   0.66640   0.04627   0.00000  Uiso   1.00
H403   H     0.56683   0.13605   0.89360   0.00000  Uiso   1.00
H404   H     0.51410   0.42243   0.80792   0.00000  Uiso   1.00
H405   H     0.66033   0.60282   0.13768   0.00000  Uiso   1.00
O406   O     0.62190   0.25829   0.83769   0.00000  Uiso   1.00
O407   O     0.55273   0.32204   0.72529   0.00000  Uiso   1.00
O408   O     0.74457   0.55871   0.15793   0.00000  Uiso   1.00
N409   N     0.65895   0.09762   0.83641   0.00000  Uiso   1.00
N410   N     0.60965   0.43045   0.75630   0.00000  Uiso   1.00
N411   N     0.74636   0.59906   0.06460   0.00000  Uiso   1.00
N412   N     0.59512   0.10559   0.87883   0.00000  Uiso   1.00
N413   N     0.54582   0.43841   0.79873   0.00000  Uiso   1.00
N414   N     0.68252   0.60703   0.10702   0.00000  Uiso   1.00
C415   C     0.17728   0.20840   0.88205   0.00000  Uiso   1.00
C416   C     0.15663   0.31762   0.87985   0.00000  Uiso   1.00
C417   C     0.17483   0.40501   0.85436   0.00000  Uiso   1.00
C418   C     0.15078   0.49779   0.85692   0.00000  Uiso   1.00
C419   C     0.12491   0.66659   0.84936   0.00000  Uiso   1.00
C420   C     0.14304   0.13375   0.85776   0.00000  Uiso   1.00
C421   C     0.14982   0.06654   0.81371   0.00000  Uiso   1.00
C422   C     0.11432   0.00452   0.79769   0.00000  Uiso   1.00
C423   C     0.06736   0.88781   0.75586   0.00000  Uiso   1.00
C424   C     0.18072   0.18024   0.94273   0.00000  Uiso   1.00
C425   C     0.21917   0.15208   0.97011   0.00000  Uiso   1.00
C426   C     0.21540   0.12919   0.02563   0.00000  Uiso   1.00
C427   C     0.22694   0.08466   0.11572   0.00000  Uiso   1.00
C428   C     0.10221   0.21776   0.93194   0.00000  Uiso   1.00
C429   C     0.11586   0.32270   0.90695   0.00000  Uiso   1.00
C430   C     0.09177   0.41537   0.90956   0.00000  Uiso   1.00
C431   C     0.10993   0.50289   0.88407   0.00000  Uiso   1.00
C432   C     0.10227   0.13883   0.88486   0.00000  Uiso   1.00
C433   C     0.06676   0.07690   0.86890   0.00000  Uiso   1.00
C434   C     0.07347   0.00962   0.82484   0.00000  Uiso   1.00
C435   C     0.13994   0.18533   0.96983   0.00000  Uiso   1.00
C436   C     0.13611   0.16246   0.02531   0.00000  Uiso   1.00
C437   C     0.17455   0.13428   0.05278   0.00000  Uiso   1.00
H438   H     0.20903   0.20443   0.86095   0.00000  Uiso   1.00
H439   H     0.20638   0.40104   0.83338   0.00000  Uiso   1.00
H440   H     0.18137   0.06261   0.79275   0.00000  Uiso   1.00
H441   H     0.25072   0.14816   0.94913   0.00000  Uiso   1.00
H442   H     0.18547   0.62124   0.81476   0.00000  Uiso   1.00
H443   H     0.13274   0.90763   0.72908   0.00000  Uiso   1.00
H444   H     0.27896   0.08801   0.05884   0.00000  Uiso   1.00
H445   H     0.07046   0.22172   0.95304   0.00000  Uiso   1.00
H446   H     0.06022   0.41928   0.93053   0.00000  Uiso   1.00
H447   H     0.03521   0.08085   0.88989   0.00000  Uiso   1.00
H448   H     0.10455   0.16640   0.04627   0.00000  Uiso   1.00
H449   H     0.06683   0.63605   0.89360   0.00000  Uiso   1.00
H450   H     0.01410   0.92243   0.80792   0.00000  Uiso   1.00
H451   H     0.16033   0.10282   0.13768   0.00000  Uiso   1.00
O452   O     0.12190   0.75829   0.83769   0.00000  Uiso   1.00
O453   O     0.05273   0.82204   0.72529   0.00000  Uiso   1.00
O454   O     0.24457   0.05871   0.15793   0.00000  Uiso   1.00
N455   N     0.15895   0.59762   0.83641   0.00000  Uiso   1.00
N456   N     0.10965   0.93045   0.75630   0.00000  Uiso   1.00
N457   N     0.24636   0.09906   0.06460   0.00000  Uiso   1.00
N458   N     0.09512   0.60559   0.87883   0.00000  Uiso   1.00
N459   N     0.04582   0.93841   0.79873   0.00000  Uiso   1.00
N460   N     0.18252   0.10703   0.10702   0.00000  Uiso   1.00
C461   C     0.82272   0.79160   0.88205   0.00000  Uiso   1.00
C462   C     0.84337   0.68238   0.87985   0.00000  Uiso   1.00
C463   C     0.82517   0.59499   0.85436   0.00000  Uiso   1.00
C464   C     0.84922   0.50221   0.85692   0.00000  Uiso   1.00
C465   C     0.87509   0.33341   0.84936   0.00000  Uiso   1.00
C466   C     0.85696   0.86625   0.85776   0.00000  Uiso   1.00
C467   C     0.85018   0.93346   0.81371   0.00000  Uiso   1.00
C468   C     0.88568   0.99548   0.79769   0.00000  Uiso   1.00
C469   C     0.93264   0.11219   0.75586   0.00000  Uiso   1.00
C470   C     0.81928   0.81976   0.94273   0.00000  Uiso   1.00
C471   C     0.78083   0.84792   0.97011   0.00000  Uiso   1.00
C472   C     0.78460   0.87081   0.02563   0.00000  Uiso   1.00
C473   C     0.77306   0.91534   0.11572   0.00000  Uiso   1.00
C474   C     0.89779   0.78224   0.93194   0.00000  Uiso   1.00
C475   C     0.88414   0.67730   0.90695   0.00000  Uiso   1.00
C476   C     0.90823   0.58463   0.90956   0.00000  Uiso   1.00
C477   C     0.89007   0.49711   0.88407   0.00000  Uiso   1.00
C478   C     0.89773   0.86117   0.88486   0.00000  Uiso   1.00
C479   C     0.93324   0.92310   0.86890   0.00000  Uiso   1.00
C480   C     0.92653   0.99038   0.82484   0.00000  Uiso   1.00
C481   C     0.86006   0.81467   0.96983   0.00000  Uiso   1.00
C482   C     0.86389   0.83754   0.02531   0.00000  Uiso   1.00
C483   C     0.82545   0.86572   0.05278   0.00000  Uiso   1.00
H484   H     0.79097   0.79557   0.86095   0.00000  Uiso   1.00
H485   H     0.79362   0.59896   0.83338   0.00000  Uiso   1.00
H486   H     0.81863   0.93739   0.79275   0.00000  Uiso   1.00
H487   H     0.74928   0.85184   0.94913   0.00000  Uiso   1.00
H488   H     0.81453   0.37876   0.81476   0.00000  Uiso   1.00
H489   H     0.86726   0.09237   0.72908   0.00000  Uiso   1.00
H490   H     0.72104   0.91199   0.05884   0.00000  Uiso   1.00
H491   H     0.92954   0.77828   0.95304   0.00000  Uiso   1.00
H492   H     0.93978   0.58072   0.93053   0.00000  Uiso   1.00
H493   H     0.96479   0.91915   0.88989   0.00000  Uiso   1.00
H494   H     0.89545   0.83360   0.04627   0.00000  Uiso   1.00
H495   H     0.93317   0.36395   0.89360   0.00000  Uiso   1.00
H496   H     0.98590   0.07757   0.80792   0.00000  Uiso   1.00
H497   H     0.83967   0.89718   0.13768   0.00000  Uiso   1.00
O498   O     0.87810   0.24171   0.83769   0.00000  Uiso   1.00
O499   O     0.94727   0.17796   0.72529   0.00000  Uiso   1.00
O500   O     0.75543   0.94129   0.15793   0.00000  Uiso   1.00
N501   N     0.84105   0.40238   0.83641   0.00000  Uiso   1.00
N502   N     0.89035   0.06955   0.75630   0.00000  Uiso   1.00
N503   N     0.75364   0.90094   0.06460   0.00000  Uiso   1.00
N504   N     0.90488   0.39441   0.87883   0.00000  Uiso   1.00
N505   N     0.95418   0.06159   0.79873   0.00000  Uiso   1.00
N506   N     0.81748   0.89297   0.10702   0.00000  Uiso   1.00
C507   C     0.32272   0.29160   0.88205   0.00000  Uiso   1.00
C508   C     0.34337   0.18238   0.87985   0.00000  Uiso   1.00
C509   C     0.32517   0.09499   0.85436   0.00000  Uiso   1.00
C510   C     0.34922   0.00221   0.85692   0.00000  Uiso   1.00
C511   C     0.37509   0.83341   0.84936   0.00000  Uiso   1.00
C512   C     0.35696   0.36625   0.85776   0.00000  Uiso   1.00
C513   C     0.35018   0.43346   0.81371   0.00000  Uiso   1.00
C514   C     0.38568   0.49548   0.79769   0.00000  Uiso   1.00
C515   C     0.43264   0.61219   0.75586   0.00000  Uiso   1.00
C516   C     0.31928   0.31976   0.94273   0.00000  Uiso   1.00
C517   C     0.28083   0.34792   0.97011   0.00000  Uiso   1.00
C518   C     0.28460   0.37081   0.02563   0.00000  Uiso   1.00
C519   C     0.27306   0.41534   0.11572   0.00000  Uiso   1.00
C520   C     0.39779   0.28224   0.93194   0.00000  Uiso   1.00
C521   C     0.38414   0.17730   0.90695   0.00000  Uiso   1.00
C522   C     0.40823   0.08463   0.90956   0.00000  Uiso   1.00
C523   C     0.39007   0.99711   0.88407   0.00000  Uiso   1.00
C524   C     0.39773   0.36117   0.88486   0.00000  Uiso   1.00
C525   C     0.43324   0.42310   0.86890   0.00000  Uiso   1.00
C526   C     0.42653   0.49038   0.82484   0.00000  Uiso   1.00
C527   C     0.36006   0.31467   0.96983   0.00000  Uiso   1.00
C528   C     0.36389   0.33754   0.02531   0.00000  Uiso   1.00
C529   C     0.32545   0.36572   0.05278   0.00000  Uiso   1.00
H530   H     0.29097   0.29557   0.86095   0.00000  Uiso   1.00
H531   H     0.29362   0.09896   0.83338   0.00000  Uiso   1.00
H532   H     0.31863   0.43739   0.79275   0.00000  Uiso   1.00
H533   H     0.24928   0.35184   0.94913   0.00000  Uiso   1.00
H534   H     0.31453   0.87876   0.81476   0.00000  Uiso   1.00
H535   H     0.36726   0.59237   0.72908   0.00000  Uiso   1.00
H536   H     0.22104   0.41199   0.05884   0.00000  Uiso   1.00
H537   H     0.42954   0.27828   0.95304   0.00000  Uiso   1.00
H538   H     0.43978   0.08072   0.93053   0.00000  Uiso   1.00
H539   H     0.46479   0.41915   0.88989   0.00000  Uiso   1.00
H540   H     0.39545   0.33360   0.04627   0.00000  Uiso   1.00
H541   H     0.43317   0.86395   0.89360   0.00000  Uiso   1.00
H542   H     0.48590   0.57757   0.80792   0.00000  Uiso   1.00
H543   H     0.33967   0.39718   0.13768   0.00000  Uiso   1.00
O544   O     0.37810   0.74171   0.83769   0.00000  Uiso   1.00
O545   O     0.44727   0.67796   0.72529   0.00000  Uiso   1.00
O546   O     0.25543   0.44129   0.15793   0.00000  Uiso   1.00
N547   N     0.34105   0.90238   0.83641   0.00000  Uiso   1.00
N548   N     0.39035   0.56955   0.75630   0.00000  Uiso   1.00
N549   N     0.25364   0.40094   0.06460   0.00000  Uiso   1.00
N550   N     0.40488   0.89441   0.87883   0.00000  Uiso   1.00
N551   N     0.45418   0.56159   0.79873   0.00000  Uiso   1.00
N552   N     0.31748   0.39297   0.10702   0.00000  Uiso   1.00
C553   C     0.32272   0.70840   0.11795   0.00000  Uiso   1.00
C554   C     0.34337   0.81762   0.12015   0.00000  Uiso   1.00
C555   C     0.32517   0.90501   0.14564   0.00000  Uiso   1.00
C556   C     0.34922   0.99779   0.14308   0.00000  Uiso   1.00
C557   C     0.37509   0.16659   0.15064   0.00000  Uiso   1.00
C558   C     0.35696   0.63375   0.14224   0.00000  Uiso   1.00
C559   C     0.35018   0.56654   0.18629   0.00000  Uiso   1.00
C560   C     0.38568   0.50452   0.20231   0.00000  Uiso   1.00
C561   C     0.43264   0.38781   0.24414   0.00000  Uiso   1.00
C562   C     0.31928   0.68024   0.05727   0.00000  Uiso   1.00
C563   C     0.28083   0.65208   0.02989   0.00000  Uiso   1.00
C564   C     0.28460   0.62919   0.97437   0.00000  Uiso   1.00
C565   C     0.27306   0.58466   0.88428   0.00000  Uiso   1.00
C566   C     0.39779   0.71776   0.06806   0.00000  Uiso   1.00
C567   C     0.38414   0.82270   0.09305   0.00000  Uiso   1.00
C568   C     0.40823   0.91537   0.09044   0.00000  Uiso   1.00
C569   C     0.39007   0.00289   0.11593   0.00000  Uiso   1.00
C570   C     0.39773   0.63883   0.11514   0.00000  Uiso   1.00
C571   C     0.43324   0.57690   0.13110   0.00000  Uiso   1.00
C572   C     0.42653   0.50962   0.17516   0.00000  Uiso   1.00
C573   C     0.36006   0.68533   0.03017   0.00000  Uiso   1.00
C574   C     0.36389   0.66246   0.97469   0.00000  Uiso   1.00
C575   C     0.32545   0.63428   0.94722   0.00000  Uiso   1.00
H576   H     0.29097   0.70443   0.13905   0.00000  Uiso   1.00
H577   H     0.29362   0.90104   0.16662   0.00000  Uiso   1.00
H578   H     0.31863   0.56261   0.20725   0.00000  Uiso   1.00
H579   H     0.24928   0.64816   0.05087   0.00000  Uiso   1.00
H580   H     0.31453   0.12124   0.18524   0.00000  Uiso   1.00
H581   H     0.36726   0.40763   0.27092   0.00000  Uiso   1.00
H582   H     0.22104   0.58801   0.94116   0.00000  Uiso   1.00
H583   H     0.42954   0.72172   0.04696   0.00000  Uiso   1.00
H584   H     0.43978   0.91928   0.06947   0.00000  Uiso   1.00
H585   H     0.46479   0.58085   0.11011   0.00000  Uiso   1.00
H586   H     0.39545   0.66640   0.95373   0.00000  Uiso   1.00
H587   H     0.43317   0.13605   0.10640   0.00000  Uiso   1.00
H588   H     0.48590   0.42243   0.19208   0.00000  Uiso   1.00
H589   H     0.33967   0.60282   0.86232   0.00000  Uiso   1.00
O590   O     0.37810   0.25829   0.16231   0.00000  Uiso   1.00
O591   O     0.44727   0.32204   0.27471   0.00000  Uiso   1.00
O592   O     0.25543   0.55871   0.84207   0.00000  Uiso   1.00
N593   N     0.34105   0.09762   0.16359   0.00000  Uiso   1.00
N594   N     0.39035   0.43045   0.24370   0.00000  Uiso   1.00
N595   N     0.25364   0.59906   0.93540   0.00000  Uiso   1.00
N596   N     0.40488   0.10559   0.12117   0.00000  Uiso   1.00
N597   N     0.45418   0.43841   0.20127   0.00000  Uiso   1.00
N598   N     0.31748   0.60703   0.89298   0.00000  Uiso   1.00
C599   C     0.82272   0.20840   0.11795   0.00000  Uiso   1.00
C600   C     0.84337   0.31762   0.12015   0.00000  Uiso   1.00
C601   C     0.82517   0.40501   0.14564   0.00000  Uiso   1.00
C602   C     0.84922   0.49779   0.14308   0.00000  Uiso   1.00
C603   C     0.87509   0.66659   0.15064   0.00000  Uiso   1.00
C604   C     0.85696   0.13375   0.14224   0.00000  Uiso   1.00
C605   C     0.85018   0.06654   0.18629   0.00000  Uiso   1.00
C606   C     0.88568   0.00452   0.20231   0.00000  Uiso   1.00
C607   C     0.93264   0.88781   0.24414   0.00000  Uiso   1.00
C608   C     0.81928   0.18024   0.05727   0.00000  Uiso   1.00
C609   C     0.78083   0.15208   0.02989   0.00000  Uiso   1.00
C610   C     0.78460   0.12919   0.97437   0.00000  Uiso   1.00
C611   C     0.77306   0.08466   0.88428   0.00000  Uiso   1.00
C612   C     0.89779   0.21776   0.06806   0.00000  Uiso   1.00
C613   C     0.88414   0.32270   0.09305   0.00000  Uiso   1.00
C614   C     0.90823   0.41537   0.09044   0.00000  Uiso   1.00
C615   C     0.89007   0.50289   0.11593   0.00000  Uiso   1.00
C616   C     0.89773   0.13883   0.11514   0.00000  Uiso   1.00
C617   C     0.93324   0.07690   0.13110   0.00000  Uiso   1.00
C618   C     0.92653   0.00962   0.17516   0.00000  Uiso   1.00
C619   C     0.86006   0.18533   0.03017   0.00000  Uiso   1.00
C620   C     0.86389   0.16246   0.97469   0.00000  Uiso   1.00
C621   C     0.82545   0.13428   0.94722   0.00000  Uiso   1.00
H622   H     0.79097   0.20443   0.13905   0.00000  Uiso   1.00
H623   H     0.79362   0.40104   0.16662   0.00000  Uiso   1.00
H624   H     0.81863   0.06261   0.20725   0.00000  Uiso   1.00
H625   H     0.74928   0.14816   0.05087   0.00000  Uiso   1.00
H626   H     0.81453   0.62124   0.18524   0.00000  Uiso   1.00
H627   H     0.86726   0.90763   0.27092   0.00000  Uiso   1.00
H628   H     0.72104   0.08801   0.94116   0.00000  Uiso   1.00
H629   H     0.92954   0.22172   0.04696   0.00000  Uiso   1.00
H630   H     0.93978   0.41928   0.06947   0.00000  Uiso   1.00
H631   H     0.96479   0.08085   0.11011   0.00000  Uiso   1.00
H632   H     0.89545   0.16640   0.95373   0.00000  Uiso   1.00
H633   H     0.93317   0.63605   0.10640   0.00000  Uiso   1.00
H634   H     0.98590   0.92243   0.19208   0.00000  Uiso   1.00
H635   H     0.83967   0.10282   0.86232   0.00000  Uiso   1.00
O636   O     0.87810   0.75829   0.16231   0.00000  Uiso   1.00
O637   O     0.94727   0.82204   0.27471   0.00000  Uiso   1.00
O638   O     0.75543   0.05871   0.84207   0.00000  Uiso   1.00
N639   N     0.84105   0.59762   0.16359   0.00000  Uiso   1.00
N640   N     0.89035   0.93045   0.24370   0.00000  Uiso   1.00
N641   N     0.75364   0.09906   0.93540   0.00000  Uiso   1.00
N642   N     0.90488   0.60559   0.12117   0.00000  Uiso   1.00
N643   N     0.95418   0.93841   0.20127   0.00000  Uiso   1.00
N644   N     0.81748   0.10703   0.89298   0.00000  Uiso   1.00
C645   C     0.17728   0.79160   0.11795   0.00000  Uiso   1.00
C646   C     0.15663   0.68238   0.12015   0.00000  Uiso   1.00
C647   C     0.17483   0.59499   0.14564   0.00000  Uiso   1.00
C648   C     0.15078   0.50221   0.14308   0.00000  Uiso   1.00
C649   C     0.12491   0.33341   0.15064   0.00000  Uiso   1.00
C650   C     0.14304   0.86625   0.14224   0.00000  Uiso   1.00
C651   C     0.14982   0.93346   0.18629   0.00000  Uiso   1.00
C652   C     0.11432   0.99548   0.20231   0.00000  Uiso   1.00
C653   C     0.06736   0.11219   0.24414   0.00000  Uiso   1.00
C654   C     0.18072   0.81976   0.05727   0.00000  Uiso   1.00
C655   C     0.21917   0.84792   0.02989   0.00000  Uiso   1.00
C656   C     0.21540   0.87081   0.97437   0.00000  Uiso   1.00
C657   C     0.22694   0.91534   0.88428   0.00000  Uiso   1.00
C658   C     0.10221   0.78224   0.06806   0.00000  Uiso   1.00
C659   C     0.11586   0.67730   0.09305   0.00000  Uiso   1.00
C660   C     0.09177   0.58463   0.09044   0.00000  Uiso   1.00
C661   C     0.10993   0.49711   0.11593   0.00000  Uiso   1.00
C662   C     0.10227   0.86117   0.11514   0.00000  Uiso   1.00
C663   C     0.06676   0.92310   0.13110   0.00000  Uiso   1.00
C664   C     0.07347   0.99038   0.17516   0.00000  Uiso   1.00
C665   C     0.13994   0.81467   0.03017   0.00000  Uiso   1.00
C666   C     0.13611   0.83754   0.97469   0.00000  Uiso   1.00
C667   C     0.17455   0.86572   0.94722   0.00000  Uiso   1.00
H668   H     0.20903   0.79557   0.13905   0.00000  Uiso   1.00
H669   H     0.20638   0.59896   0.16662   0.00000  Uiso   1.00
H670   H     0.18137   0.93739   0.20725   0.00000  Uiso   1.00
H671   H     0.25072   0.85184   0.05087   0.00000  Uiso   1.00
H672   H     0.18547   0.37876   0.18524   0.00000  Uiso   1.00
H673   H     0.13274   0.09237   0.27092   0.00000  Uiso   1.00
H674   H     0.27896   0.91199   0.94116   0.00000  Uiso   1.00
H675   H     0.07046   0.77828   0.04696   0.00000  Uiso   1.00
H676   H     0.06022   0.58072   0.06947   0.00000  Uiso   1.00
H677   H     0.03521   0.91915   0.11011   0.00000  Uiso   1.00
H678   H     0.10455   0.83360   0.95373   0.00000  Uiso   1.00
H679   H     0.06683   0.36395   0.10640   0.00000  Uiso   1.00
H680   H     0.01410   0.07757   0.19208   0.00000  Uiso   1.00
H681   H     0.16033   0.89718   0.86232   0.00000  Uiso   1.00
O682   O     0.12190   0.24171   0.16231   0.00000  Uiso   1.00
O683   O     0.05273   0.17796   0.27471   0.00000  Uiso   1.00
O684   O     0.24457   0.94129   0.84207   0.00000  Uiso   1.00
N685   N     0.15895   0.40238   0.16359   0.00000  Uiso   1.00
N686   N     0.10965   0.06955   0.24370   0.00000  Uiso   1.00
N687   N     0.24636   0.90094   0.93540   0.00000  Uiso   1.00
N688   N     0.09512   0.39441   0.12117   0.00000  Uiso   1.00
N689   N     0.04582   0.06159   0.20127   0.00000  Uiso   1.00
N690   N     0.18252   0.89297   0.89298   0.00000  Uiso   1.00
C691   C     0.67728   0.29160   0.11795   0.00000  Uiso   1.00
C692   C     0.65663   0.18238   0.12015   0.00000  Uiso   1.00
C693   C     0.67483   0.09499   0.14564   0.00000  Uiso   1.00
C694   C     0.65078   0.00221   0.14308   0.00000  Uiso   1.00
C695   C     0.62491   0.83341   0.15064   0.00000  Uiso   1.00
C696   C     0.64304   0.36625   0.14224   0.00000  Uiso   1.00
C697   C     0.64982   0.43346   0.18629   0.00000  Uiso   1.00
C698   C     0.61432   0.49548   0.20231   0.00000  Uiso   1.00
C699   C     0.56736   0.61219   0.24414   0.00000  Uiso   1.00
C700   C     0.68072   0.31976   0.05727   0.00000  Uiso   1.00
C701   C     0.71917   0.34792   0.02989   0.00000  Uiso   1.00
C702   C     0.71540   0.37081   0.97437   0.00000  Uiso   1.00
C703   C     0.72694   0.41534   0.88428   0.00000  Uiso   1.00
C704   C     0.60221   0.28224   0.06806   0.00000  Uiso   1.00
C705   C     0.61586   0.17730   0.09305   0.00000  Uiso   1.00
C706   C     0.59177   0.08463   0.09044   0.00000  Uiso   1.00
C707   C     0.60993   0.99711   0.11593   0.00000  Uiso   1.00
C708   C     0.60227   0.36117   0.11514   0.00000  Uiso   1.00
C709   C     0.56676   0.42310   0.13110   0.00000  Uiso   1.00
C710   C     0.57347   0.49038   0.17516   0.00000  Uiso   1.00
C711   C     0.63994   0.31467   0.03017   0.00000  Uiso   1.00
C712   C     0.63611   0.33754   0.97469   0.00000  Uiso   1.00
C713   C     0.67455   0.36572   0.94722   0.00000  Uiso   1.00
H714   H     0.70903   0.29557   0.13905   0.00000  Uiso   1.00
H715   H     0.70638   0.09896   0.16662   0.00000  Uiso   1.00
H716   H     0.68137   0.43739   0.20725   0.00000  Uiso   1.00
H717   H     0.75072   0.35184   0.05087   0.00000  Uiso   1.00
H718   H     0.68547   0.87876   0.18524   0.00000  Uiso   1.00
H719   H     0.63274   0.59237   0.27092   0.00000  Uiso   1.00
H720   H     0.77896   0.41199   0.94116   0.00000  Uiso   1.00
H721   H     0.57046   0.27828   0.04696   0.00000  Uiso   1.00
H722   H     0.56022   0.08072   0.06947   0.00000  Uiso   1.00
H723   H     0.53521   0.41915   0.11011   0.00000  Uiso   1.00
H724   H     0.60455   0.33360   0.95373   0.00000  Uiso   1.00
H725   H     0.56683   0.86395   0.10640   0.00000  Uiso   1.00
H726   H     0.51410   0.57757   0.19208   0.00000  Uiso   1.00
H727   H     0.66033   0.39718   0.86232   0.00000  Uiso   1.00
O728   O     0.62190   0.74171   0.16231   0.00000  Uiso   1.00
O729   O     0.55273   0.67796   0.27471   0.00000  Uiso   1.00
O730   O     0.74457   0.44129   0.84207   0.00000  Uiso   1.00
N731   N     0.65895   0.90238   0.16359   0.00000  Uiso   1.00
N732   N     0.60965   0.56955   0.24370   0.00000  Uiso   1.00
N733   N     0.74636   0.40094   0.93540   0.00000  Uiso   1.00
N734   N     0.59512   0.89441   0.12117   0.00000  Uiso   1.00
N735   N     0.54582   0.56159   0.20127   0.00000  Uiso   1.00
N736   N     0.68252   0.39297   0.89298   0.00000  Uiso   1.00
