data_job_03368
_audit_creation_date              2018-12-19
_audit_creation_method            'Materials Studio'
_symmetry_space_group_name_H-M    'P1'
_symmetry_Int_Tables_number       1
_symmetry_cell_setting            triclinic
loop_
_symmetry_equiv_pos_as_xyz
  x,y,z
_cell_length_a                    27.5048
_cell_length_b                    27.5048
_cell_length_c                    24.5798
_cell_angle_alpha                 90.0000
_cell_angle_beta                  90.0000
_cell_angle_gamma                 90.0000
loop_
_atom_site_label
_atom_site_type_symbol
_atom_site_fract_x
_atom_site_fract_y
_atom_site_fract_z
_atom_site_U_iso_or_equiv
_atom_site_adp_type
_atom_site_occupancy
C1     C     0.85441   0.78407   0.31623   0.00000  Uiso   1.00
C2     C     0.82472   0.81810   0.35222   0.00000  Uiso   1.00
C3     C     0.81193   0.86559   0.33961   0.00000  Uiso   1.00
C4     C     0.78467   0.89071   0.37795   0.00000  Uiso   1.00
C5     C     0.74072   0.94686   0.42636   0.00000  Uiso   1.00
C6     C     0.89772   0.76795   0.35050   0.00000  Uiso   1.00
C7     C     0.94630   0.77327   0.33645   0.00000  Uiso   1.00
C8     C     0.98049   0.75617   0.37334   0.00000  Uiso   1.00
C9     C     0.04987   0.73443   0.41907   0.00000  Uiso   1.00
C10    C     0.82319   0.73885   0.30799   0.00000  Uiso   1.00
C11    C     0.80911   0.71968   0.25819   0.00000  Uiso   1.00
C12    C     0.78056   0.67806   0.25930   0.00000  Uiso   1.00
C13    C     0.73422   0.61112   0.23903   0.00000  Uiso   1.00
C14    C     0.82874   0.74423   0.40673   0.00000  Uiso   1.00
C15    C     0.81079   0.79647   0.40138   0.00000  Uiso   1.00
C16    C     0.78354   0.82152   0.43974   0.00000  Uiso   1.00
C17    C     0.77070   0.86904   0.42719   0.00000  Uiso   1.00
C18    C     0.88378   0.74632   0.39966   0.00000  Uiso   1.00
C19    C     0.91791   0.72920   0.43658   0.00000  Uiso   1.00
C20    C     0.96652   0.73450   0.42259   0.00000  Uiso   1.00
C21    C     0.80925   0.71721   0.35715   0.00000  Uiso   1.00
C22    C     0.78072   0.67561   0.35833   0.00000  Uiso   1.00
C23    C     0.76660   0.65638   0.30854   0.00000  Uiso   1.00
H24    H     0.86526   0.80091   0.27796   0.00000  Uiso   1.00
H25    H     0.82273   0.88232   0.30156   0.00000  Uiso   1.00
H26    H     0.95708   0.79001   0.29840   0.00000  Uiso   1.00
H27    H     0.81991   0.73643   0.22016   0.00000  Uiso   1.00
H28    H     0.76944   0.96305   0.34942   0.00000  Uiso   1.00
H29    H     0.05272   0.76840   0.34274   0.00000  Uiso   1.00
H30    H     0.76348   0.65540   0.17776   0.00000  Uiso   1.00
H31    H     0.81789   0.72739   0.44501   0.00000  Uiso   1.00
H32    H     0.77275   0.80477   0.47778   0.00000  Uiso   1.00
H33    H     0.90710   0.71246   0.47462   0.00000  Uiso   1.00
H34    H     0.76993   0.65888   0.39638   0.00000  Uiso   1.00
H35    H     0.72888   0.90010   0.49245   0.00000  Uiso   1.00
H36    H     0.01216   0.70545   0.48577   0.00000  Uiso   1.00
H37    H     0.72292   0.59246   0.32079   0.00000  Uiso   1.00
O38    O     0.72034   0.98381   0.43949   0.00000  Uiso   1.00
O39    O     0.09199   0.72842   0.43072   0.00000  Uiso   1.00
O40    O     0.71251   0.58018   0.21427   0.00000  Uiso   1.00
N41    N     0.76608   0.93761   0.37858   0.00000  Uiso   1.00
N42    N     0.03093   0.75563   0.37234   0.00000  Uiso   1.00
N43    N     0.76052   0.64998   0.21809   0.00000  Uiso   1.00
N44    N     0.74426   0.90374   0.45554   0.00000  Uiso   1.00
N45    N     0.00911   0.72176   0.44930   0.00000  Uiso   1.00
N46    N     0.73870   0.61611   0.29506   0.00000  Uiso   1.00
C47    C     0.35441   0.28407   0.81623   0.00000  Uiso   1.00
C48    C     0.32472   0.31810   0.85222   0.00000  Uiso   1.00
C49    C     0.31193   0.36559   0.83961   0.00000  Uiso   1.00
C50    C     0.28467   0.39071   0.87795   0.00000  Uiso   1.00
C51    C     0.24072   0.44686   0.92636   0.00000  Uiso   1.00
C52    C     0.39772   0.26795   0.85050   0.00000  Uiso   1.00
C53    C     0.44630   0.27327   0.83645   0.00000  Uiso   1.00
C54    C     0.48049   0.25617   0.87334   0.00000  Uiso   1.00
C55    C     0.54987   0.23443   0.91907   0.00000  Uiso   1.00
C56    C     0.32319   0.23885   0.80799   0.00000  Uiso   1.00
C57    C     0.30911   0.21968   0.75819   0.00000  Uiso   1.00
C58    C     0.28056   0.17806   0.75930   0.00000  Uiso   1.00
C59    C     0.23422   0.11112   0.73903   0.00000  Uiso   1.00
C60    C     0.32874   0.24423   0.90673   0.00000  Uiso   1.00
C61    C     0.31079   0.29647   0.90138   0.00000  Uiso   1.00
C62    C     0.28354   0.32152   0.93974   0.00000  Uiso   1.00
C63    C     0.27070   0.36904   0.92719   0.00000  Uiso   1.00
C64    C     0.38378   0.24632   0.89966   0.00000  Uiso   1.00
C65    C     0.41791   0.22920   0.93658   0.00000  Uiso   1.00
C66    C     0.46652   0.23450   0.92259   0.00000  Uiso   1.00
C67    C     0.30925   0.21721   0.85715   0.00000  Uiso   1.00
C68    C     0.28072   0.17561   0.85833   0.00000  Uiso   1.00
C69    C     0.26660   0.15638   0.80854   0.00000  Uiso   1.00
H70    H     0.36526   0.30091   0.77796   0.00000  Uiso   1.00
H71    H     0.32273   0.38232   0.80156   0.00000  Uiso   1.00
H72    H     0.45708   0.29001   0.79840   0.00000  Uiso   1.00
H73    H     0.31991   0.23643   0.72016   0.00000  Uiso   1.00
H74    H     0.26944   0.46305   0.84942   0.00000  Uiso   1.00
H75    H     0.55272   0.26840   0.84274   0.00000  Uiso   1.00
H76    H     0.26348   0.15540   0.67776   0.00000  Uiso   1.00
H77    H     0.31789   0.22739   0.94501   0.00000  Uiso   1.00
H78    H     0.27275   0.30477   0.97778   0.00000  Uiso   1.00
H79    H     0.40710   0.21246   0.97462   0.00000  Uiso   1.00
H80    H     0.26993   0.15888   0.89638   0.00000  Uiso   1.00
H81    H     0.22888   0.40010   0.99245   0.00000  Uiso   1.00
H82    H     0.51216   0.20545   0.98577   0.00000  Uiso   1.00
H83    H     0.22292   0.09246   0.82079   0.00000  Uiso   1.00
O84    O     0.22034   0.48381   0.93949   0.00000  Uiso   1.00
O85    O     0.59199   0.22842   0.93072   0.00000  Uiso   1.00
O86    O     0.21251   0.08018   0.71427   0.00000  Uiso   1.00
N87    N     0.26608   0.43761   0.87858   0.00000  Uiso   1.00
N88    N     0.53093   0.25563   0.87234   0.00000  Uiso   1.00
N89    N     0.26052   0.14998   0.71809   0.00000  Uiso   1.00
N90    N     0.24426   0.40374   0.95554   0.00000  Uiso   1.00
N91    N     0.50911   0.22176   0.94930   0.00000  Uiso   1.00
N92    N     0.23870   0.11611   0.79506   0.00000  Uiso   1.00
C93    C     0.64559   0.71593   0.81623   0.00000  Uiso   1.00
C94    C     0.67528   0.68190   0.85222   0.00000  Uiso   1.00
C95    C     0.68807   0.63441   0.83961   0.00000  Uiso   1.00
C96    C     0.71533   0.60929   0.87795   0.00000  Uiso   1.00
C97    C     0.75928   0.55314   0.92636   0.00000  Uiso   1.00
C98    C     0.60228   0.73205   0.85050   0.00000  Uiso   1.00
C99    C     0.55370   0.72673   0.83645   0.00000  Uiso   1.00
C100   C     0.51951   0.74383   0.87334   0.00000  Uiso   1.00
C101   C     0.45013   0.76557   0.91907   0.00000  Uiso   1.00
C102   C     0.67681   0.76115   0.80799   0.00000  Uiso   1.00
C103   C     0.69089   0.78032   0.75819   0.00000  Uiso   1.00
C104   C     0.71944   0.82194   0.75930   0.00000  Uiso   1.00
C105   C     0.76578   0.88888   0.73903   0.00000  Uiso   1.00
C106   C     0.67126   0.75577   0.90673   0.00000  Uiso   1.00
C107   C     0.68921   0.70353   0.90138   0.00000  Uiso   1.00
C108   C     0.71646   0.67848   0.93974   0.00000  Uiso   1.00
C109   C     0.72930   0.63096   0.92719   0.00000  Uiso   1.00
C110   C     0.61622   0.75368   0.89966   0.00000  Uiso   1.00
C111   C     0.58209   0.77080   0.93658   0.00000  Uiso   1.00
C112   C     0.53348   0.76550   0.92259   0.00000  Uiso   1.00
C113   C     0.69075   0.78279   0.85715   0.00000  Uiso   1.00
C114   C     0.71928   0.82439   0.85833   0.00000  Uiso   1.00
C115   C     0.73340   0.84362   0.80854   0.00000  Uiso   1.00
H116   H     0.63474   0.69909   0.77796   0.00000  Uiso   1.00
H117   H     0.67727   0.61768   0.80156   0.00000  Uiso   1.00
H118   H     0.54292   0.70999   0.79840   0.00000  Uiso   1.00
H119   H     0.68009   0.76357   0.72016   0.00000  Uiso   1.00
H120   H     0.73056   0.53695   0.84942   0.00000  Uiso   1.00
H121   H     0.44728   0.73160   0.84274   0.00000  Uiso   1.00
H122   H     0.73652   0.84460   0.67776   0.00000  Uiso   1.00
H123   H     0.68211   0.77261   0.94501   0.00000  Uiso   1.00
H124   H     0.72725   0.69523   0.97778   0.00000  Uiso   1.00
H125   H     0.59290   0.78754   0.97462   0.00000  Uiso   1.00
H126   H     0.73007   0.84112   0.89638   0.00000  Uiso   1.00
H127   H     0.77112   0.59990   0.99245   0.00000  Uiso   1.00
H128   H     0.48784   0.79455   0.98577   0.00000  Uiso   1.00
H129   H     0.77708   0.90754   0.82079   0.00000  Uiso   1.00
O130   O     0.77966   0.51619   0.93949   0.00000  Uiso   1.00
O131   O     0.40801   0.77158   0.93072   0.00000  Uiso   1.00
O132   O     0.78749   0.91982   0.71427   0.00000  Uiso   1.00
N133   N     0.73392   0.56239   0.87858   0.00000  Uiso   1.00
N134   N     0.46907   0.74437   0.87234   0.00000  Uiso   1.00
N135   N     0.73948   0.85002   0.71809   0.00000  Uiso   1.00
N136   N     0.75574   0.59626   0.95554   0.00000  Uiso   1.00
N137   N     0.49089   0.77824   0.94930   0.00000  Uiso   1.00
N138   N     0.76130   0.88389   0.79506   0.00000  Uiso   1.00
C139   C     0.14559   0.21593   0.31623   0.00000  Uiso   1.00
C140   C     0.17528   0.18190   0.35222   0.00000  Uiso   1.00
C141   C     0.18807   0.13441   0.33961   0.00000  Uiso   1.00
C142   C     0.21533   0.10929   0.37795   0.00000  Uiso   1.00
C143   C     0.25928   0.05314   0.42636   0.00000  Uiso   1.00
C144   C     0.10228   0.23205   0.35050   0.00000  Uiso   1.00
C145   C     0.05370   0.22673   0.33645   0.00000  Uiso   1.00
C146   C     0.01951   0.24383   0.37334   0.00000  Uiso   1.00
C147   C     0.95013   0.26557   0.41907   0.00000  Uiso   1.00
C148   C     0.17681   0.26115   0.30799   0.00000  Uiso   1.00
C149   C     0.19089   0.28032   0.25819   0.00000  Uiso   1.00
C150   C     0.21944   0.32194   0.25930   0.00000  Uiso   1.00
C151   C     0.26578   0.38888   0.23903   0.00000  Uiso   1.00
C152   C     0.17126   0.25577   0.40673   0.00000  Uiso   1.00
C153   C     0.18921   0.20353   0.40138   0.00000  Uiso   1.00
C154   C     0.21646   0.17848   0.43974   0.00000  Uiso   1.00
C155   C     0.22930   0.13096   0.42719   0.00000  Uiso   1.00
C156   C     0.11622   0.25368   0.39966   0.00000  Uiso   1.00
C157   C     0.08209   0.27080   0.43658   0.00000  Uiso   1.00
C158   C     0.03348   0.26550   0.42259   0.00000  Uiso   1.00
C159   C     0.19075   0.28279   0.35715   0.00000  Uiso   1.00
C160   C     0.21928   0.32439   0.35833   0.00000  Uiso   1.00
C161   C     0.23340   0.34362   0.30854   0.00000  Uiso   1.00
H162   H     0.13474   0.19909   0.27796   0.00000  Uiso   1.00
H163   H     0.17727   0.11768   0.30156   0.00000  Uiso   1.00
H164   H     0.04292   0.20999   0.29840   0.00000  Uiso   1.00
H165   H     0.18009   0.26357   0.22016   0.00000  Uiso   1.00
H166   H     0.23056   0.03695   0.34942   0.00000  Uiso   1.00
H167   H     0.94728   0.23160   0.34274   0.00000  Uiso   1.00
H168   H     0.23652   0.34460   0.17776   0.00000  Uiso   1.00
H169   H     0.18211   0.27261   0.44501   0.00000  Uiso   1.00
H170   H     0.22725   0.19523   0.47778   0.00000  Uiso   1.00
H171   H     0.09290   0.28754   0.47462   0.00000  Uiso   1.00
H172   H     0.23007   0.34112   0.39638   0.00000  Uiso   1.00
H173   H     0.27112   0.09990   0.49245   0.00000  Uiso   1.00
H174   H     0.98784   0.29455   0.48577   0.00000  Uiso   1.00
H175   H     0.27708   0.40754   0.32079   0.00000  Uiso   1.00
O176   O     0.27966   0.01619   0.43949   0.00000  Uiso   1.00
O177   O     0.90801   0.27158   0.43072   0.00000  Uiso   1.00
O178   O     0.28749   0.41982   0.21427   0.00000  Uiso   1.00
N179   N     0.23392   0.06239   0.37858   0.00000  Uiso   1.00
N180   N     0.96907   0.24437   0.37234   0.00000  Uiso   1.00
N181   N     0.23948   0.35002   0.21809   0.00000  Uiso   1.00
N182   N     0.25574   0.09626   0.45554   0.00000  Uiso   1.00
N183   N     0.99089   0.27824   0.44930   0.00000  Uiso   1.00
N184   N     0.26130   0.38389   0.29506   0.00000  Uiso   1.00
C185   C     0.21593   0.35441   0.56623   0.00000  Uiso   1.00
C186   C     0.18190   0.32472   0.60222   0.00000  Uiso   1.00
C187   C     0.13441   0.31193   0.58961   0.00000  Uiso   1.00
C188   C     0.10929   0.28467   0.62795   0.00000  Uiso   1.00
C189   C     0.05314   0.24072   0.67636   0.00000  Uiso   1.00
C190   C     0.23205   0.39772   0.60050   0.00000  Uiso   1.00
C191   C     0.22673   0.44630   0.58645   0.00000  Uiso   1.00
C192   C     0.24383   0.48049   0.62334   0.00000  Uiso   1.00
C193   C     0.26557   0.54987   0.66907   0.00000  Uiso   1.00
C194   C     0.26115   0.32319   0.55799   0.00000  Uiso   1.00
C195   C     0.28032   0.30911   0.50819   0.00000  Uiso   1.00
C196   C     0.32194   0.28056   0.50930   0.00000  Uiso   1.00
C197   C     0.38888   0.23422   0.48903   0.00000  Uiso   1.00
C198   C     0.25577   0.32874   0.65673   0.00000  Uiso   1.00
C199   C     0.20353   0.31079   0.65138   0.00000  Uiso   1.00
C200   C     0.17848   0.28354   0.68974   0.00000  Uiso   1.00
C201   C     0.13096   0.27070   0.67719   0.00000  Uiso   1.00
C202   C     0.25368   0.38378   0.64966   0.00000  Uiso   1.00
C203   C     0.27080   0.41791   0.68658   0.00000  Uiso   1.00
C204   C     0.26550   0.46652   0.67259   0.00000  Uiso   1.00
C205   C     0.28279   0.30925   0.60715   0.00000  Uiso   1.00
C206   C     0.32439   0.28072   0.60833   0.00000  Uiso   1.00
C207   C     0.34362   0.26660   0.55854   0.00000  Uiso   1.00
H208   H     0.19909   0.36526   0.52796   0.00000  Uiso   1.00
H209   H     0.11768   0.32273   0.55156   0.00000  Uiso   1.00
H210   H     0.20999   0.45708   0.54840   0.00000  Uiso   1.00
H211   H     0.26357   0.31991   0.47016   0.00000  Uiso   1.00
H212   H     0.03695   0.26944   0.59942   0.00000  Uiso   1.00
H213   H     0.23160   0.55272   0.59274   0.00000  Uiso   1.00
H214   H     0.34460   0.26348   0.42776   0.00000  Uiso   1.00
H215   H     0.27261   0.31789   0.69501   0.00000  Uiso   1.00
H216   H     0.19523   0.27275   0.72778   0.00000  Uiso   1.00
H217   H     0.28754   0.40710   0.72462   0.00000  Uiso   1.00
H218   H     0.34112   0.26993   0.64638   0.00000  Uiso   1.00
H219   H     0.09990   0.22888   0.74245   0.00000  Uiso   1.00
H220   H     0.29455   0.51216   0.73577   0.00000  Uiso   1.00
H221   H     0.40754   0.22292   0.57079   0.00000  Uiso   1.00
O222   O     0.01619   0.22034   0.68949   0.00000  Uiso   1.00
O223   O     0.27158   0.59199   0.68072   0.00000  Uiso   1.00
O224   O     0.41982   0.21251   0.46427   0.00000  Uiso   1.00
N225   N     0.06239   0.26608   0.62858   0.00000  Uiso   1.00
N226   N     0.24437   0.53093   0.62234   0.00000  Uiso   1.00
N227   N     0.35002   0.26052   0.46809   0.00000  Uiso   1.00
N228   N     0.09626   0.24426   0.70554   0.00000  Uiso   1.00
N229   N     0.27824   0.50911   0.69930   0.00000  Uiso   1.00
N230   N     0.38389   0.23870   0.54506   0.00000  Uiso   1.00
C231   C     0.71593   0.85441   0.06623   0.00000  Uiso   1.00
C232   C     0.68190   0.82472   0.10222   0.00000  Uiso   1.00
C233   C     0.63441   0.81193   0.08961   0.00000  Uiso   1.00
C234   C     0.60929   0.78467   0.12795   0.00000  Uiso   1.00
C235   C     0.55314   0.74072   0.17636   0.00000  Uiso   1.00
C236   C     0.73205   0.89772   0.10050   0.00000  Uiso   1.00
C237   C     0.72673   0.94630   0.08645   0.00000  Uiso   1.00
C238   C     0.74383   0.98049   0.12334   0.00000  Uiso   1.00
C239   C     0.76557   0.04987   0.16907   0.00000  Uiso   1.00
C240   C     0.76115   0.82319   0.05799   0.00000  Uiso   1.00
C241   C     0.78032   0.80911   0.00819   0.00000  Uiso   1.00
C242   C     0.82194   0.78056   0.00930   0.00000  Uiso   1.00
C243   C     0.88888   0.73422   0.98903   0.00000  Uiso   1.00
C244   C     0.75577   0.82874   0.15673   0.00000  Uiso   1.00
C245   C     0.70353   0.81079   0.15138   0.00000  Uiso   1.00
C246   C     0.67848   0.78354   0.18974   0.00000  Uiso   1.00
C247   C     0.63096   0.77070   0.17719   0.00000  Uiso   1.00
C248   C     0.75368   0.88378   0.14966   0.00000  Uiso   1.00
C249   C     0.77080   0.91791   0.18658   0.00000  Uiso   1.00
C250   C     0.76550   0.96652   0.17259   0.00000  Uiso   1.00
C251   C     0.78279   0.80925   0.10715   0.00000  Uiso   1.00
C252   C     0.82439   0.78072   0.10833   0.00000  Uiso   1.00
C253   C     0.84362   0.76660   0.05854   0.00000  Uiso   1.00
H254   H     0.69909   0.86526   0.02796   0.00000  Uiso   1.00
H255   H     0.61768   0.82273   0.05156   0.00000  Uiso   1.00
H256   H     0.70999   0.95708   0.04840   0.00000  Uiso   1.00
H257   H     0.76357   0.81991   0.97016   0.00000  Uiso   1.00
H258   H     0.53695   0.76944   0.09942   0.00000  Uiso   1.00
H259   H     0.73160   0.05272   0.09274   0.00000  Uiso   1.00
H260   H     0.84460   0.76348   0.92776   0.00000  Uiso   1.00
H261   H     0.77261   0.81789   0.19501   0.00000  Uiso   1.00
H262   H     0.69523   0.77275   0.22778   0.00000  Uiso   1.00
H263   H     0.78754   0.90710   0.22462   0.00000  Uiso   1.00
H264   H     0.84112   0.76993   0.14638   0.00000  Uiso   1.00
H265   H     0.59990   0.72888   0.24245   0.00000  Uiso   1.00
H266   H     0.79455   0.01216   0.23577   0.00000  Uiso   1.00
H267   H     0.90754   0.72292   0.07079   0.00000  Uiso   1.00
O268   O     0.51619   0.72034   0.18949   0.00000  Uiso   1.00
O269   O     0.77158   0.09199   0.18072   0.00000  Uiso   1.00
O270   O     0.91982   0.71251   0.96427   0.00000  Uiso   1.00
N271   N     0.56239   0.76608   0.12858   0.00000  Uiso   1.00
N272   N     0.74437   0.03093   0.12234   0.00000  Uiso   1.00
N273   N     0.85002   0.76052   0.96809   0.00000  Uiso   1.00
N274   N     0.59626   0.74426   0.20554   0.00000  Uiso   1.00
N275   N     0.77824   0.00911   0.19930   0.00000  Uiso   1.00
N276   N     0.88389   0.73870   0.04506   0.00000  Uiso   1.00
C277   C     0.28407   0.14559   0.06623   0.00000  Uiso   1.00
C278   C     0.31810   0.17528   0.10222   0.00000  Uiso   1.00
C279   C     0.36559   0.18807   0.08961   0.00000  Uiso   1.00
C280   C     0.39071   0.21533   0.12795   0.00000  Uiso   1.00
C281   C     0.44686   0.25928   0.17636   0.00000  Uiso   1.00
C282   C     0.26795   0.10228   0.10050   0.00000  Uiso   1.00
C283   C     0.27327   0.05370   0.08645   0.00000  Uiso   1.00
C284   C     0.25617   0.01951   0.12334   0.00000  Uiso   1.00
C285   C     0.23443   0.95013   0.16907   0.00000  Uiso   1.00
C286   C     0.23885   0.17681   0.05799   0.00000  Uiso   1.00
C287   C     0.21968   0.19089   0.00819   0.00000  Uiso   1.00
C288   C     0.17806   0.21944   0.00930   0.00000  Uiso   1.00
C289   C     0.11112   0.26578   0.98903   0.00000  Uiso   1.00
C290   C     0.24423   0.17126   0.15673   0.00000  Uiso   1.00
C291   C     0.29647   0.18921   0.15138   0.00000  Uiso   1.00
C292   C     0.32152   0.21646   0.18974   0.00000  Uiso   1.00
C293   C     0.36904   0.22930   0.17719   0.00000  Uiso   1.00
C294   C     0.24632   0.11622   0.14966   0.00000  Uiso   1.00
C295   C     0.22920   0.08209   0.18658   0.00000  Uiso   1.00
C296   C     0.23450   0.03348   0.17259   0.00000  Uiso   1.00
C297   C     0.21721   0.19075   0.10715   0.00000  Uiso   1.00
C298   C     0.17561   0.21928   0.10833   0.00000  Uiso   1.00
C299   C     0.15638   0.23340   0.05854   0.00000  Uiso   1.00
H300   H     0.30091   0.13474   0.02796   0.00000  Uiso   1.00
H301   H     0.38232   0.17727   0.05156   0.00000  Uiso   1.00
H302   H     0.29001   0.04292   0.04840   0.00000  Uiso   1.00
H303   H     0.23643   0.18009   0.97016   0.00000  Uiso   1.00
H304   H     0.46305   0.23056   0.09942   0.00000  Uiso   1.00
H305   H     0.26840   0.94728   0.09274   0.00000  Uiso   1.00
H306   H     0.15540   0.23652   0.92776   0.00000  Uiso   1.00
H307   H     0.22739   0.18211   0.19501   0.00000  Uiso   1.00
H308   H     0.30477   0.22725   0.22778   0.00000  Uiso   1.00
H309   H     0.21246   0.09290   0.22462   0.00000  Uiso   1.00
H310   H     0.15888   0.23007   0.14638   0.00000  Uiso   1.00
H311   H     0.40010   0.27112   0.24245   0.00000  Uiso   1.00
H312   H     0.20545   0.98784   0.23577   0.00000  Uiso   1.00
H313   H     0.09246   0.27708   0.07079   0.00000  Uiso   1.00
O314   O     0.48381   0.27966   0.18949   0.00000  Uiso   1.00
O315   O     0.22842   0.90801   0.18072   0.00000  Uiso   1.00
O316   O     0.08018   0.28749   0.96427   0.00000  Uiso   1.00
N317   N     0.43761   0.23392   0.12858   0.00000  Uiso   1.00
N318   N     0.25563   0.96907   0.12234   0.00000  Uiso   1.00
N319   N     0.14998   0.23948   0.96809   0.00000  Uiso   1.00
N320   N     0.40374   0.25574   0.20554   0.00000  Uiso   1.00
N321   N     0.22176   0.99089   0.19930   0.00000  Uiso   1.00
N322   N     0.11611   0.26130   0.04506   0.00000  Uiso   1.00
C323   C     0.78407   0.64559   0.56623   0.00000  Uiso   1.00
C324   C     0.81810   0.67528   0.60222   0.00000  Uiso   1.00
C325   C     0.86559   0.68807   0.58961   0.00000  Uiso   1.00
C326   C     0.89071   0.71533   0.62795   0.00000  Uiso   1.00
C327   C     0.94686   0.75928   0.67636   0.00000  Uiso   1.00
C328   C     0.76795   0.60228   0.60050   0.00000  Uiso   1.00
C329   C     0.77327   0.55370   0.58645   0.00000  Uiso   1.00
C330   C     0.75617   0.51951   0.62334   0.00000  Uiso   1.00
C331   C     0.73443   0.45013   0.66907   0.00000  Uiso   1.00
C332   C     0.73885   0.67681   0.55799   0.00000  Uiso   1.00
C333   C     0.71968   0.69089   0.50819   0.00000  Uiso   1.00
C334   C     0.67806   0.71944   0.50930   0.00000  Uiso   1.00
C335   C     0.61112   0.76578   0.48903   0.00000  Uiso   1.00
C336   C     0.74423   0.67126   0.65673   0.00000  Uiso   1.00
C337   C     0.79647   0.68921   0.65138   0.00000  Uiso   1.00
C338   C     0.82152   0.71646   0.68974   0.00000  Uiso   1.00
C339   C     0.86904   0.72930   0.67719   0.00000  Uiso   1.00
C340   C     0.74632   0.61622   0.64966   0.00000  Uiso   1.00
C341   C     0.72920   0.58209   0.68658   0.00000  Uiso   1.00
C342   C     0.73450   0.53348   0.67259   0.00000  Uiso   1.00
C343   C     0.71721   0.69075   0.60715   0.00000  Uiso   1.00
C344   C     0.67561   0.71928   0.60833   0.00000  Uiso   1.00
C345   C     0.65638   0.73340   0.55854   0.00000  Uiso   1.00
H346   H     0.80091   0.63474   0.52796   0.00000  Uiso   1.00
H347   H     0.88232   0.67727   0.55156   0.00000  Uiso   1.00
H348   H     0.79001   0.54292   0.54840   0.00000  Uiso   1.00
H349   H     0.73643   0.68009   0.47016   0.00000  Uiso   1.00
H350   H     0.96305   0.73056   0.59942   0.00000  Uiso   1.00
H351   H     0.76840   0.44728   0.59274   0.00000  Uiso   1.00
H352   H     0.65540   0.73652   0.42776   0.00000  Uiso   1.00
H353   H     0.72739   0.68211   0.69501   0.00000  Uiso   1.00
H354   H     0.80477   0.72725   0.72778   0.00000  Uiso   1.00
H355   H     0.71246   0.59290   0.72462   0.00000  Uiso   1.00
H356   H     0.65888   0.73007   0.64638   0.00000  Uiso   1.00
H357   H     0.90010   0.77112   0.74245   0.00000  Uiso   1.00
H358   H     0.70545   0.48784   0.73577   0.00000  Uiso   1.00
H359   H     0.59246   0.77708   0.57079   0.00000  Uiso   1.00
O360   O     0.98381   0.77966   0.68949   0.00000  Uiso   1.00
O361   O     0.72842   0.40801   0.68072   0.00000  Uiso   1.00
O362   O     0.58018   0.78749   0.46427   0.00000  Uiso   1.00
N363   N     0.93761   0.73392   0.62858   0.00000  Uiso   1.00
N364   N     0.75563   0.46907   0.62234   0.00000  Uiso   1.00
N365   N     0.64998   0.73948   0.46809   0.00000  Uiso   1.00
N366   N     0.90374   0.75574   0.70554   0.00000  Uiso   1.00
N367   N     0.72176   0.49089   0.69930   0.00000  Uiso   1.00
N368   N     0.61611   0.76130   0.54506   0.00000  Uiso   1.00
C369   C     0.14559   0.71593   0.93377   0.00000  Uiso   1.00
C370   C     0.17528   0.68190   0.89778   0.00000  Uiso   1.00
C371   C     0.18807   0.63441   0.91039   0.00000  Uiso   1.00
C372   C     0.21533   0.60929   0.87205   0.00000  Uiso   1.00
C373   C     0.25928   0.55314   0.82364   0.00000  Uiso   1.00
C374   C     0.10228   0.73205   0.89950   0.00000  Uiso   1.00
C375   C     0.05370   0.72673   0.91355   0.00000  Uiso   1.00
C376   C     0.01951   0.74383   0.87666   0.00000  Uiso   1.00
C377   C     0.95013   0.76557   0.83093   0.00000  Uiso   1.00
C378   C     0.17681   0.76115   0.94201   0.00000  Uiso   1.00
C379   C     0.19089   0.78032   0.99181   0.00000  Uiso   1.00
C380   C     0.21944   0.82194   0.99070   0.00000  Uiso   1.00
C381   C     0.26578   0.88888   0.01097   0.00000  Uiso   1.00
C382   C     0.17126   0.75577   0.84327   0.00000  Uiso   1.00
C383   C     0.18921   0.70353   0.84862   0.00000  Uiso   1.00
C384   C     0.21646   0.67848   0.81026   0.00000  Uiso   1.00
C385   C     0.22930   0.63096   0.82281   0.00000  Uiso   1.00
C386   C     0.11622   0.75368   0.85034   0.00000  Uiso   1.00
C387   C     0.08209   0.77080   0.81342   0.00000  Uiso   1.00
C388   C     0.03348   0.76550   0.82741   0.00000  Uiso   1.00
C389   C     0.19075   0.78279   0.89285   0.00000  Uiso   1.00
C390   C     0.21928   0.82439   0.89167   0.00000  Uiso   1.00
C391   C     0.23340   0.84362   0.94146   0.00000  Uiso   1.00
H392   H     0.13474   0.69909   0.97204   0.00000  Uiso   1.00
H393   H     0.17727   0.61768   0.94844   0.00000  Uiso   1.00
H394   H     0.04292   0.70999   0.95160   0.00000  Uiso   1.00
H395   H     0.18009   0.76357   0.02984   0.00000  Uiso   1.00
H396   H     0.23056   0.53695   0.90058   0.00000  Uiso   1.00
H397   H     0.94728   0.73160   0.90726   0.00000  Uiso   1.00
H398   H     0.23652   0.84460   0.07224   0.00000  Uiso   1.00
H399   H     0.18211   0.77261   0.80499   0.00000  Uiso   1.00
H400   H     0.22725   0.69523   0.77222   0.00000  Uiso   1.00
H401   H     0.09290   0.78754   0.77538   0.00000  Uiso   1.00
H402   H     0.23007   0.84112   0.85362   0.00000  Uiso   1.00
H403   H     0.27112   0.59990   0.75755   0.00000  Uiso   1.00
H404   H     0.98784   0.79455   0.76423   0.00000  Uiso   1.00
H405   H     0.27708   0.90754   0.92921   0.00000  Uiso   1.00
O406   O     0.27966   0.51619   0.81051   0.00000  Uiso   1.00
O407   O     0.90801   0.77158   0.81928   0.00000  Uiso   1.00
O408   O     0.28749   0.91982   0.03573   0.00000  Uiso   1.00
N409   N     0.23392   0.56239   0.87142   0.00000  Uiso   1.00
N410   N     0.96907   0.74437   0.87766   0.00000  Uiso   1.00
N411   N     0.23948   0.85002   0.03191   0.00000  Uiso   1.00
N412   N     0.25574   0.59626   0.79446   0.00000  Uiso   1.00
N413   N     0.99089   0.77824   0.80070   0.00000  Uiso   1.00
N414   N     0.26130   0.88389   0.95494   0.00000  Uiso   1.00
C415   C     0.64559   0.21593   0.43377   0.00000  Uiso   1.00
C416   C     0.67528   0.18190   0.39778   0.00000  Uiso   1.00
C417   C     0.68807   0.13441   0.41039   0.00000  Uiso   1.00
C418   C     0.71533   0.10929   0.37205   0.00000  Uiso   1.00
C419   C     0.75928   0.05314   0.32364   0.00000  Uiso   1.00
C420   C     0.60228   0.23205   0.39950   0.00000  Uiso   1.00
C421   C     0.55370   0.22673   0.41355   0.00000  Uiso   1.00
C422   C     0.51951   0.24383   0.37666   0.00000  Uiso   1.00
C423   C     0.45013   0.26557   0.33093   0.00000  Uiso   1.00
C424   C     0.67681   0.26115   0.44201   0.00000  Uiso   1.00
C425   C     0.69089   0.28032   0.49181   0.00000  Uiso   1.00
C426   C     0.71944   0.32194   0.49070   0.00000  Uiso   1.00
C427   C     0.76578   0.38888   0.51097   0.00000  Uiso   1.00
C428   C     0.67126   0.25577   0.34327   0.00000  Uiso   1.00
C429   C     0.68921   0.20353   0.34862   0.00000  Uiso   1.00
C430   C     0.71646   0.17848   0.31026   0.00000  Uiso   1.00
C431   C     0.72930   0.13096   0.32281   0.00000  Uiso   1.00
C432   C     0.61622   0.25368   0.35034   0.00000  Uiso   1.00
C433   C     0.58209   0.27080   0.31342   0.00000  Uiso   1.00
C434   C     0.53348   0.26550   0.32741   0.00000  Uiso   1.00
C435   C     0.69075   0.28279   0.39285   0.00000  Uiso   1.00
C436   C     0.71928   0.32439   0.39167   0.00000  Uiso   1.00
C437   C     0.73340   0.34362   0.44146   0.00000  Uiso   1.00
H438   H     0.63474   0.19909   0.47204   0.00000  Uiso   1.00
H439   H     0.67727   0.11768   0.44844   0.00000  Uiso   1.00
H440   H     0.54292   0.20999   0.45160   0.00000  Uiso   1.00
H441   H     0.68009   0.26357   0.52984   0.00000  Uiso   1.00
H442   H     0.73056   0.03695   0.40058   0.00000  Uiso   1.00
H443   H     0.44728   0.23160   0.40726   0.00000  Uiso   1.00
H444   H     0.73652   0.34460   0.57224   0.00000  Uiso   1.00
H445   H     0.68211   0.27261   0.30499   0.00000  Uiso   1.00
H446   H     0.72725   0.19523   0.27222   0.00000  Uiso   1.00
H447   H     0.59290   0.28754   0.27538   0.00000  Uiso   1.00
H448   H     0.73007   0.34112   0.35362   0.00000  Uiso   1.00
H449   H     0.77112   0.09990   0.25755   0.00000  Uiso   1.00
H450   H     0.48784   0.29455   0.26423   0.00000  Uiso   1.00
H451   H     0.77708   0.40754   0.42921   0.00000  Uiso   1.00
O452   O     0.77966   0.01619   0.31051   0.00000  Uiso   1.00
O453   O     0.40801   0.27158   0.31928   0.00000  Uiso   1.00
O454   O     0.78749   0.41982   0.53573   0.00000  Uiso   1.00
N455   N     0.73392   0.06239   0.37142   0.00000  Uiso   1.00
N456   N     0.46907   0.24437   0.37766   0.00000  Uiso   1.00
N457   N     0.73948   0.35002   0.53191   0.00000  Uiso   1.00
N458   N     0.75574   0.09626   0.29446   0.00000  Uiso   1.00
N459   N     0.49089   0.27824   0.30070   0.00000  Uiso   1.00
N460   N     0.76130   0.38389   0.45494   0.00000  Uiso   1.00
C461   C     0.35441   0.78407   0.43377   0.00000  Uiso   1.00
C462   C     0.32472   0.81810   0.39778   0.00000  Uiso   1.00
C463   C     0.31193   0.86559   0.41039   0.00000  Uiso   1.00
C464   C     0.28467   0.89071   0.37205   0.00000  Uiso   1.00
C465   C     0.24072   0.94686   0.32364   0.00000  Uiso   1.00
C466   C     0.39772   0.76795   0.39950   0.00000  Uiso   1.00
C467   C     0.44630   0.77327   0.41355   0.00000  Uiso   1.00
C468   C     0.48049   0.75617   0.37666   0.00000  Uiso   1.00
C469   C     0.54987   0.73443   0.33093   0.00000  Uiso   1.00
C470   C     0.32319   0.73885   0.44201   0.00000  Uiso   1.00
C471   C     0.30911   0.71968   0.49181   0.00000  Uiso   1.00
C472   C     0.28056   0.67806   0.49070   0.00000  Uiso   1.00
C473   C     0.23422   0.61112   0.51097   0.00000  Uiso   1.00
C474   C     0.32874   0.74423   0.34327   0.00000  Uiso   1.00
C475   C     0.31079   0.79647   0.34862   0.00000  Uiso   1.00
C476   C     0.28354   0.82152   0.31026   0.00000  Uiso   1.00
C477   C     0.27070   0.86904   0.32281   0.00000  Uiso   1.00
C478   C     0.38378   0.74632   0.35034   0.00000  Uiso   1.00
C479   C     0.41791   0.72920   0.31342   0.00000  Uiso   1.00
C480   C     0.46652   0.73450   0.32741   0.00000  Uiso   1.00
C481   C     0.30925   0.71721   0.39285   0.00000  Uiso   1.00
C482   C     0.28072   0.67561   0.39167   0.00000  Uiso   1.00
C483   C     0.26660   0.65638   0.44146   0.00000  Uiso   1.00
H484   H     0.36526   0.80091   0.47204   0.00000  Uiso   1.00
H485   H     0.32273   0.88232   0.44844   0.00000  Uiso   1.00
H486   H     0.45708   0.79001   0.45160   0.00000  Uiso   1.00
H487   H     0.31991   0.73643   0.52984   0.00000  Uiso   1.00
H488   H     0.26944   0.96305   0.40058   0.00000  Uiso   1.00
H489   H     0.55272   0.76840   0.40726   0.00000  Uiso   1.00
H490   H     0.26348   0.65540   0.57224   0.00000  Uiso   1.00
H491   H     0.31789   0.72739   0.30499   0.00000  Uiso   1.00
H492   H     0.27275   0.80477   0.27222   0.00000  Uiso   1.00
H493   H     0.40710   0.71246   0.27538   0.00000  Uiso   1.00
H494   H     0.26993   0.65888   0.35362   0.00000  Uiso   1.00
H495   H     0.22888   0.90010   0.25755   0.00000  Uiso   1.00
H496   H     0.51216   0.70545   0.26423   0.00000  Uiso   1.00
H497   H     0.22292   0.59246   0.42921   0.00000  Uiso   1.00
O498   O     0.22034   0.98381   0.31051   0.00000  Uiso   1.00
O499   O     0.59199   0.72842   0.31928   0.00000  Uiso   1.00
O500   O     0.21251   0.58018   0.53573   0.00000  Uiso   1.00
N501   N     0.26608   0.93761   0.37142   0.00000  Uiso   1.00
N502   N     0.53093   0.75563   0.37766   0.00000  Uiso   1.00
N503   N     0.26052   0.64998   0.53191   0.00000  Uiso   1.00
N504   N     0.24426   0.90374   0.29446   0.00000  Uiso   1.00
N505   N     0.50911   0.72176   0.30070   0.00000  Uiso   1.00
N506   N     0.23870   0.61611   0.45494   0.00000  Uiso   1.00
C507   C     0.85441   0.28407   0.93377   0.00000  Uiso   1.00
C508   C     0.82472   0.31810   0.89778   0.00000  Uiso   1.00
C509   C     0.81193   0.36559   0.91039   0.00000  Uiso   1.00
C510   C     0.78467   0.39071   0.87205   0.00000  Uiso   1.00
C511   C     0.74072   0.44686   0.82364   0.00000  Uiso   1.00
C512   C     0.89772   0.26795   0.89950   0.00000  Uiso   1.00
C513   C     0.94630   0.27327   0.91355   0.00000  Uiso   1.00
C514   C     0.98049   0.25617   0.87666   0.00000  Uiso   1.00
C515   C     0.04987   0.23443   0.83093   0.00000  Uiso   1.00
C516   C     0.82319   0.23885   0.94201   0.00000  Uiso   1.00
C517   C     0.80911   0.21968   0.99181   0.00000  Uiso   1.00
C518   C     0.78056   0.17806   0.99070   0.00000  Uiso   1.00
C519   C     0.73422   0.11112   0.01097   0.00000  Uiso   1.00
C520   C     0.82874   0.24423   0.84327   0.00000  Uiso   1.00
C521   C     0.81079   0.29647   0.84862   0.00000  Uiso   1.00
C522   C     0.78354   0.32152   0.81026   0.00000  Uiso   1.00
C523   C     0.77070   0.36904   0.82281   0.00000  Uiso   1.00
C524   C     0.88378   0.24632   0.85034   0.00000  Uiso   1.00
C525   C     0.91791   0.22920   0.81342   0.00000  Uiso   1.00
C526   C     0.96652   0.23450   0.82741   0.00000  Uiso   1.00
C527   C     0.80925   0.21721   0.89285   0.00000  Uiso   1.00
C528   C     0.78072   0.17561   0.89167   0.00000  Uiso   1.00
C529   C     0.76660   0.15638   0.94146   0.00000  Uiso   1.00
H530   H     0.86526   0.30091   0.97204   0.00000  Uiso   1.00
H531   H     0.82273   0.38232   0.94844   0.00000  Uiso   1.00
H532   H     0.95708   0.29001   0.95160   0.00000  Uiso   1.00
H533   H     0.81991   0.23643   0.02984   0.00000  Uiso   1.00
H534   H     0.76944   0.46305   0.90058   0.00000  Uiso   1.00
H535   H     0.05272   0.26840   0.90726   0.00000  Uiso   1.00
H536   H     0.76348   0.15540   0.07224   0.00000  Uiso   1.00
H537   H     0.81789   0.22739   0.80499   0.00000  Uiso   1.00
H538   H     0.77275   0.30477   0.77222   0.00000  Uiso   1.00
H539   H     0.90710   0.21246   0.77538   0.00000  Uiso   1.00
H540   H     0.76993   0.15888   0.85362   0.00000  Uiso   1.00
H541   H     0.72888   0.40010   0.75755   0.00000  Uiso   1.00
H542   H     0.01216   0.20545   0.76423   0.00000  Uiso   1.00
H543   H     0.72292   0.09246   0.92921   0.00000  Uiso   1.00
O544   O     0.72034   0.48381   0.81051   0.00000  Uiso   1.00
O545   O     0.09199   0.22842   0.81928   0.00000  Uiso   1.00
O546   O     0.71251   0.08018   0.03573   0.00000  Uiso   1.00
N547   N     0.76608   0.43761   0.87142   0.00000  Uiso   1.00
N548   N     0.03093   0.25563   0.87766   0.00000  Uiso   1.00
N549   N     0.76052   0.14998   0.03191   0.00000  Uiso   1.00
N550   N     0.74426   0.40374   0.79446   0.00000  Uiso   1.00
N551   N     0.00911   0.22176   0.80070   0.00000  Uiso   1.00
N552   N     0.73870   0.11611   0.95494   0.00000  Uiso   1.00
C553   C     0.78407   0.14559   0.68377   0.00000  Uiso   1.00
C554   C     0.81810   0.17528   0.64778   0.00000  Uiso   1.00
C555   C     0.86559   0.18807   0.66039   0.00000  Uiso   1.00
C556   C     0.89071   0.21533   0.62205   0.00000  Uiso   1.00
C557   C     0.94686   0.25928   0.57364   0.00000  Uiso   1.00
C558   C     0.76795   0.10228   0.64950   0.00000  Uiso   1.00
C559   C     0.77327   0.05370   0.66355   0.00000  Uiso   1.00
C560   C     0.75617   0.01951   0.62666   0.00000  Uiso   1.00
C561   C     0.73443   0.95013   0.58093   0.00000  Uiso   1.00
C562   C     0.73885   0.17681   0.69201   0.00000  Uiso   1.00
C563   C     0.71968   0.19089   0.74181   0.00000  Uiso   1.00
C564   C     0.67806   0.21944   0.74070   0.00000  Uiso   1.00
C565   C     0.61112   0.26578   0.76097   0.00000  Uiso   1.00
C566   C     0.74423   0.17126   0.59327   0.00000  Uiso   1.00
C567   C     0.79647   0.18921   0.59862   0.00000  Uiso   1.00
C568   C     0.82152   0.21646   0.56026   0.00000  Uiso   1.00
C569   C     0.86904   0.22930   0.57281   0.00000  Uiso   1.00
C570   C     0.74632   0.11622   0.60034   0.00000  Uiso   1.00
C571   C     0.72920   0.08209   0.56342   0.00000  Uiso   1.00
C572   C     0.73450   0.03348   0.57741   0.00000  Uiso   1.00
C573   C     0.71721   0.19075   0.64285   0.00000  Uiso   1.00
C574   C     0.67561   0.21928   0.64167   0.00000  Uiso   1.00
C575   C     0.65638   0.23340   0.69146   0.00000  Uiso   1.00
H576   H     0.80091   0.13474   0.72204   0.00000  Uiso   1.00
H577   H     0.88232   0.17727   0.69844   0.00000  Uiso   1.00
H578   H     0.79001   0.04292   0.70160   0.00000  Uiso   1.00
H579   H     0.73643   0.18009   0.77984   0.00000  Uiso   1.00
H580   H     0.96305   0.23056   0.65058   0.00000  Uiso   1.00
H581   H     0.76840   0.94728   0.65726   0.00000  Uiso   1.00
H582   H     0.65540   0.23652   0.82224   0.00000  Uiso   1.00
H583   H     0.72739   0.18211   0.55499   0.00000  Uiso   1.00
H584   H     0.80477   0.22725   0.52222   0.00000  Uiso   1.00
H585   H     0.71246   0.09290   0.52538   0.00000  Uiso   1.00
H586   H     0.65888   0.23007   0.60362   0.00000  Uiso   1.00
H587   H     0.90010   0.27112   0.50755   0.00000  Uiso   1.00
H588   H     0.70545   0.98784   0.51423   0.00000  Uiso   1.00
H589   H     0.59246   0.27708   0.67921   0.00000  Uiso   1.00
O590   O     0.98381   0.27966   0.56051   0.00000  Uiso   1.00
O591   O     0.72842   0.90801   0.56928   0.00000  Uiso   1.00
O592   O     0.58018   0.28749   0.78573   0.00000  Uiso   1.00
N593   N     0.93761   0.23392   0.62142   0.00000  Uiso   1.00
N594   N     0.75563   0.96907   0.62766   0.00000  Uiso   1.00
N595   N     0.64998   0.23948   0.78191   0.00000  Uiso   1.00
N596   N     0.90374   0.25574   0.54446   0.00000  Uiso   1.00
N597   N     0.72176   0.99089   0.55070   0.00000  Uiso   1.00
N598   N     0.61611   0.26130   0.70494   0.00000  Uiso   1.00
C599   C     0.28407   0.64559   0.18377   0.00000  Uiso   1.00
C600   C     0.31810   0.67528   0.14778   0.00000  Uiso   1.00
C601   C     0.36559   0.68807   0.16039   0.00000  Uiso   1.00
C602   C     0.39071   0.71533   0.12205   0.00000  Uiso   1.00
C603   C     0.44686   0.75928   0.07364   0.00000  Uiso   1.00
C604   C     0.26795   0.60228   0.14950   0.00000  Uiso   1.00
C605   C     0.27327   0.55370   0.16355   0.00000  Uiso   1.00
C606   C     0.25617   0.51951   0.12666   0.00000  Uiso   1.00
C607   C     0.23443   0.45013   0.08093   0.00000  Uiso   1.00
C608   C     0.23885   0.67681   0.19201   0.00000  Uiso   1.00
C609   C     0.21968   0.69089   0.24181   0.00000  Uiso   1.00
C610   C     0.17806   0.71944   0.24070   0.00000  Uiso   1.00
C611   C     0.11112   0.76578   0.26097   0.00000  Uiso   1.00
C612   C     0.24423   0.67126   0.09327   0.00000  Uiso   1.00
C613   C     0.29647   0.68921   0.09862   0.00000  Uiso   1.00
C614   C     0.32152   0.71646   0.06026   0.00000  Uiso   1.00
C615   C     0.36904   0.72930   0.07281   0.00000  Uiso   1.00
C616   C     0.24632   0.61622   0.10034   0.00000  Uiso   1.00
C617   C     0.22920   0.58209   0.06342   0.00000  Uiso   1.00
C618   C     0.23450   0.53348   0.07741   0.00000  Uiso   1.00
C619   C     0.21721   0.69075   0.14285   0.00000  Uiso   1.00
C620   C     0.17561   0.71928   0.14167   0.00000  Uiso   1.00
C621   C     0.15638   0.73340   0.19146   0.00000  Uiso   1.00
H622   H     0.30091   0.63474   0.22204   0.00000  Uiso   1.00
H623   H     0.38232   0.67727   0.19844   0.00000  Uiso   1.00
H624   H     0.29001   0.54292   0.20160   0.00000  Uiso   1.00
H625   H     0.23643   0.68009   0.27984   0.00000  Uiso   1.00
H626   H     0.46305   0.73056   0.15058   0.00000  Uiso   1.00
H627   H     0.26840   0.44728   0.15726   0.00000  Uiso   1.00
H628   H     0.15540   0.73652   0.32224   0.00000  Uiso   1.00
H629   H     0.22739   0.68211   0.05499   0.00000  Uiso   1.00
H630   H     0.30477   0.72725   0.02222   0.00000  Uiso   1.00
H631   H     0.21246   0.59290   0.02538   0.00000  Uiso   1.00
H632   H     0.15888   0.73007   0.10362   0.00000  Uiso   1.00
H633   H     0.40010   0.77112   0.00755   0.00000  Uiso   1.00
H634   H     0.20545   0.48784   0.01423   0.00000  Uiso   1.00
H635   H     0.09246   0.77708   0.17921   0.00000  Uiso   1.00
O636   O     0.48381   0.77966   0.06051   0.00000  Uiso   1.00
O637   O     0.22842   0.40801   0.06928   0.00000  Uiso   1.00
O638   O     0.08018   0.78749   0.28573   0.00000  Uiso   1.00
N639   N     0.43761   0.73392   0.12142   0.00000  Uiso   1.00
N640   N     0.25563   0.46907   0.12766   0.00000  Uiso   1.00
N641   N     0.14998   0.73948   0.28191   0.00000  Uiso   1.00
N642   N     0.40374   0.75574   0.04446   0.00000  Uiso   1.00
N643   N     0.22176   0.49089   0.05070   0.00000  Uiso   1.00
N644   N     0.11611   0.76130   0.20494   0.00000  Uiso   1.00
C645   C     0.71593   0.35441   0.18377   0.00000  Uiso   1.00
C646   C     0.68190   0.32472   0.14778   0.00000  Uiso   1.00
C647   C     0.63441   0.31193   0.16039   0.00000  Uiso   1.00
C648   C     0.60929   0.28467   0.12205   0.00000  Uiso   1.00
C649   C     0.55314   0.24072   0.07364   0.00000  Uiso   1.00
C650   C     0.73205   0.39772   0.14950   0.00000  Uiso   1.00
C651   C     0.72673   0.44630   0.16355   0.00000  Uiso   1.00
C652   C     0.74383   0.48049   0.12666   0.00000  Uiso   1.00
C653   C     0.76557   0.54987   0.08093   0.00000  Uiso   1.00
C654   C     0.76115   0.32319   0.19201   0.00000  Uiso   1.00
C655   C     0.78032   0.30911   0.24181   0.00000  Uiso   1.00
C656   C     0.82194   0.28056   0.24070   0.00000  Uiso   1.00
C657   C     0.88888   0.23422   0.26097   0.00000  Uiso   1.00
C658   C     0.75577   0.32874   0.09327   0.00000  Uiso   1.00
C659   C     0.70353   0.31079   0.09862   0.00000  Uiso   1.00
C660   C     0.67848   0.28354   0.06026   0.00000  Uiso   1.00
C661   C     0.63096   0.27070   0.07281   0.00000  Uiso   1.00
C662   C     0.75368   0.38378   0.10034   0.00000  Uiso   1.00
C663   C     0.77080   0.41791   0.06342   0.00000  Uiso   1.00
C664   C     0.76550   0.46652   0.07741   0.00000  Uiso   1.00
C665   C     0.78279   0.30925   0.14285   0.00000  Uiso   1.00
C666   C     0.82439   0.28072   0.14167   0.00000  Uiso   1.00
C667   C     0.84362   0.26660   0.19146   0.00000  Uiso   1.00
H668   H     0.69909   0.36526   0.22204   0.00000  Uiso   1.00
H669   H     0.61768   0.32273   0.19844   0.00000  Uiso   1.00
H670   H     0.70999   0.45708   0.20160   0.00000  Uiso   1.00
H671   H     0.76357   0.31991   0.27984   0.00000  Uiso   1.00
H672   H     0.53695   0.26944   0.15058   0.00000  Uiso   1.00
H673   H     0.73160   0.55272   0.15726   0.00000  Uiso   1.00
H674   H     0.84460   0.26348   0.32224   0.00000  Uiso   1.00
H675   H     0.77261   0.31789   0.05499   0.00000  Uiso   1.00
H676   H     0.69523   0.27275   0.02222   0.00000  Uiso   1.00
H677   H     0.78754   0.40710   0.02538   0.00000  Uiso   1.00
H678   H     0.84112   0.26993   0.10362   0.00000  Uiso   1.00
H679   H     0.59990   0.22888   0.00755   0.00000  Uiso   1.00
H680   H     0.79455   0.51216   0.01423   0.00000  Uiso   1.00
H681   H     0.90754   0.22292   0.17921   0.00000  Uiso   1.00
O682   O     0.51619   0.22034   0.06051   0.00000  Uiso   1.00
O683   O     0.77158   0.59199   0.06928   0.00000  Uiso   1.00
O684   O     0.91982   0.21251   0.28573   0.00000  Uiso   1.00
N685   N     0.56239   0.26608   0.12142   0.00000  Uiso   1.00
N686   N     0.74437   0.53093   0.12766   0.00000  Uiso   1.00
N687   N     0.85002   0.26052   0.28191   0.00000  Uiso   1.00
N688   N     0.59626   0.24426   0.04446   0.00000  Uiso   1.00
N689   N     0.77824   0.50911   0.05070   0.00000  Uiso   1.00
N690   N     0.88389   0.23870   0.20494   0.00000  Uiso   1.00
C691   C     0.21593   0.85441   0.68377   0.00000  Uiso   1.00
C692   C     0.18190   0.82472   0.64778   0.00000  Uiso   1.00
C693   C     0.13441   0.81193   0.66039   0.00000  Uiso   1.00
C694   C     0.10929   0.78467   0.62205   0.00000  Uiso   1.00
C695   C     0.05314   0.74072   0.57364   0.00000  Uiso   1.00
C696   C     0.23205   0.89772   0.64950   0.00000  Uiso   1.00
C697   C     0.22673   0.94630   0.66355   0.00000  Uiso   1.00
C698   C     0.24383   0.98049   0.62666   0.00000  Uiso   1.00
C699   C     0.26557   0.04987   0.58093   0.00000  Uiso   1.00
C700   C     0.26115   0.82319   0.69201   0.00000  Uiso   1.00
C701   C     0.28032   0.80911   0.74181   0.00000  Uiso   1.00
C702   C     0.32194   0.78056   0.74070   0.00000  Uiso   1.00
C703   C     0.38888   0.73422   0.76097   0.00000  Uiso   1.00
C704   C     0.25577   0.82874   0.59327   0.00000  Uiso   1.00
C705   C     0.20353   0.81079   0.59862   0.00000  Uiso   1.00
C706   C     0.17848   0.78354   0.56026   0.00000  Uiso   1.00
C707   C     0.13096   0.77070   0.57281   0.00000  Uiso   1.00
C708   C     0.25368   0.88378   0.60034   0.00000  Uiso   1.00
C709   C     0.27080   0.91791   0.56342   0.00000  Uiso   1.00
C710   C     0.26550   0.96652   0.57741   0.00000  Uiso   1.00
C711   C     0.28279   0.80925   0.64285   0.00000  Uiso   1.00
C712   C     0.32439   0.78072   0.64167   0.00000  Uiso   1.00
C713   C     0.34362   0.76660   0.69146   0.00000  Uiso   1.00
H714   H     0.19909   0.86526   0.72204   0.00000  Uiso   1.00
H715   H     0.11768   0.82273   0.69844   0.00000  Uiso   1.00
H716   H     0.20999   0.95708   0.70160   0.00000  Uiso   1.00
H717   H     0.26357   0.81991   0.77984   0.00000  Uiso   1.00
H718   H     0.03695   0.76944   0.65058   0.00000  Uiso   1.00
H719   H     0.23160   0.05272   0.65726   0.00000  Uiso   1.00
H720   H     0.34460   0.76348   0.82224   0.00000  Uiso   1.00
H721   H     0.27261   0.81789   0.55499   0.00000  Uiso   1.00
H722   H     0.19523   0.77275   0.52222   0.00000  Uiso   1.00
H723   H     0.28754   0.90710   0.52538   0.00000  Uiso   1.00
H724   H     0.34112   0.76993   0.60362   0.00000  Uiso   1.00
H725   H     0.09990   0.72888   0.50755   0.00000  Uiso   1.00
H726   H     0.29455   0.01216   0.51423   0.00000  Uiso   1.00
H727   H     0.40754   0.72292   0.67921   0.00000  Uiso   1.00
O728   O     0.01619   0.72034   0.56051   0.00000  Uiso   1.00
O729   O     0.27158   0.09199   0.56928   0.00000  Uiso   1.00
O730   O     0.41982   0.71251   0.78573   0.00000  Uiso   1.00
N731   N     0.06239   0.76608   0.62142   0.00000  Uiso   1.00
N732   N     0.24437   0.03093   0.62766   0.00000  Uiso   1.00
N733   N     0.35002   0.76052   0.78191   0.00000  Uiso   1.00
N734   N     0.09626   0.74426   0.54446   0.00000  Uiso   1.00
N735   N     0.27824   0.00911   0.55070   0.00000  Uiso   1.00
N736   N     0.38389   0.73870   0.70494   0.00000  Uiso   1.00
