data_job_05748
_audit_creation_date              2018-12-19
_audit_creation_method            'Materials Studio'
_symmetry_space_group_name_H-M    'P1'
_symmetry_Int_Tables_number       1
_symmetry_cell_setting            triclinic
loop_
_symmetry_equiv_pos_as_xyz
  x,y,z
_cell_length_a                    25.1479
_cell_length_b                    31.8932
_cell_length_c                    13.6543
_cell_angle_alpha                 90.0000
_cell_angle_beta                  90.0000
_cell_angle_gamma                 90.0000
loop_
_atom_site_label
_atom_site_type_symbol
_atom_site_fract_x
_atom_site_fract_y
_atom_site_fract_z
_atom_site_U_iso_or_equiv
_atom_site_adp_type
_atom_site_occupancy
C1     C     0.16450   0.90627   0.75187   0.00000  Uiso   1.00
C2     C     0.20731   0.87241   0.75351   0.00000  Uiso   1.00
C3     C     0.24989   0.86943   0.68924   0.00000  Uiso   1.00
C4     C     0.28470   0.83615   0.70292   0.00000  Uiso   1.00
C5     C     0.35231   0.78802   0.69399   0.00000  Uiso   1.00
C6     C     0.11155   0.88322   0.74380   0.00000  Uiso   1.00
C7     C     0.07362   0.88932   0.67137   0.00000  Uiso   1.00
C8     C     0.02781   0.86513   0.67689   0.00000  Uiso   1.00
C9     C     0.94674   0.83379   0.65292   0.00000  Uiso   1.00
C10    C     0.16510   0.92630   0.85326   0.00000  Uiso   1.00
C11    C     0.17217   0.96863   0.87287   0.00000  Uiso   1.00
C12    C     0.17142   0.98072   0.97055   0.00000  Uiso   1.00
C13    C     0.17349   0.01628   0.11654   0.00000  Uiso   1.00
C14    C     0.15059   0.85247   0.89047   0.00000  Uiso   1.00
C15    C     0.19976   0.84319   0.82879   0.00000  Uiso   1.00
C16    C     0.23451   0.80991   0.84258   0.00000  Uiso   1.00
C17    C     0.27713   0.80688   0.77834   0.00000  Uiso   1.00
C18    C     0.10400   0.85399   0.81908   0.00000  Uiso   1.00
C19    C     0.05823   0.82980   0.82471   0.00000  Uiso   1.00
C20    C     0.02024   0.83586   0.75230   0.00000  Uiso   1.00
C21    C     0.15755   0.89708   0.92855   0.00000  Uiso   1.00
C22    C     0.15679   0.90911   0.02621   0.00000  Uiso   1.00
C23    C     0.16386   0.95145   0.04596   0.00000  Uiso   1.00
H24    H     0.17038   0.92902   0.69326   0.00000  Uiso   1.00
H25    H     0.25572   0.89205   0.63098   0.00000  Uiso   1.00
H26    H     0.07947   0.91194   0.61313   0.00000  Uiso   1.00
H27    H     0.17801   0.99124   0.81459   0.00000  Uiso   1.00
H28    H     0.34700   0.83817   0.59511   0.00000  Uiso   1.00
H29    H     0.97536   0.88011   0.55748   0.00000  Uiso   1.00
H30    H     0.18315   0.04733   0.98232   0.00000  Uiso   1.00
H31    H     0.14471   0.82972   0.94908   0.00000  Uiso   1.00
H32    H     0.22865   0.78730   0.90084   0.00000  Uiso   1.00
H33    H     0.05240   0.80719   0.88298   0.00000  Uiso   1.00
H34    H     0.15094   0.88649   0.08445   0.00000  Uiso   1.00
H35    H     0.32503   0.75315   0.81414   0.00000  Uiso   1.00
H36    H     0.95339   0.79510   0.77651   0.00000  Uiso   1.00
H37    H     0.16118   0.96231   0.20134   0.00000  Uiso   1.00
O38    O     0.39169   0.76954   0.66826   0.00000  Uiso   1.00
O39    O     0.90411   0.82458   0.61890   0.00000  Uiso   1.00
O40    O     0.17672   0.04396   0.17627   0.00000  Uiso   1.00
N41    N     0.33032   0.82399   0.65329   0.00000  Uiso   1.00
N42    N     0.98286   0.86320   0.61810   0.00000  Uiso   1.00
N43    N     0.17711   0.01953   0.01528   0.00000  Uiso   1.00
N44    N     0.31850   0.77824   0.77115   0.00000  Uiso   1.00
N45    N     0.97104   0.81745   0.73596   0.00000  Uiso   1.00
N46    N     0.16528   0.97379   0.13314   0.00000  Uiso   1.00
C47    C     0.31793   0.90074   0.24951   0.00000  Uiso   1.00
C48    C     0.27524   0.86682   0.24581   0.00000  Uiso   1.00
C49    C     0.23190   0.86366   0.30830   0.00000  Uiso   1.00
C50    C     0.19737   0.83035   0.29290   0.00000  Uiso   1.00
C51    C     0.12979   0.78209   0.29863   0.00000  Uiso   1.00
C52    C     0.37083   0.87777   0.25954   0.00000  Uiso   1.00
C53    C     0.40786   0.88381   0.33356   0.00000  Uiso   1.00
C54    C     0.45379   0.85971   0.32971   0.00000  Uiso   1.00
C55    C     0.53464   0.82847   0.35671   0.00000  Uiso   1.00
C56    C     0.31850   0.92094   0.14830   0.00000  Uiso   1.00
C57    C     0.31155   0.96330   0.12878   0.00000  Uiso   1.00
C58    C     0.31344   0.97555   0.03127   0.00000  Uiso   1.00
C59    C     0.31304   0.01134   0.88554   0.00000  Uiso   1.00
C60    C     0.33366   0.84720   0.11104   0.00000  Uiso   1.00
C61    C     0.28378   0.83774   0.17060   0.00000  Uiso   1.00
C62    C     0.24930   0.80442   0.15510   0.00000  Uiso   1.00
C63    C     0.20592   0.80121   0.21755   0.00000  Uiso   1.00
C64    C     0.37937   0.84868   0.18433   0.00000  Uiso   1.00
C65    C     0.42526   0.82457   0.18036   0.00000  Uiso   1.00
C66    C     0.46235   0.83058   0.25436   0.00000  Uiso   1.00
C67    C     0.32704   0.89186   0.07308   0.00000  Uiso   1.00
C68    C     0.32895   0.90405   0.97558   0.00000  Uiso   1.00
C69    C     0.32200   0.94641   0.95592   0.00000  Uiso   1.00
H70    H     0.31128   0.92339   0.30807   0.00000  Uiso   1.00
H71    H     0.22531   0.88618   0.36650   0.00000  Uiso   1.00
H72    H     0.40124   0.90633   0.39175   0.00000  Uiso   1.00
H73    H     0.30494   0.98579   0.18700   0.00000  Uiso   1.00
H74    H     0.13377   0.83209   0.39814   0.00000  Uiso   1.00
H75    H     0.50474   0.87458   0.45136   0.00000  Uiso   1.00
H76    H     0.30168   0.04216   0.01961   0.00000  Uiso   1.00
H77    H     0.34031   0.82455   0.05248   0.00000  Uiso   1.00
H78    H     0.25592   0.78192   0.09689   0.00000  Uiso   1.00
H79    H     0.43186   0.80207   0.12214   0.00000  Uiso   1.00
H80    H     0.33556   0.88154   0.91739   0.00000  Uiso   1.00
H81    H     0.15862   0.74747   0.17932   0.00000  Uiso   1.00
H82    H     0.52959   0.78997   0.23254   0.00000  Uiso   1.00
H83    H     0.32652   0.95754   0.80079   0.00000  Uiso   1.00
O84    O     0.09017   0.76350   0.32257   0.00000  Uiso   1.00
O85    O     0.57688   0.81927   0.39239   0.00000  Uiso   1.00
O86    O     0.31045   0.03912   0.82594   0.00000  Uiso   1.00
N87    N     0.15119   0.81803   0.34053   0.00000  Uiso   1.00
N88    N     0.49803   0.85776   0.39030   0.00000  Uiso   1.00
N89    N     0.30819   0.01443   0.98665   0.00000  Uiso   1.00
N90    N     0.16456   0.77249   0.22279   0.00000  Uiso   1.00
N91    N     0.51140   0.81222   0.27255   0.00000  Uiso   1.00
N92    N     0.32156   0.96889   0.86890   0.00000  Uiso   1.00
C93    C     0.33550   0.09373   0.25187   0.00000  Uiso   1.00
C94    C     0.29269   0.12759   0.25351   0.00000  Uiso   1.00
C95    C     0.25011   0.13057   0.18924   0.00000  Uiso   1.00
C96    C     0.21530   0.16385   0.20292   0.00000  Uiso   1.00
C97    C     0.14769   0.21198   0.19399   0.00000  Uiso   1.00
C98    C     0.38845   0.11678   0.24380   0.00000  Uiso   1.00
C99    C     0.42638   0.11068   0.17137   0.00000  Uiso   1.00
C100   C     0.47219   0.13487   0.17689   0.00000  Uiso   1.00
C101   C     0.55326   0.16621   0.15292   0.00000  Uiso   1.00
C102   C     0.33490   0.07370   0.35326   0.00000  Uiso   1.00
C103   C     0.32783   0.03137   0.37287   0.00000  Uiso   1.00
C104   C     0.32858   0.01928   0.47055   0.00000  Uiso   1.00
C105   C     0.32651   0.98372   0.61654   0.00000  Uiso   1.00
C106   C     0.34941   0.14753   0.39047   0.00000  Uiso   1.00
C107   C     0.30024   0.15681   0.32879   0.00000  Uiso   1.00
C108   C     0.26549   0.19009   0.34258   0.00000  Uiso   1.00
C109   C     0.22287   0.19312   0.27834   0.00000  Uiso   1.00
C110   C     0.39600   0.14601   0.31908   0.00000  Uiso   1.00
C111   C     0.44177   0.17020   0.32471   0.00000  Uiso   1.00
C112   C     0.47976   0.16414   0.25230   0.00000  Uiso   1.00
C113   C     0.34245   0.10292   0.42855   0.00000  Uiso   1.00
C114   C     0.34321   0.09089   0.52621   0.00000  Uiso   1.00
C115   C     0.33614   0.04855   0.54596   0.00000  Uiso   1.00
H116   H     0.32962   0.07098   0.19326   0.00000  Uiso   1.00
H117   H     0.24428   0.10795   0.13098   0.00000  Uiso   1.00
H118   H     0.42053   0.08806   0.11313   0.00000  Uiso   1.00
H119   H     0.32199   0.00876   0.31459   0.00000  Uiso   1.00
H120   H     0.15300   0.16183   0.09511   0.00000  Uiso   1.00
H121   H     0.52464   0.11989   0.05748   0.00000  Uiso   1.00
H122   H     0.31685   0.95267   0.48232   0.00000  Uiso   1.00
H123   H     0.35529   0.17028   0.44908   0.00000  Uiso   1.00
H124   H     0.27135   0.21270   0.40084   0.00000  Uiso   1.00
H125   H     0.44760   0.19281   0.38298   0.00000  Uiso   1.00
H126   H     0.34906   0.11351   0.58445   0.00000  Uiso   1.00
H127   H     0.17497   0.24685   0.31414   0.00000  Uiso   1.00
H128   H     0.54661   0.20490   0.27651   0.00000  Uiso   1.00
H129   H     0.33882   0.03769   0.70134   0.00000  Uiso   1.00
O130   O     0.10831   0.23046   0.16826   0.00000  Uiso   1.00
O131   O     0.59589   0.17542   0.11890   0.00000  Uiso   1.00
O132   O     0.32328   0.95604   0.67627   0.00000  Uiso   1.00
N133   N     0.16968   0.17601   0.15329   0.00000  Uiso   1.00
N134   N     0.51714   0.13680   0.11810   0.00000  Uiso   1.00
N135   N     0.32289   0.98047   0.51528   0.00000  Uiso   1.00
N136   N     0.18150   0.22176   0.27115   0.00000  Uiso   1.00
N137   N     0.52896   0.18255   0.23596   0.00000  Uiso   1.00
N138   N     0.33472   0.02621   0.63314   0.00000  Uiso   1.00
C139   C     0.18207   0.09926   0.74951   0.00000  Uiso   1.00
C140   C     0.22476   0.13318   0.74581   0.00000  Uiso   1.00
C141   C     0.26810   0.13634   0.80830   0.00000  Uiso   1.00
C142   C     0.30263   0.16965   0.79290   0.00000  Uiso   1.00
C143   C     0.37021   0.21791   0.79863   0.00000  Uiso   1.00
C144   C     0.12917   0.12223   0.75954   0.00000  Uiso   1.00
C145   C     0.09214   0.11619   0.83356   0.00000  Uiso   1.00
C146   C     0.04621   0.14029   0.82971   0.00000  Uiso   1.00
C147   C     0.96536   0.17153   0.85671   0.00000  Uiso   1.00
C148   C     0.18150   0.07906   0.64830   0.00000  Uiso   1.00
C149   C     0.18845   0.03670   0.62878   0.00000  Uiso   1.00
C150   C     0.18656   0.02445   0.53127   0.00000  Uiso   1.00
C151   C     0.18696   0.98866   0.38554   0.00000  Uiso   1.00
C152   C     0.16634   0.15280   0.61104   0.00000  Uiso   1.00
C153   C     0.21622   0.16226   0.67060   0.00000  Uiso   1.00
C154   C     0.25070   0.19558   0.65510   0.00000  Uiso   1.00
C155   C     0.29408   0.19879   0.71755   0.00000  Uiso   1.00
C156   C     0.12063   0.15132   0.68433   0.00000  Uiso   1.00
C157   C     0.07474   0.17543   0.68036   0.00000  Uiso   1.00
C158   C     0.03765   0.16942   0.75436   0.00000  Uiso   1.00
C159   C     0.17296   0.10814   0.57308   0.00000  Uiso   1.00
C160   C     0.17105   0.09595   0.47558   0.00000  Uiso   1.00
C161   C     0.17800   0.05359   0.45592   0.00000  Uiso   1.00
H162   H     0.18872   0.07661   0.80807   0.00000  Uiso   1.00
H163   H     0.27469   0.11382   0.86650   0.00000  Uiso   1.00
H164   H     0.09876   0.09367   0.89175   0.00000  Uiso   1.00
H165   H     0.19506   0.01421   0.68700   0.00000  Uiso   1.00
H166   H     0.36623   0.16791   0.89814   0.00000  Uiso   1.00
H167   H     0.99526   0.12542   0.95136   0.00000  Uiso   1.00
H168   H     0.19832   0.95784   0.51961   0.00000  Uiso   1.00
H169   H     0.15969   0.17545   0.55248   0.00000  Uiso   1.00
H170   H     0.24408   0.21808   0.59689   0.00000  Uiso   1.00
H171   H     0.06814   0.19793   0.62214   0.00000  Uiso   1.00
H172   H     0.16444   0.11846   0.41739   0.00000  Uiso   1.00
H173   H     0.34138   0.25253   0.67932   0.00000  Uiso   1.00
H174   H     0.97041   0.21003   0.73254   0.00000  Uiso   1.00
H175   H     0.17348   0.04246   0.30079   0.00000  Uiso   1.00
O176   O     0.40983   0.23650   0.82257   0.00000  Uiso   1.00
O177   O     0.92312   0.18073   0.89239   0.00000  Uiso   1.00
O178   O     0.18955   0.96088   0.32594   0.00000  Uiso   1.00
N179   N     0.34881   0.18197   0.84053   0.00000  Uiso   1.00
N180   N     0.00197   0.14224   0.89030   0.00000  Uiso   1.00
N181   N     0.19181   0.98557   0.48665   0.00000  Uiso   1.00
N182   N     0.33544   0.22751   0.72279   0.00000  Uiso   1.00
N183   N     0.98860   0.18778   0.77255   0.00000  Uiso   1.00
N184   N     0.17844   0.03111   0.36890   0.00000  Uiso   1.00
C185   C     0.83550   0.40627   0.74813   0.00000  Uiso   1.00
C186   C     0.79269   0.37241   0.74649   0.00000  Uiso   1.00
C187   C     0.75011   0.36943   0.81076   0.00000  Uiso   1.00
C188   C     0.71530   0.33615   0.79708   0.00000  Uiso   1.00
C189   C     0.64769   0.28802   0.80601   0.00000  Uiso   1.00
C190   C     0.88845   0.38322   0.75620   0.00000  Uiso   1.00
C191   C     0.92638   0.38932   0.82863   0.00000  Uiso   1.00
C192   C     0.97219   0.36513   0.82311   0.00000  Uiso   1.00
C193   C     0.05326   0.33379   0.84708   0.00000  Uiso   1.00
C194   C     0.83490   0.42630   0.64674   0.00000  Uiso   1.00
C195   C     0.82783   0.46863   0.62713   0.00000  Uiso   1.00
C196   C     0.82858   0.48072   0.52945   0.00000  Uiso   1.00
C197   C     0.82651   0.51628   0.38346   0.00000  Uiso   1.00
C198   C     0.84941   0.35247   0.60953   0.00000  Uiso   1.00
C199   C     0.80024   0.34319   0.67121   0.00000  Uiso   1.00
C200   C     0.76549   0.30991   0.65742   0.00000  Uiso   1.00
C201   C     0.72287   0.30688   0.72166   0.00000  Uiso   1.00
C202   C     0.89600   0.35399   0.68092   0.00000  Uiso   1.00
C203   C     0.94177   0.32980   0.67529   0.00000  Uiso   1.00
C204   C     0.97976   0.33586   0.74770   0.00000  Uiso   1.00
C205   C     0.84245   0.39708   0.57145   0.00000  Uiso   1.00
C206   C     0.84321   0.40911   0.47379   0.00000  Uiso   1.00
C207   C     0.83614   0.45145   0.45404   0.00000  Uiso   1.00
H208   H     0.82962   0.42902   0.80674   0.00000  Uiso   1.00
H209   H     0.74428   0.39205   0.86902   0.00000  Uiso   1.00
H210   H     0.92053   0.41194   0.88687   0.00000  Uiso   1.00
H211   H     0.82199   0.49124   0.68541   0.00000  Uiso   1.00
H212   H     0.65300   0.33817   0.90489   0.00000  Uiso   1.00
H213   H     0.02464   0.38011   0.94252   0.00000  Uiso   1.00
H214   H     0.81685   0.54733   0.51768   0.00000  Uiso   1.00
H215   H     0.85529   0.32972   0.55092   0.00000  Uiso   1.00
H216   H     0.77135   0.28730   0.59916   0.00000  Uiso   1.00
H217   H     0.94760   0.30719   0.61702   0.00000  Uiso   1.00
H218   H     0.84906   0.38649   0.41555   0.00000  Uiso   1.00
H219   H     0.67497   0.25315   0.68586   0.00000  Uiso   1.00
H220   H     0.04661   0.29510   0.72349   0.00000  Uiso   1.00
H221   H     0.83882   0.46231   0.29866   0.00000  Uiso   1.00
O222   O     0.60831   0.26954   0.83174   0.00000  Uiso   1.00
O223   O     0.09589   0.32458   0.88110   0.00000  Uiso   1.00
O224   O     0.82328   0.54396   0.32373   0.00000  Uiso   1.00
N225   N     0.66968   0.32399   0.84671   0.00000  Uiso   1.00
N226   N     0.01714   0.36320   0.88190   0.00000  Uiso   1.00
N227   N     0.82289   0.51953   0.48472   0.00000  Uiso   1.00
N228   N     0.68150   0.27824   0.72885   0.00000  Uiso   1.00
N229   N     0.02896   0.31745   0.76404   0.00000  Uiso   1.00
N230   N     0.83472   0.47379   0.36686   0.00000  Uiso   1.00
C231   C     0.68207   0.40074   0.25049   0.00000  Uiso   1.00
C232   C     0.72476   0.36682   0.25419   0.00000  Uiso   1.00
C233   C     0.76810   0.36366   0.19170   0.00000  Uiso   1.00
C234   C     0.80263   0.33035   0.20710   0.00000  Uiso   1.00
C235   C     0.87021   0.28209   0.20137   0.00000  Uiso   1.00
C236   C     0.62917   0.37777   0.24046   0.00000  Uiso   1.00
C237   C     0.59214   0.38381   0.16644   0.00000  Uiso   1.00
C238   C     0.54621   0.35971   0.17029   0.00000  Uiso   1.00
C239   C     0.46536   0.32847   0.14329   0.00000  Uiso   1.00
C240   C     0.68150   0.42094   0.35170   0.00000  Uiso   1.00
C241   C     0.68845   0.46330   0.37122   0.00000  Uiso   1.00
C242   C     0.68656   0.47555   0.46873   0.00000  Uiso   1.00
C243   C     0.68696   0.51134   0.61446   0.00000  Uiso   1.00
C244   C     0.66634   0.34720   0.38896   0.00000  Uiso   1.00
C245   C     0.71622   0.33774   0.32940   0.00000  Uiso   1.00
C246   C     0.75070   0.30442   0.34490   0.00000  Uiso   1.00
C247   C     0.79408   0.30121   0.28245   0.00000  Uiso   1.00
C248   C     0.62063   0.34868   0.31567   0.00000  Uiso   1.00
C249   C     0.57474   0.32457   0.31964   0.00000  Uiso   1.00
C250   C     0.53765   0.33058   0.24564   0.00000  Uiso   1.00
C251   C     0.67296   0.39186   0.42692   0.00000  Uiso   1.00
C252   C     0.67105   0.40405   0.52442   0.00000  Uiso   1.00
C253   C     0.67800   0.44641   0.54408   0.00000  Uiso   1.00
H254   H     0.68872   0.42339   0.19193   0.00000  Uiso   1.00
H255   H     0.77469   0.38618   0.13350   0.00000  Uiso   1.00
H256   H     0.59876   0.40633   0.10825   0.00000  Uiso   1.00
H257   H     0.69506   0.48579   0.31300   0.00000  Uiso   1.00
H258   H     0.86623   0.33209   0.10186   0.00000  Uiso   1.00
H259   H     0.49526   0.37458   0.04864   0.00000  Uiso   1.00
H260   H     0.69832   0.54216   0.48039   0.00000  Uiso   1.00
H261   H     0.65969   0.32455   0.44752   0.00000  Uiso   1.00
H262   H     0.74408   0.28192   0.40311   0.00000  Uiso   1.00
H263   H     0.56814   0.30207   0.37786   0.00000  Uiso   1.00
H264   H     0.66444   0.38154   0.58261   0.00000  Uiso   1.00
H265   H     0.84138   0.24747   0.32068   0.00000  Uiso   1.00
H266   H     0.47041   0.28997   0.26746   0.00000  Uiso   1.00
H267   H     0.67348   0.45754   0.69921   0.00000  Uiso   1.00
O268   O     0.90983   0.26350   0.17743   0.00000  Uiso   1.00
O269   O     0.42312   0.31927   0.10761   0.00000  Uiso   1.00
O270   O     0.68955   0.53912   0.67406   0.00000  Uiso   1.00
N271   N     0.84881   0.31803   0.15947   0.00000  Uiso   1.00
N272   N     0.50197   0.35776   0.10970   0.00000  Uiso   1.00
N273   N     0.69181   0.51443   0.51335   0.00000  Uiso   1.00
N274   N     0.83544   0.27249   0.27721   0.00000  Uiso   1.00
N275   N     0.48860   0.31222   0.22745   0.00000  Uiso   1.00
N276   N     0.67844   0.46889   0.63110   0.00000  Uiso   1.00
C277   C     0.66450   0.59373   0.24813   0.00000  Uiso   1.00
C278   C     0.70731   0.62759   0.24649   0.00000  Uiso   1.00
C279   C     0.74989   0.63057   0.31076   0.00000  Uiso   1.00
C280   C     0.78470   0.66385   0.29708   0.00000  Uiso   1.00
C281   C     0.85231   0.71198   0.30601   0.00000  Uiso   1.00
C282   C     0.61155   0.61678   0.25620   0.00000  Uiso   1.00
C283   C     0.57362   0.61068   0.32863   0.00000  Uiso   1.00
C284   C     0.52781   0.63487   0.32311   0.00000  Uiso   1.00
C285   C     0.44674   0.66621   0.34708   0.00000  Uiso   1.00
C286   C     0.66510   0.57370   0.14674   0.00000  Uiso   1.00
C287   C     0.67217   0.53137   0.12713   0.00000  Uiso   1.00
C288   C     0.67142   0.51928   0.02945   0.00000  Uiso   1.00
C289   C     0.67349   0.48372   0.88346   0.00000  Uiso   1.00
C290   C     0.65059   0.64753   0.10953   0.00000  Uiso   1.00
C291   C     0.69976   0.65681   0.17121   0.00000  Uiso   1.00
C292   C     0.73451   0.69009   0.15742   0.00000  Uiso   1.00
C293   C     0.77713   0.69312   0.22166   0.00000  Uiso   1.00
C294   C     0.60400   0.64601   0.18092   0.00000  Uiso   1.00
C295   C     0.55823   0.67020   0.17529   0.00000  Uiso   1.00
C296   C     0.52024   0.66414   0.24770   0.00000  Uiso   1.00
C297   C     0.65755   0.60292   0.07145   0.00000  Uiso   1.00
C298   C     0.65679   0.59089   0.97379   0.00000  Uiso   1.00
C299   C     0.66386   0.54855   0.95404   0.00000  Uiso   1.00
H300   H     0.67038   0.57098   0.30674   0.00000  Uiso   1.00
H301   H     0.75572   0.60795   0.36902   0.00000  Uiso   1.00
H302   H     0.57947   0.58806   0.38687   0.00000  Uiso   1.00
H303   H     0.67801   0.50876   0.18541   0.00000  Uiso   1.00
H304   H     0.84700   0.66183   0.40489   0.00000  Uiso   1.00
H305   H     0.47536   0.61989   0.44252   0.00000  Uiso   1.00
H306   H     0.68315   0.45267   0.01768   0.00000  Uiso   1.00
H307   H     0.64471   0.67028   0.05092   0.00000  Uiso   1.00
H308   H     0.72865   0.71270   0.09916   0.00000  Uiso   1.00
H309   H     0.55240   0.69281   0.11702   0.00000  Uiso   1.00
H310   H     0.65094   0.61351   0.91555   0.00000  Uiso   1.00
H311   H     0.82503   0.74685   0.18586   0.00000  Uiso   1.00
H312   H     0.45339   0.70490   0.22349   0.00000  Uiso   1.00
H313   H     0.66118   0.53769   0.79866   0.00000  Uiso   1.00
O314   O     0.89169   0.73046   0.33174   0.00000  Uiso   1.00
O315   O     0.40411   0.67542   0.38110   0.00000  Uiso   1.00
O316   O     0.67672   0.45604   0.82373   0.00000  Uiso   1.00
N317   N     0.83032   0.67601   0.34671   0.00000  Uiso   1.00
N318   N     0.48286   0.63680   0.38190   0.00000  Uiso   1.00
N319   N     0.67711   0.48047   0.98472   0.00000  Uiso   1.00
N320   N     0.81850   0.72176   0.22885   0.00000  Uiso   1.00
N321   N     0.47104   0.68255   0.26404   0.00000  Uiso   1.00
N322   N     0.66528   0.52621   0.86686   0.00000  Uiso   1.00
C323   C     0.81793   0.59926   0.75049   0.00000  Uiso   1.00
C324   C     0.77524   0.63318   0.75419   0.00000  Uiso   1.00
C325   C     0.73190   0.63634   0.69170   0.00000  Uiso   1.00
C326   C     0.69737   0.66965   0.70710   0.00000  Uiso   1.00
C327   C     0.62979   0.71791   0.70137   0.00000  Uiso   1.00
C328   C     0.87083   0.62223   0.74046   0.00000  Uiso   1.00
C329   C     0.90786   0.61619   0.66644   0.00000  Uiso   1.00
C330   C     0.95379   0.64029   0.67029   0.00000  Uiso   1.00
C331   C     0.03464   0.67153   0.64329   0.00000  Uiso   1.00
C332   C     0.81850   0.57906   0.85170   0.00000  Uiso   1.00
C333   C     0.81155   0.53670   0.87122   0.00000  Uiso   1.00
C334   C     0.81344   0.52445   0.96873   0.00000  Uiso   1.00
C335   C     0.81304   0.48866   0.11446   0.00000  Uiso   1.00
C336   C     0.83366   0.65280   0.88896   0.00000  Uiso   1.00
C337   C     0.78378   0.66226   0.82940   0.00000  Uiso   1.00
C338   C     0.74930   0.69558   0.84490   0.00000  Uiso   1.00
C339   C     0.70592   0.69879   0.78245   0.00000  Uiso   1.00
C340   C     0.87937   0.65132   0.81567   0.00000  Uiso   1.00
C341   C     0.92526   0.67543   0.81964   0.00000  Uiso   1.00
C342   C     0.96235   0.66942   0.74564   0.00000  Uiso   1.00
C343   C     0.82704   0.60814   0.92692   0.00000  Uiso   1.00
C344   C     0.82895   0.59595   0.02442   0.00000  Uiso   1.00
C345   C     0.82200   0.55359   0.04408   0.00000  Uiso   1.00
H346   H     0.81128   0.57661   0.69193   0.00000  Uiso   1.00
H347   H     0.72531   0.61382   0.63350   0.00000  Uiso   1.00
H348   H     0.90124   0.59367   0.60825   0.00000  Uiso   1.00
H349   H     0.80494   0.51421   0.81300   0.00000  Uiso   1.00
H350   H     0.63377   0.66791   0.60186   0.00000  Uiso   1.00
H351   H     0.00474   0.62542   0.54864   0.00000  Uiso   1.00
H352   H     0.80168   0.45784   0.98039   0.00000  Uiso   1.00
H353   H     0.84031   0.67545   0.94752   0.00000  Uiso   1.00
H354   H     0.75592   0.71808   0.90311   0.00000  Uiso   1.00
H355   H     0.93186   0.69793   0.87786   0.00000  Uiso   1.00
H356   H     0.83556   0.61846   0.08261   0.00000  Uiso   1.00
H357   H     0.65862   0.75253   0.82068   0.00000  Uiso   1.00
H358   H     0.02959   0.71003   0.76746   0.00000  Uiso   1.00
H359   H     0.82652   0.54246   0.19921   0.00000  Uiso   1.00
O360   O     0.59017   0.73650   0.67743   0.00000  Uiso   1.00
O361   O     0.07688   0.68073   0.60761   0.00000  Uiso   1.00
O362   O     0.81045   0.46088   0.17406   0.00000  Uiso   1.00
N363   N     0.65119   0.68197   0.65947   0.00000  Uiso   1.00
N364   N     0.99803   0.64224   0.60970   0.00000  Uiso   1.00
N365   N     0.80819   0.48557   0.01335   0.00000  Uiso   1.00
N366   N     0.66456   0.72751   0.77721   0.00000  Uiso   1.00
N367   N     0.01140   0.68778   0.72745   0.00000  Uiso   1.00
N368   N     0.82156   0.53111   0.13110   0.00000  Uiso   1.00
C369   C     0.83550   0.09373   0.24813   0.00000  Uiso   1.00
C370   C     0.79269   0.12759   0.24649   0.00000  Uiso   1.00
C371   C     0.75011   0.13057   0.31076   0.00000  Uiso   1.00
C372   C     0.71530   0.16385   0.29708   0.00000  Uiso   1.00
C373   C     0.64769   0.21198   0.30601   0.00000  Uiso   1.00
C374   C     0.88845   0.11678   0.25620   0.00000  Uiso   1.00
C375   C     0.92638   0.11068   0.32863   0.00000  Uiso   1.00
C376   C     0.97219   0.13487   0.32311   0.00000  Uiso   1.00
C377   C     0.05326   0.16621   0.34708   0.00000  Uiso   1.00
C378   C     0.83490   0.07370   0.14674   0.00000  Uiso   1.00
C379   C     0.82783   0.03137   0.12713   0.00000  Uiso   1.00
C380   C     0.82858   0.01928   0.02945   0.00000  Uiso   1.00
C381   C     0.82651   0.98372   0.88346   0.00000  Uiso   1.00
C382   C     0.84941   0.14753   0.10953   0.00000  Uiso   1.00
C383   C     0.80024   0.15681   0.17121   0.00000  Uiso   1.00
C384   C     0.76549   0.19009   0.15742   0.00000  Uiso   1.00
C385   C     0.72287   0.19312   0.22166   0.00000  Uiso   1.00
C386   C     0.89600   0.14601   0.18092   0.00000  Uiso   1.00
C387   C     0.94177   0.17020   0.17529   0.00000  Uiso   1.00
C388   C     0.97976   0.16414   0.24770   0.00000  Uiso   1.00
C389   C     0.84245   0.10292   0.07145   0.00000  Uiso   1.00
C390   C     0.84321   0.09089   0.97379   0.00000  Uiso   1.00
C391   C     0.83614   0.04855   0.95404   0.00000  Uiso   1.00
H392   H     0.82962   0.07098   0.30674   0.00000  Uiso   1.00
H393   H     0.74428   0.10795   0.36902   0.00000  Uiso   1.00
H394   H     0.92053   0.08806   0.38687   0.00000  Uiso   1.00
H395   H     0.82199   0.00876   0.18541   0.00000  Uiso   1.00
H396   H     0.65300   0.16183   0.40489   0.00000  Uiso   1.00
H397   H     0.02464   0.11989   0.44252   0.00000  Uiso   1.00
H398   H     0.81685   0.95267   0.01768   0.00000  Uiso   1.00
H399   H     0.85529   0.17028   0.05092   0.00000  Uiso   1.00
H400   H     0.77135   0.21270   0.09916   0.00000  Uiso   1.00
H401   H     0.94760   0.19281   0.11702   0.00000  Uiso   1.00
H402   H     0.84906   0.11351   0.91555   0.00000  Uiso   1.00
H403   H     0.67497   0.24685   0.18586   0.00000  Uiso   1.00
H404   H     0.04661   0.20490   0.22349   0.00000  Uiso   1.00
H405   H     0.83882   0.03769   0.79866   0.00000  Uiso   1.00
O406   O     0.60831   0.23046   0.33174   0.00000  Uiso   1.00
O407   O     0.09589   0.17542   0.38110   0.00000  Uiso   1.00
O408   O     0.82328   0.95604   0.82373   0.00000  Uiso   1.00
N409   N     0.66968   0.17601   0.34671   0.00000  Uiso   1.00
N410   N     0.01714   0.13680   0.38190   0.00000  Uiso   1.00
N411   N     0.82289   0.98047   0.98472   0.00000  Uiso   1.00
N412   N     0.68150   0.22176   0.22885   0.00000  Uiso   1.00
N413   N     0.02896   0.18255   0.26404   0.00000  Uiso   1.00
N414   N     0.83472   0.02621   0.86686   0.00000  Uiso   1.00
C415   C     0.68207   0.09926   0.75049   0.00000  Uiso   1.00
C416   C     0.72476   0.13318   0.75419   0.00000  Uiso   1.00
C417   C     0.76810   0.13634   0.69170   0.00000  Uiso   1.00
C418   C     0.80263   0.16965   0.70710   0.00000  Uiso   1.00
C419   C     0.87021   0.21791   0.70137   0.00000  Uiso   1.00
C420   C     0.62917   0.12223   0.74046   0.00000  Uiso   1.00
C421   C     0.59214   0.11619   0.66644   0.00000  Uiso   1.00
C422   C     0.54621   0.14029   0.67029   0.00000  Uiso   1.00
C423   C     0.46536   0.17153   0.64329   0.00000  Uiso   1.00
C424   C     0.68150   0.07906   0.85170   0.00000  Uiso   1.00
C425   C     0.68845   0.03670   0.87122   0.00000  Uiso   1.00
C426   C     0.68656   0.02445   0.96873   0.00000  Uiso   1.00
C427   C     0.68696   0.98866   0.11446   0.00000  Uiso   1.00
C428   C     0.66634   0.15280   0.88896   0.00000  Uiso   1.00
C429   C     0.71622   0.16226   0.82940   0.00000  Uiso   1.00
C430   C     0.75070   0.19558   0.84490   0.00000  Uiso   1.00
C431   C     0.79408   0.19879   0.78245   0.00000  Uiso   1.00
C432   C     0.62063   0.15132   0.81567   0.00000  Uiso   1.00
C433   C     0.57474   0.17543   0.81964   0.00000  Uiso   1.00
C434   C     0.53765   0.16942   0.74564   0.00000  Uiso   1.00
C435   C     0.67296   0.10814   0.92692   0.00000  Uiso   1.00
C436   C     0.67105   0.09595   0.02442   0.00000  Uiso   1.00
C437   C     0.67800   0.05359   0.04408   0.00000  Uiso   1.00
H438   H     0.68872   0.07661   0.69193   0.00000  Uiso   1.00
H439   H     0.77469   0.11382   0.63350   0.00000  Uiso   1.00
H440   H     0.59876   0.09367   0.60825   0.00000  Uiso   1.00
H441   H     0.69506   0.01421   0.81300   0.00000  Uiso   1.00
H442   H     0.86623   0.16791   0.60186   0.00000  Uiso   1.00
H443   H     0.49526   0.12542   0.54864   0.00000  Uiso   1.00
H444   H     0.69832   0.95784   0.98039   0.00000  Uiso   1.00
H445   H     0.65969   0.17545   0.94752   0.00000  Uiso   1.00
H446   H     0.74408   0.21808   0.90311   0.00000  Uiso   1.00
H447   H     0.56814   0.19793   0.87786   0.00000  Uiso   1.00
H448   H     0.66444   0.11846   0.08261   0.00000  Uiso   1.00
H449   H     0.84138   0.25253   0.82068   0.00000  Uiso   1.00
H450   H     0.47041   0.21003   0.76746   0.00000  Uiso   1.00
H451   H     0.67348   0.04246   0.19921   0.00000  Uiso   1.00
O452   O     0.90983   0.23650   0.67743   0.00000  Uiso   1.00
O453   O     0.42312   0.18073   0.60761   0.00000  Uiso   1.00
O454   O     0.68955   0.96088   0.17406   0.00000  Uiso   1.00
N455   N     0.84881   0.18197   0.65947   0.00000  Uiso   1.00
N456   N     0.50197   0.14224   0.60970   0.00000  Uiso   1.00
N457   N     0.69181   0.98557   0.01335   0.00000  Uiso   1.00
N458   N     0.83544   0.22751   0.77721   0.00000  Uiso   1.00
N459   N     0.48860   0.18778   0.72745   0.00000  Uiso   1.00
N460   N     0.67844   0.03111   0.13110   0.00000  Uiso   1.00
C461   C     0.66450   0.90627   0.74813   0.00000  Uiso   1.00
C462   C     0.70731   0.87241   0.74649   0.00000  Uiso   1.00
C463   C     0.74989   0.86943   0.81076   0.00000  Uiso   1.00
C464   C     0.78470   0.83615   0.79708   0.00000  Uiso   1.00
C465   C     0.85231   0.78802   0.80601   0.00000  Uiso   1.00
C466   C     0.61155   0.88322   0.75620   0.00000  Uiso   1.00
C467   C     0.57362   0.88932   0.82863   0.00000  Uiso   1.00
C468   C     0.52781   0.86513   0.82311   0.00000  Uiso   1.00
C469   C     0.44674   0.83379   0.84708   0.00000  Uiso   1.00
C470   C     0.66510   0.92630   0.64674   0.00000  Uiso   1.00
C471   C     0.67217   0.96863   0.62713   0.00000  Uiso   1.00
C472   C     0.67142   0.98072   0.52945   0.00000  Uiso   1.00
C473   C     0.67349   0.01628   0.38346   0.00000  Uiso   1.00
C474   C     0.65059   0.85247   0.60953   0.00000  Uiso   1.00
C475   C     0.69976   0.84319   0.67121   0.00000  Uiso   1.00
C476   C     0.73451   0.80991   0.65742   0.00000  Uiso   1.00
C477   C     0.77713   0.80688   0.72166   0.00000  Uiso   1.00
C478   C     0.60400   0.85399   0.68092   0.00000  Uiso   1.00
C479   C     0.55823   0.82980   0.67529   0.00000  Uiso   1.00
C480   C     0.52024   0.83586   0.74770   0.00000  Uiso   1.00
C481   C     0.65755   0.89708   0.57145   0.00000  Uiso   1.00
C482   C     0.65679   0.90911   0.47379   0.00000  Uiso   1.00
C483   C     0.66386   0.95145   0.45404   0.00000  Uiso   1.00
H484   H     0.67038   0.92902   0.80674   0.00000  Uiso   1.00
H485   H     0.75572   0.89205   0.86902   0.00000  Uiso   1.00
H486   H     0.57947   0.91194   0.88687   0.00000  Uiso   1.00
H487   H     0.67801   0.99124   0.68541   0.00000  Uiso   1.00
H488   H     0.84700   0.83817   0.90489   0.00000  Uiso   1.00
H489   H     0.47536   0.88011   0.94252   0.00000  Uiso   1.00
H490   H     0.68315   0.04733   0.51768   0.00000  Uiso   1.00
H491   H     0.64471   0.82972   0.55092   0.00000  Uiso   1.00
H492   H     0.72865   0.78730   0.59916   0.00000  Uiso   1.00
H493   H     0.55240   0.80719   0.61702   0.00000  Uiso   1.00
H494   H     0.65094   0.88649   0.41555   0.00000  Uiso   1.00
H495   H     0.82503   0.75315   0.68586   0.00000  Uiso   1.00
H496   H     0.45339   0.79510   0.72349   0.00000  Uiso   1.00
H497   H     0.66118   0.96231   0.29866   0.00000  Uiso   1.00
O498   O     0.89169   0.76954   0.83174   0.00000  Uiso   1.00
O499   O     0.40411   0.82458   0.88110   0.00000  Uiso   1.00
O500   O     0.67672   0.04396   0.32373   0.00000  Uiso   1.00
N501   N     0.83032   0.82399   0.84671   0.00000  Uiso   1.00
N502   N     0.48286   0.86320   0.88190   0.00000  Uiso   1.00
N503   N     0.67711   0.01953   0.48472   0.00000  Uiso   1.00
N504   N     0.81850   0.77824   0.72885   0.00000  Uiso   1.00
N505   N     0.47104   0.81745   0.76404   0.00000  Uiso   1.00
N506   N     0.66528   0.97379   0.36686   0.00000  Uiso   1.00
C507   C     0.81793   0.90074   0.25049   0.00000  Uiso   1.00
C508   C     0.77524   0.86682   0.25419   0.00000  Uiso   1.00
C509   C     0.73190   0.86366   0.19170   0.00000  Uiso   1.00
C510   C     0.69737   0.83035   0.20710   0.00000  Uiso   1.00
C511   C     0.62979   0.78209   0.20137   0.00000  Uiso   1.00
C512   C     0.87083   0.87777   0.24046   0.00000  Uiso   1.00
C513   C     0.90786   0.88381   0.16644   0.00000  Uiso   1.00
C514   C     0.95379   0.85971   0.17029   0.00000  Uiso   1.00
C515   C     0.03464   0.82847   0.14329   0.00000  Uiso   1.00
C516   C     0.81850   0.92094   0.35170   0.00000  Uiso   1.00
C517   C     0.81155   0.96330   0.37122   0.00000  Uiso   1.00
C518   C     0.81344   0.97555   0.46873   0.00000  Uiso   1.00
C519   C     0.81304   0.01134   0.61446   0.00000  Uiso   1.00
C520   C     0.83366   0.84720   0.38896   0.00000  Uiso   1.00
C521   C     0.78378   0.83774   0.32940   0.00000  Uiso   1.00
C522   C     0.74930   0.80442   0.34490   0.00000  Uiso   1.00
C523   C     0.70592   0.80121   0.28245   0.00000  Uiso   1.00
C524   C     0.87937   0.84868   0.31567   0.00000  Uiso   1.00
C525   C     0.92526   0.82457   0.31964   0.00000  Uiso   1.00
C526   C     0.96235   0.83058   0.24564   0.00000  Uiso   1.00
C527   C     0.82704   0.89186   0.42692   0.00000  Uiso   1.00
C528   C     0.82895   0.90405   0.52442   0.00000  Uiso   1.00
C529   C     0.82200   0.94641   0.54408   0.00000  Uiso   1.00
H530   H     0.81128   0.92339   0.19193   0.00000  Uiso   1.00
H531   H     0.72531   0.88618   0.13350   0.00000  Uiso   1.00
H532   H     0.90124   0.90633   0.10825   0.00000  Uiso   1.00
H533   H     0.80494   0.98579   0.31300   0.00000  Uiso   1.00
H534   H     0.63377   0.83209   0.10186   0.00000  Uiso   1.00
H535   H     0.00474   0.87458   0.04864   0.00000  Uiso   1.00
H536   H     0.80168   0.04216   0.48039   0.00000  Uiso   1.00
H537   H     0.84031   0.82455   0.44752   0.00000  Uiso   1.00
H538   H     0.75592   0.78192   0.40311   0.00000  Uiso   1.00
H539   H     0.93186   0.80207   0.37786   0.00000  Uiso   1.00
H540   H     0.83556   0.88154   0.58261   0.00000  Uiso   1.00
H541   H     0.65862   0.74747   0.32068   0.00000  Uiso   1.00
H542   H     0.02959   0.78997   0.26746   0.00000  Uiso   1.00
H543   H     0.82652   0.95754   0.69921   0.00000  Uiso   1.00
O544   O     0.59017   0.76350   0.17743   0.00000  Uiso   1.00
O545   O     0.07688   0.81927   0.10761   0.00000  Uiso   1.00
O546   O     0.81045   0.03912   0.67406   0.00000  Uiso   1.00
N547   N     0.65119   0.81803   0.15947   0.00000  Uiso   1.00
N548   N     0.99803   0.85776   0.10970   0.00000  Uiso   1.00
N549   N     0.80819   0.01443   0.51335   0.00000  Uiso   1.00
N550   N     0.66456   0.77249   0.27721   0.00000  Uiso   1.00
N551   N     0.01140   0.81222   0.22745   0.00000  Uiso   1.00
N552   N     0.82156   0.96889   0.63110   0.00000  Uiso   1.00
C553   C     0.16450   0.59373   0.25187   0.00000  Uiso   1.00
C554   C     0.20731   0.62759   0.25351   0.00000  Uiso   1.00
C555   C     0.24989   0.63057   0.18924   0.00000  Uiso   1.00
C556   C     0.28470   0.66385   0.20292   0.00000  Uiso   1.00
C557   C     0.35231   0.71198   0.19399   0.00000  Uiso   1.00
C558   C     0.11155   0.61678   0.24380   0.00000  Uiso   1.00
C559   C     0.07362   0.61068   0.17137   0.00000  Uiso   1.00
C560   C     0.02781   0.63487   0.17689   0.00000  Uiso   1.00
C561   C     0.94674   0.66621   0.15292   0.00000  Uiso   1.00
C562   C     0.16510   0.57370   0.35326   0.00000  Uiso   1.00
C563   C     0.17217   0.53137   0.37287   0.00000  Uiso   1.00
C564   C     0.17142   0.51928   0.47055   0.00000  Uiso   1.00
C565   C     0.17349   0.48372   0.61654   0.00000  Uiso   1.00
C566   C     0.15059   0.64753   0.39047   0.00000  Uiso   1.00
C567   C     0.19976   0.65681   0.32879   0.00000  Uiso   1.00
C568   C     0.23451   0.69009   0.34258   0.00000  Uiso   1.00
C569   C     0.27713   0.69312   0.27834   0.00000  Uiso   1.00
C570   C     0.10400   0.64601   0.31908   0.00000  Uiso   1.00
C571   C     0.05823   0.67020   0.32471   0.00000  Uiso   1.00
C572   C     0.02024   0.66414   0.25230   0.00000  Uiso   1.00
C573   C     0.15755   0.60292   0.42855   0.00000  Uiso   1.00
C574   C     0.15679   0.59089   0.52621   0.00000  Uiso   1.00
C575   C     0.16386   0.54855   0.54596   0.00000  Uiso   1.00
H576   H     0.17038   0.57098   0.19326   0.00000  Uiso   1.00
H577   H     0.25572   0.60795   0.13098   0.00000  Uiso   1.00
H578   H     0.07947   0.58806   0.11313   0.00000  Uiso   1.00
H579   H     0.17801   0.50876   0.31459   0.00000  Uiso   1.00
H580   H     0.34700   0.66183   0.09511   0.00000  Uiso   1.00
H581   H     0.97536   0.61989   0.05748   0.00000  Uiso   1.00
H582   H     0.18315   0.45267   0.48232   0.00000  Uiso   1.00
H583   H     0.14471   0.67028   0.44908   0.00000  Uiso   1.00
H584   H     0.22865   0.71270   0.40084   0.00000  Uiso   1.00
H585   H     0.05240   0.69281   0.38298   0.00000  Uiso   1.00
H586   H     0.15094   0.61351   0.58445   0.00000  Uiso   1.00
H587   H     0.32503   0.74685   0.31414   0.00000  Uiso   1.00
H588   H     0.95339   0.70490   0.27651   0.00000  Uiso   1.00
H589   H     0.16118   0.53769   0.70134   0.00000  Uiso   1.00
O590   O     0.39169   0.73046   0.16826   0.00000  Uiso   1.00
O591   O     0.90411   0.67542   0.11890   0.00000  Uiso   1.00
O592   O     0.17672   0.45604   0.67627   0.00000  Uiso   1.00
N593   N     0.33032   0.67601   0.15329   0.00000  Uiso   1.00
N594   N     0.98286   0.63680   0.11810   0.00000  Uiso   1.00
N595   N     0.17711   0.48047   0.51528   0.00000  Uiso   1.00
N596   N     0.31850   0.72176   0.27115   0.00000  Uiso   1.00
N597   N     0.97104   0.68255   0.23596   0.00000  Uiso   1.00
N598   N     0.16528   0.52621   0.63314   0.00000  Uiso   1.00
C599   C     0.31793   0.59926   0.74951   0.00000  Uiso   1.00
C600   C     0.27524   0.63318   0.74581   0.00000  Uiso   1.00
C601   C     0.23190   0.63634   0.80830   0.00000  Uiso   1.00
C602   C     0.19737   0.66965   0.79290   0.00000  Uiso   1.00
C603   C     0.12979   0.71791   0.79863   0.00000  Uiso   1.00
C604   C     0.37083   0.62223   0.75954   0.00000  Uiso   1.00
C605   C     0.40786   0.61619   0.83356   0.00000  Uiso   1.00
C606   C     0.45379   0.64029   0.82971   0.00000  Uiso   1.00
C607   C     0.53464   0.67153   0.85671   0.00000  Uiso   1.00
C608   C     0.31850   0.57906   0.64830   0.00000  Uiso   1.00
C609   C     0.31155   0.53670   0.62878   0.00000  Uiso   1.00
C610   C     0.31344   0.52445   0.53127   0.00000  Uiso   1.00
C611   C     0.31304   0.48866   0.38554   0.00000  Uiso   1.00
C612   C     0.33366   0.65280   0.61104   0.00000  Uiso   1.00
C613   C     0.28378   0.66226   0.67060   0.00000  Uiso   1.00
C614   C     0.24930   0.69558   0.65510   0.00000  Uiso   1.00
C615   C     0.20592   0.69879   0.71755   0.00000  Uiso   1.00
C616   C     0.37937   0.65132   0.68433   0.00000  Uiso   1.00
C617   C     0.42526   0.67543   0.68036   0.00000  Uiso   1.00
C618   C     0.46235   0.66942   0.75436   0.00000  Uiso   1.00
C619   C     0.32704   0.60814   0.57308   0.00000  Uiso   1.00
C620   C     0.32895   0.59595   0.47558   0.00000  Uiso   1.00
C621   C     0.32200   0.55359   0.45592   0.00000  Uiso   1.00
H622   H     0.31128   0.57661   0.80807   0.00000  Uiso   1.00
H623   H     0.22531   0.61382   0.86650   0.00000  Uiso   1.00
H624   H     0.40124   0.59367   0.89175   0.00000  Uiso   1.00
H625   H     0.30494   0.51421   0.68700   0.00000  Uiso   1.00
H626   H     0.13377   0.66791   0.89814   0.00000  Uiso   1.00
H627   H     0.50474   0.62542   0.95136   0.00000  Uiso   1.00
H628   H     0.30168   0.45784   0.51961   0.00000  Uiso   1.00
H629   H     0.34031   0.67545   0.55248   0.00000  Uiso   1.00
H630   H     0.25592   0.71808   0.59689   0.00000  Uiso   1.00
H631   H     0.43186   0.69793   0.62214   0.00000  Uiso   1.00
H632   H     0.33556   0.61846   0.41739   0.00000  Uiso   1.00
H633   H     0.15862   0.75253   0.67932   0.00000  Uiso   1.00
H634   H     0.52959   0.71003   0.73254   0.00000  Uiso   1.00
H635   H     0.32652   0.54246   0.30079   0.00000  Uiso   1.00
O636   O     0.09017   0.73650   0.82257   0.00000  Uiso   1.00
O637   O     0.57688   0.68073   0.89239   0.00000  Uiso   1.00
O638   O     0.31045   0.46088   0.32594   0.00000  Uiso   1.00
N639   N     0.15119   0.68197   0.84053   0.00000  Uiso   1.00
N640   N     0.49803   0.64224   0.89030   0.00000  Uiso   1.00
N641   N     0.30819   0.48557   0.48665   0.00000  Uiso   1.00
N642   N     0.16456   0.72751   0.72279   0.00000  Uiso   1.00
N643   N     0.51140   0.68778   0.77255   0.00000  Uiso   1.00
N644   N     0.32156   0.53111   0.36890   0.00000  Uiso   1.00
C645   C     0.33550   0.40627   0.75187   0.00000  Uiso   1.00
C646   C     0.29269   0.37241   0.75351   0.00000  Uiso   1.00
C647   C     0.25011   0.36943   0.68924   0.00000  Uiso   1.00
C648   C     0.21530   0.33615   0.70292   0.00000  Uiso   1.00
C649   C     0.14769   0.28802   0.69399   0.00000  Uiso   1.00
C650   C     0.38845   0.38322   0.74380   0.00000  Uiso   1.00
C651   C     0.42638   0.38932   0.67137   0.00000  Uiso   1.00
C652   C     0.47219   0.36513   0.67689   0.00000  Uiso   1.00
C653   C     0.55326   0.33379   0.65292   0.00000  Uiso   1.00
C654   C     0.33490   0.42630   0.85326   0.00000  Uiso   1.00
C655   C     0.32783   0.46863   0.87287   0.00000  Uiso   1.00
C656   C     0.32858   0.48072   0.97055   0.00000  Uiso   1.00
C657   C     0.32651   0.51628   0.11654   0.00000  Uiso   1.00
C658   C     0.34941   0.35247   0.89047   0.00000  Uiso   1.00
C659   C     0.30024   0.34319   0.82879   0.00000  Uiso   1.00
C660   C     0.26549   0.30991   0.84258   0.00000  Uiso   1.00
C661   C     0.22287   0.30688   0.77834   0.00000  Uiso   1.00
C662   C     0.39600   0.35399   0.81908   0.00000  Uiso   1.00
C663   C     0.44177   0.32980   0.82471   0.00000  Uiso   1.00
C664   C     0.47976   0.33586   0.75230   0.00000  Uiso   1.00
C665   C     0.34245   0.39708   0.92855   0.00000  Uiso   1.00
C666   C     0.34321   0.40911   0.02621   0.00000  Uiso   1.00
C667   C     0.33614   0.45145   0.04596   0.00000  Uiso   1.00
H668   H     0.32962   0.42902   0.69326   0.00000  Uiso   1.00
H669   H     0.24428   0.39205   0.63098   0.00000  Uiso   1.00
H670   H     0.42053   0.41194   0.61313   0.00000  Uiso   1.00
H671   H     0.32199   0.49124   0.81459   0.00000  Uiso   1.00
H672   H     0.15300   0.33817   0.59511   0.00000  Uiso   1.00
H673   H     0.52464   0.38011   0.55748   0.00000  Uiso   1.00
H674   H     0.31685   0.54733   0.98232   0.00000  Uiso   1.00
H675   H     0.35529   0.32972   0.94908   0.00000  Uiso   1.00
H676   H     0.27135   0.28730   0.90084   0.00000  Uiso   1.00
H677   H     0.44760   0.30719   0.88298   0.00000  Uiso   1.00
H678   H     0.34906   0.38649   0.08445   0.00000  Uiso   1.00
H679   H     0.17497   0.25315   0.81414   0.00000  Uiso   1.00
H680   H     0.54661   0.29510   0.77651   0.00000  Uiso   1.00
H681   H     0.33882   0.46231   0.20134   0.00000  Uiso   1.00
O682   O     0.10831   0.26954   0.66826   0.00000  Uiso   1.00
O683   O     0.59589   0.32458   0.61890   0.00000  Uiso   1.00
O684   O     0.32328   0.54396   0.17627   0.00000  Uiso   1.00
N685   N     0.16968   0.32399   0.65329   0.00000  Uiso   1.00
N686   N     0.51714   0.36320   0.61810   0.00000  Uiso   1.00
N687   N     0.32289   0.51953   0.01528   0.00000  Uiso   1.00
N688   N     0.18150   0.27824   0.77115   0.00000  Uiso   1.00
N689   N     0.52896   0.31745   0.73596   0.00000  Uiso   1.00
N690   N     0.33472   0.47379   0.13314   0.00000  Uiso   1.00
C691   C     0.18207   0.40074   0.24951   0.00000  Uiso   1.00
C692   C     0.22476   0.36682   0.24581   0.00000  Uiso   1.00
C693   C     0.26810   0.36366   0.30830   0.00000  Uiso   1.00
C694   C     0.30263   0.33035   0.29290   0.00000  Uiso   1.00
C695   C     0.37021   0.28209   0.29863   0.00000  Uiso   1.00
C696   C     0.12917   0.37777   0.25954   0.00000  Uiso   1.00
C697   C     0.09214   0.38381   0.33356   0.00000  Uiso   1.00
C698   C     0.04621   0.35971   0.32971   0.00000  Uiso   1.00
C699   C     0.96536   0.32847   0.35671   0.00000  Uiso   1.00
C700   C     0.18150   0.42094   0.14830   0.00000  Uiso   1.00
C701   C     0.18845   0.46330   0.12878   0.00000  Uiso   1.00
C702   C     0.18656   0.47555   0.03127   0.00000  Uiso   1.00
C703   C     0.18696   0.51134   0.88554   0.00000  Uiso   1.00
C704   C     0.16634   0.34720   0.11104   0.00000  Uiso   1.00
C705   C     0.21622   0.33774   0.17060   0.00000  Uiso   1.00
C706   C     0.25070   0.30442   0.15510   0.00000  Uiso   1.00
C707   C     0.29408   0.30121   0.21755   0.00000  Uiso   1.00
C708   C     0.12063   0.34868   0.18433   0.00000  Uiso   1.00
C709   C     0.07474   0.32457   0.18036   0.00000  Uiso   1.00
C710   C     0.03765   0.33058   0.25436   0.00000  Uiso   1.00
C711   C     0.17296   0.39186   0.07308   0.00000  Uiso   1.00
C712   C     0.17105   0.40405   0.97558   0.00000  Uiso   1.00
C713   C     0.17800   0.44641   0.95592   0.00000  Uiso   1.00
H714   H     0.18872   0.42339   0.30807   0.00000  Uiso   1.00
H715   H     0.27469   0.38618   0.36650   0.00000  Uiso   1.00
H716   H     0.09876   0.40633   0.39175   0.00000  Uiso   1.00
H717   H     0.19506   0.48579   0.18700   0.00000  Uiso   1.00
H718   H     0.36623   0.33209   0.39814   0.00000  Uiso   1.00
H719   H     0.99526   0.37458   0.45136   0.00000  Uiso   1.00
H720   H     0.19832   0.54216   0.01961   0.00000  Uiso   1.00
H721   H     0.15969   0.32455   0.05248   0.00000  Uiso   1.00
H722   H     0.24408   0.28192   0.09689   0.00000  Uiso   1.00
H723   H     0.06814   0.30207   0.12214   0.00000  Uiso   1.00
H724   H     0.16444   0.38154   0.91739   0.00000  Uiso   1.00
H725   H     0.34138   0.24747   0.17932   0.00000  Uiso   1.00
H726   H     0.97041   0.28997   0.23254   0.00000  Uiso   1.00
H727   H     0.17348   0.45754   0.80079   0.00000  Uiso   1.00
O728   O     0.40983   0.26350   0.32257   0.00000  Uiso   1.00
O729   O     0.92312   0.31927   0.39239   0.00000  Uiso   1.00
O730   O     0.18955   0.53912   0.82594   0.00000  Uiso   1.00
N731   N     0.34881   0.31803   0.34053   0.00000  Uiso   1.00
N732   N     0.00197   0.35776   0.39030   0.00000  Uiso   1.00
N733   N     0.19181   0.51443   0.98665   0.00000  Uiso   1.00
N734   N     0.33544   0.27249   0.22279   0.00000  Uiso   1.00
N735   N     0.98860   0.31222   0.27255   0.00000  Uiso   1.00
N736   N     0.17844   0.46889   0.86890   0.00000  Uiso   1.00
