data_job_03547
_audit_creation_date              2018-12-19
_audit_creation_method            'Materials Studio'
_symmetry_space_group_name_H-M    'P1'
_symmetry_Int_Tables_number       1
_symmetry_cell_setting            triclinic
loop_
_symmetry_equiv_pos_as_xyz
  x,y,z
_cell_length_a                    27.9828
_cell_length_b                    27.9828
_cell_length_c                    14.7462
_cell_angle_alpha                 90.0000
_cell_angle_beta                  90.0000
_cell_angle_gamma                 90.0000
loop_
_atom_site_label
_atom_site_type_symbol
_atom_site_fract_x
_atom_site_fract_y
_atom_site_fract_z
_atom_site_U_iso_or_equiv
_atom_site_adp_type
_atom_site_occupancy
C1     C     0.63718   0.24373   0.42474   0.00000  Uiso   1.00
C2     C     0.62573   0.24968   0.32427   0.00000  Uiso   1.00
C3     C     0.65664   0.24007   0.25297   0.00000  Uiso   1.00
C4     C     0.63940   0.24783   0.16591   0.00000  Uiso   1.00
C5     C     0.62871   0.25455   0.01220   0.00000  Uiso   1.00
C6     C     0.62812   0.29233   0.46823   0.00000  Uiso   1.00
C7     C     0.66103   0.31858   0.51797   0.00000  Uiso   1.00
C8     C     0.64581   0.36224   0.55212   0.00000  Uiso   1.00
C9     C     0.63881   0.43516   0.62196   0.00000  Uiso   1.00
C10    C     0.59904   0.21032   0.46267   0.00000  Uiso   1.00
C11    C     0.60751   0.16762   0.50777   0.00000  Uiso   1.00
C12    C     0.56781   0.14224   0.53725   0.00000  Uiso   1.00
C13    C     0.51567   0.08782   0.59846   0.00000  Uiso   1.00
C14    C     0.55160   0.27459   0.39693   0.00000  Uiso   1.00
C15    C     0.57925   0.26644   0.30917   0.00000  Uiso   1.00
C16    C     0.56196   0.27422   0.22220   0.00000  Uiso   1.00
C17    C     0.59284   0.26462   0.15078   0.00000  Uiso   1.00
C18    C     0.58164   0.30909   0.45313   0.00000  Uiso   1.00
C19    C     0.56636   0.35273   0.48721   0.00000  Uiso   1.00
C20    C     0.59924   0.37904   0.53699   0.00000  Uiso   1.00
C21    C     0.55256   0.22708   0.44756   0.00000  Uiso   1.00
C22    C     0.51284   0.20176   0.47699   0.00000  Uiso   1.00
C23    C     0.52125   0.15903   0.52212   0.00000  Uiso   1.00
H24    H     0.67336   0.23068   0.43650   0.00000  Uiso   1.00
H25    H     0.69261   0.22711   0.26468   0.00000  Uiso   1.00
H26    H     0.69700   0.30560   0.52966   0.00000  Uiso   1.00
H27    H     0.64349   0.15466   0.51944   0.00000  Uiso   1.00
H28    H     0.69345   0.23056   0.06753   0.00000  Uiso   1.00
H29    H     0.70271   0.39605   0.62627   0.00000  Uiso   1.00
H30    H     0.58987   0.07777   0.60473   0.00000  Uiso   1.00
H31    H     0.51542   0.28764   0.38518   0.00000  Uiso   1.00
H32    H     0.52599   0.28719   0.21053   0.00000  Uiso   1.00
H33    H     0.53039   0.36568   0.47551   0.00000  Uiso   1.00
H34    H     0.47688   0.21475   0.46529   0.00000  Uiso   1.00
H35    H     0.55822   0.27932   0.02358   0.00000  Uiso   1.00
H36    H     0.56748   0.44482   0.58232   0.00000  Uiso   1.00
H37    H     0.45464   0.12654   0.56078   0.00000  Uiso   1.00
O38    O     0.63565   0.25363   0.93159   0.00000  Uiso   1.00
O39    O     0.64779   0.47075   0.66466   0.00000  Uiso   1.00
O40    O     0.49975   0.05317   0.63639   0.00000  Uiso   1.00
N41    N     0.66017   0.24209   0.08115   0.00000  Uiso   1.00
N42    N     0.66883   0.39682   0.60353   0.00000  Uiso   1.00
N43    N     0.56333   0.09926   0.58341   0.00000  Uiso   1.00
N44    N     0.58740   0.26833   0.05750   0.00000  Uiso   1.00
N45    N     0.59606   0.42306   0.57988   0.00000  Uiso   1.00
N46    N     0.49057   0.12550   0.55976   0.00000  Uiso   1.00
C47    C     0.13718   0.74373   0.92474   0.00000  Uiso   1.00
C48    C     0.12573   0.74968   0.82427   0.00000  Uiso   1.00
C49    C     0.15664   0.74007   0.75297   0.00000  Uiso   1.00
C50    C     0.13940   0.74783   0.66591   0.00000  Uiso   1.00
C51    C     0.12871   0.75455   0.51220   0.00000  Uiso   1.00
C52    C     0.12812   0.79233   0.96823   0.00000  Uiso   1.00
C53    C     0.16103   0.81858   0.01797   0.00000  Uiso   1.00
C54    C     0.14581   0.86224   0.05212   0.00000  Uiso   1.00
C55    C     0.13881   0.93516   0.12196   0.00000  Uiso   1.00
C56    C     0.09904   0.71032   0.96267   0.00000  Uiso   1.00
C57    C     0.10751   0.66762   0.00777   0.00000  Uiso   1.00
C58    C     0.06781   0.64224   0.03725   0.00000  Uiso   1.00
C59    C     0.01567   0.58782   0.09846   0.00000  Uiso   1.00
C60    C     0.05160   0.77459   0.89693   0.00000  Uiso   1.00
C61    C     0.07925   0.76644   0.80917   0.00000  Uiso   1.00
C62    C     0.06196   0.77422   0.72220   0.00000  Uiso   1.00
C63    C     0.09284   0.76462   0.65078   0.00000  Uiso   1.00
C64    C     0.08164   0.80909   0.95313   0.00000  Uiso   1.00
C65    C     0.06636   0.85273   0.98721   0.00000  Uiso   1.00
C66    C     0.09924   0.87904   0.03699   0.00000  Uiso   1.00
C67    C     0.05256   0.72708   0.94756   0.00000  Uiso   1.00
C68    C     0.01284   0.70176   0.97699   0.00000  Uiso   1.00
C69    C     0.02125   0.65903   0.02212   0.00000  Uiso   1.00
H70    H     0.17336   0.73068   0.93650   0.00000  Uiso   1.00
H71    H     0.19261   0.72711   0.76468   0.00000  Uiso   1.00
H72    H     0.19700   0.80560   0.02966   0.00000  Uiso   1.00
H73    H     0.14349   0.65466   0.01944   0.00000  Uiso   1.00
H74    H     0.19345   0.73056   0.56753   0.00000  Uiso   1.00
H75    H     0.20271   0.89605   0.12627   0.00000  Uiso   1.00
H76    H     0.08987   0.57777   0.10473   0.00000  Uiso   1.00
H77    H     0.01542   0.78764   0.88518   0.00000  Uiso   1.00
H78    H     0.02599   0.78719   0.71053   0.00000  Uiso   1.00
H79    H     0.03039   0.86568   0.97551   0.00000  Uiso   1.00
H80    H     0.97688   0.71475   0.96529   0.00000  Uiso   1.00
H81    H     0.05822   0.77932   0.52358   0.00000  Uiso   1.00
H82    H     0.06748   0.94482   0.08232   0.00000  Uiso   1.00
H83    H     0.95464   0.62654   0.06078   0.00000  Uiso   1.00
O84    O     0.13565   0.75363   0.43159   0.00000  Uiso   1.00
O85    O     0.14779   0.97075   0.16466   0.00000  Uiso   1.00
O86    O     0.99975   0.55317   0.13639   0.00000  Uiso   1.00
N87    N     0.16017   0.74209   0.58115   0.00000  Uiso   1.00
N88    N     0.16883   0.89682   0.10353   0.00000  Uiso   1.00
N89    N     0.06333   0.59926   0.08341   0.00000  Uiso   1.00
N90    N     0.08740   0.76833   0.55750   0.00000  Uiso   1.00
N91    N     0.09606   0.92306   0.07988   0.00000  Uiso   1.00
N92    N     0.99057   0.62550   0.05976   0.00000  Uiso   1.00
C93    C     0.86282   0.25627   0.92474   0.00000  Uiso   1.00
C94    C     0.87427   0.25032   0.82427   0.00000  Uiso   1.00
C95    C     0.84336   0.25993   0.75297   0.00000  Uiso   1.00
C96    C     0.86060   0.25217   0.66591   0.00000  Uiso   1.00
C97    C     0.87129   0.24545   0.51220   0.00000  Uiso   1.00
C98    C     0.87188   0.20767   0.96823   0.00000  Uiso   1.00
C99    C     0.83897   0.18142   0.01797   0.00000  Uiso   1.00
C100   C     0.85419   0.13776   0.05212   0.00000  Uiso   1.00
C101   C     0.86119   0.06484   0.12196   0.00000  Uiso   1.00
C102   C     0.90096   0.28968   0.96267   0.00000  Uiso   1.00
C103   C     0.89249   0.33238   0.00777   0.00000  Uiso   1.00
C104   C     0.93219   0.35776   0.03725   0.00000  Uiso   1.00
C105   C     0.98433   0.41218   0.09846   0.00000  Uiso   1.00
C106   C     0.94840   0.22541   0.89693   0.00000  Uiso   1.00
C107   C     0.92075   0.23356   0.80917   0.00000  Uiso   1.00
C108   C     0.93804   0.22578   0.72220   0.00000  Uiso   1.00
C109   C     0.90716   0.23538   0.65078   0.00000  Uiso   1.00
C110   C     0.91836   0.19091   0.95313   0.00000  Uiso   1.00
C111   C     0.93364   0.14727   0.98721   0.00000  Uiso   1.00
C112   C     0.90076   0.12096   0.03699   0.00000  Uiso   1.00
C113   C     0.94744   0.27292   0.94756   0.00000  Uiso   1.00
C114   C     0.98716   0.29824   0.97699   0.00000  Uiso   1.00
C115   C     0.97875   0.34097   0.02212   0.00000  Uiso   1.00
H116   H     0.82664   0.26932   0.93650   0.00000  Uiso   1.00
H117   H     0.80739   0.27289   0.76468   0.00000  Uiso   1.00
H118   H     0.80300   0.19440   0.02966   0.00000  Uiso   1.00
H119   H     0.85651   0.34534   0.01944   0.00000  Uiso   1.00
H120   H     0.80655   0.26944   0.56753   0.00000  Uiso   1.00
H121   H     0.79729   0.10395   0.12627   0.00000  Uiso   1.00
H122   H     0.91013   0.42223   0.10473   0.00000  Uiso   1.00
H123   H     0.98458   0.21236   0.88518   0.00000  Uiso   1.00
H124   H     0.97401   0.21281   0.71053   0.00000  Uiso   1.00
H125   H     0.96961   0.13432   0.97551   0.00000  Uiso   1.00
H126   H     0.02312   0.28525   0.96529   0.00000  Uiso   1.00
H127   H     0.94178   0.22068   0.52358   0.00000  Uiso   1.00
H128   H     0.93252   0.05518   0.08232   0.00000  Uiso   1.00
H129   H     0.04536   0.37346   0.06078   0.00000  Uiso   1.00
O130   O     0.86435   0.24637   0.43159   0.00000  Uiso   1.00
O131   O     0.85221   0.02925   0.16466   0.00000  Uiso   1.00
O132   O     0.00025   0.44683   0.13639   0.00000  Uiso   1.00
N133   N     0.83983   0.25791   0.58115   0.00000  Uiso   1.00
N134   N     0.83117   0.10318   0.10353   0.00000  Uiso   1.00
N135   N     0.93667   0.40074   0.08341   0.00000  Uiso   1.00
N136   N     0.91260   0.23167   0.55750   0.00000  Uiso   1.00
N137   N     0.90394   0.07694   0.07988   0.00000  Uiso   1.00
N138   N     0.00943   0.37450   0.05976   0.00000  Uiso   1.00
C139   C     0.36282   0.75627   0.42474   0.00000  Uiso   1.00
C140   C     0.37427   0.75032   0.32427   0.00000  Uiso   1.00
C141   C     0.34336   0.75993   0.25297   0.00000  Uiso   1.00
C142   C     0.36060   0.75217   0.16591   0.00000  Uiso   1.00
C143   C     0.37129   0.74545   0.01220   0.00000  Uiso   1.00
C144   C     0.37188   0.70767   0.46823   0.00000  Uiso   1.00
C145   C     0.33897   0.68142   0.51797   0.00000  Uiso   1.00
C146   C     0.35419   0.63776   0.55212   0.00000  Uiso   1.00
C147   C     0.36119   0.56484   0.62196   0.00000  Uiso   1.00
C148   C     0.40096   0.78968   0.46267   0.00000  Uiso   1.00
C149   C     0.39249   0.83238   0.50777   0.00000  Uiso   1.00
C150   C     0.43219   0.85776   0.53725   0.00000  Uiso   1.00
C151   C     0.48433   0.91218   0.59846   0.00000  Uiso   1.00
C152   C     0.44840   0.72541   0.39693   0.00000  Uiso   1.00
C153   C     0.42075   0.73356   0.30917   0.00000  Uiso   1.00
C154   C     0.43804   0.72578   0.22220   0.00000  Uiso   1.00
C155   C     0.40716   0.73538   0.15078   0.00000  Uiso   1.00
C156   C     0.41836   0.69091   0.45313   0.00000  Uiso   1.00
C157   C     0.43364   0.64727   0.48721   0.00000  Uiso   1.00
C158   C     0.40076   0.62096   0.53699   0.00000  Uiso   1.00
C159   C     0.44744   0.77292   0.44756   0.00000  Uiso   1.00
C160   C     0.48716   0.79824   0.47699   0.00000  Uiso   1.00
C161   C     0.47875   0.84097   0.52212   0.00000  Uiso   1.00
H162   H     0.32664   0.76932   0.43650   0.00000  Uiso   1.00
H163   H     0.30739   0.77289   0.26468   0.00000  Uiso   1.00
H164   H     0.30300   0.69440   0.52966   0.00000  Uiso   1.00
H165   H     0.35651   0.84534   0.51944   0.00000  Uiso   1.00
H166   H     0.30655   0.76944   0.06753   0.00000  Uiso   1.00
H167   H     0.29729   0.60395   0.62627   0.00000  Uiso   1.00
H168   H     0.41013   0.92223   0.60473   0.00000  Uiso   1.00
H169   H     0.48458   0.71236   0.38518   0.00000  Uiso   1.00
H170   H     0.47401   0.71281   0.21053   0.00000  Uiso   1.00
H171   H     0.46961   0.63432   0.47551   0.00000  Uiso   1.00
H172   H     0.52312   0.78525   0.46529   0.00000  Uiso   1.00
H173   H     0.44178   0.72068   0.02358   0.00000  Uiso   1.00
H174   H     0.43252   0.55518   0.58232   0.00000  Uiso   1.00
H175   H     0.54536   0.87346   0.56078   0.00000  Uiso   1.00
O176   O     0.36435   0.74637   0.93159   0.00000  Uiso   1.00
O177   O     0.35221   0.52925   0.66466   0.00000  Uiso   1.00
O178   O     0.50025   0.94683   0.63639   0.00000  Uiso   1.00
N179   N     0.33983   0.75791   0.08115   0.00000  Uiso   1.00
N180   N     0.33117   0.60318   0.60353   0.00000  Uiso   1.00
N181   N     0.43667   0.90074   0.58341   0.00000  Uiso   1.00
N182   N     0.41260   0.73167   0.05750   0.00000  Uiso   1.00
N183   N     0.40394   0.57694   0.57988   0.00000  Uiso   1.00
N184   N     0.50943   0.87450   0.55976   0.00000  Uiso   1.00
C185   C     0.75627   0.13718   0.67474   0.00000  Uiso   1.00
C186   C     0.75032   0.12573   0.57427   0.00000  Uiso   1.00
C187   C     0.75993   0.15664   0.50297   0.00000  Uiso   1.00
C188   C     0.75217   0.13940   0.41591   0.00000  Uiso   1.00
C189   C     0.74545   0.12871   0.26220   0.00000  Uiso   1.00
C190   C     0.70767   0.12812   0.71823   0.00000  Uiso   1.00
C191   C     0.68142   0.16103   0.76797   0.00000  Uiso   1.00
C192   C     0.63776   0.14581   0.80212   0.00000  Uiso   1.00
C193   C     0.56484   0.13881   0.87196   0.00000  Uiso   1.00
C194   C     0.78968   0.09904   0.71267   0.00000  Uiso   1.00
C195   C     0.83238   0.10751   0.75777   0.00000  Uiso   1.00
C196   C     0.85776   0.06781   0.78725   0.00000  Uiso   1.00
C197   C     0.91218   0.01567   0.84846   0.00000  Uiso   1.00
C198   C     0.72541   0.05160   0.64693   0.00000  Uiso   1.00
C199   C     0.73356   0.07925   0.55917   0.00000  Uiso   1.00
C200   C     0.72578   0.06196   0.47220   0.00000  Uiso   1.00
C201   C     0.73538   0.09284   0.40078   0.00000  Uiso   1.00
C202   C     0.69091   0.08164   0.70313   0.00000  Uiso   1.00
C203   C     0.64727   0.06636   0.73721   0.00000  Uiso   1.00
C204   C     0.62096   0.09924   0.78699   0.00000  Uiso   1.00
C205   C     0.77292   0.05256   0.69756   0.00000  Uiso   1.00
C206   C     0.79824   0.01284   0.72699   0.00000  Uiso   1.00
C207   C     0.84097   0.02125   0.77212   0.00000  Uiso   1.00
H208   H     0.76932   0.17336   0.68650   0.00000  Uiso   1.00
H209   H     0.77289   0.19261   0.51468   0.00000  Uiso   1.00
H210   H     0.69440   0.19700   0.77966   0.00000  Uiso   1.00
H211   H     0.84534   0.14349   0.76944   0.00000  Uiso   1.00
H212   H     0.76944   0.19345   0.31753   0.00000  Uiso   1.00
H213   H     0.60395   0.20271   0.87627   0.00000  Uiso   1.00
H214   H     0.92223   0.08987   0.85473   0.00000  Uiso   1.00
H215   H     0.71236   0.01542   0.63518   0.00000  Uiso   1.00
H216   H     0.71281   0.02599   0.46053   0.00000  Uiso   1.00
H217   H     0.63432   0.03039   0.72551   0.00000  Uiso   1.00
H218   H     0.78525   0.97688   0.71529   0.00000  Uiso   1.00
H219   H     0.72068   0.05822   0.27358   0.00000  Uiso   1.00
H220   H     0.55518   0.06748   0.83232   0.00000  Uiso   1.00
H221   H     0.87346   0.95464   0.81078   0.00000  Uiso   1.00
O222   O     0.74637   0.13565   0.18159   0.00000  Uiso   1.00
O223   O     0.52925   0.14779   0.91466   0.00000  Uiso   1.00
O224   O     0.94683   0.99975   0.88639   0.00000  Uiso   1.00
N225   N     0.75791   0.16017   0.33115   0.00000  Uiso   1.00
N226   N     0.60318   0.16883   0.85353   0.00000  Uiso   1.00
N227   N     0.90074   0.06333   0.83341   0.00000  Uiso   1.00
N228   N     0.73167   0.08740   0.30750   0.00000  Uiso   1.00
N229   N     0.57694   0.09606   0.82988   0.00000  Uiso   1.00
N230   N     0.87450   0.99057   0.80976   0.00000  Uiso   1.00
C231   C     0.25627   0.63718   0.17474   0.00000  Uiso   1.00
C232   C     0.25032   0.62573   0.07427   0.00000  Uiso   1.00
C233   C     0.25993   0.65664   0.00297   0.00000  Uiso   1.00
C234   C     0.25217   0.63940   0.91591   0.00000  Uiso   1.00
C235   C     0.24545   0.62871   0.76220   0.00000  Uiso   1.00
C236   C     0.20767   0.62812   0.21823   0.00000  Uiso   1.00
C237   C     0.18142   0.66103   0.26797   0.00000  Uiso   1.00
C238   C     0.13776   0.64581   0.30212   0.00000  Uiso   1.00
C239   C     0.06484   0.63881   0.37196   0.00000  Uiso   1.00
C240   C     0.28968   0.59904   0.21267   0.00000  Uiso   1.00
C241   C     0.33238   0.60751   0.25777   0.00000  Uiso   1.00
C242   C     0.35776   0.56781   0.28725   0.00000  Uiso   1.00
C243   C     0.41218   0.51567   0.34846   0.00000  Uiso   1.00
C244   C     0.22541   0.55160   0.14693   0.00000  Uiso   1.00
C245   C     0.23356   0.57925   0.05917   0.00000  Uiso   1.00
C246   C     0.22578   0.56196   0.97220   0.00000  Uiso   1.00
C247   C     0.23538   0.59284   0.90078   0.00000  Uiso   1.00
C248   C     0.19091   0.58164   0.20313   0.00000  Uiso   1.00
C249   C     0.14727   0.56636   0.23721   0.00000  Uiso   1.00
C250   C     0.12096   0.59924   0.28699   0.00000  Uiso   1.00
C251   C     0.27292   0.55256   0.19756   0.00000  Uiso   1.00
C252   C     0.29824   0.51284   0.22699   0.00000  Uiso   1.00
C253   C     0.34097   0.52125   0.27212   0.00000  Uiso   1.00
H254   H     0.26932   0.67336   0.18650   0.00000  Uiso   1.00
H255   H     0.27289   0.69261   0.01468   0.00000  Uiso   1.00
H256   H     0.19440   0.69700   0.27966   0.00000  Uiso   1.00
H257   H     0.34534   0.64349   0.26944   0.00000  Uiso   1.00
H258   H     0.26944   0.69345   0.81753   0.00000  Uiso   1.00
H259   H     0.10395   0.70271   0.37627   0.00000  Uiso   1.00
H260   H     0.42223   0.58987   0.35473   0.00000  Uiso   1.00
H261   H     0.21236   0.51542   0.13518   0.00000  Uiso   1.00
H262   H     0.21281   0.52599   0.96053   0.00000  Uiso   1.00
H263   H     0.13432   0.53039   0.22551   0.00000  Uiso   1.00
H264   H     0.28525   0.47688   0.21529   0.00000  Uiso   1.00
H265   H     0.22068   0.55822   0.77358   0.00000  Uiso   1.00
H266   H     0.05518   0.56748   0.33232   0.00000  Uiso   1.00
H267   H     0.37346   0.45464   0.31078   0.00000  Uiso   1.00
O268   O     0.24637   0.63565   0.68159   0.00000  Uiso   1.00
O269   O     0.02925   0.64779   0.41466   0.00000  Uiso   1.00
O270   O     0.44683   0.49975   0.38639   0.00000  Uiso   1.00
N271   N     0.25791   0.66017   0.83115   0.00000  Uiso   1.00
N272   N     0.10318   0.66883   0.35353   0.00000  Uiso   1.00
N273   N     0.40074   0.56333   0.33341   0.00000  Uiso   1.00
N274   N     0.23167   0.58740   0.80750   0.00000  Uiso   1.00
N275   N     0.07694   0.59606   0.32988   0.00000  Uiso   1.00
N276   N     0.37450   0.49057   0.30976   0.00000  Uiso   1.00
C277   C     0.74373   0.36282   0.17474   0.00000  Uiso   1.00
C278   C     0.74968   0.37427   0.07427   0.00000  Uiso   1.00
C279   C     0.74007   0.34336   0.00297   0.00000  Uiso   1.00
C280   C     0.74783   0.36060   0.91591   0.00000  Uiso   1.00
C281   C     0.75455   0.37129   0.76220   0.00000  Uiso   1.00
C282   C     0.79233   0.37188   0.21823   0.00000  Uiso   1.00
C283   C     0.81858   0.33897   0.26797   0.00000  Uiso   1.00
C284   C     0.86224   0.35419   0.30212   0.00000  Uiso   1.00
C285   C     0.93516   0.36119   0.37196   0.00000  Uiso   1.00
C286   C     0.71032   0.40096   0.21267   0.00000  Uiso   1.00
C287   C     0.66762   0.39249   0.25777   0.00000  Uiso   1.00
C288   C     0.64224   0.43219   0.28725   0.00000  Uiso   1.00
C289   C     0.58782   0.48433   0.34846   0.00000  Uiso   1.00
C290   C     0.77459   0.44840   0.14693   0.00000  Uiso   1.00
C291   C     0.76644   0.42075   0.05917   0.00000  Uiso   1.00
C292   C     0.77422   0.43804   0.97220   0.00000  Uiso   1.00
C293   C     0.76462   0.40716   0.90078   0.00000  Uiso   1.00
C294   C     0.80909   0.41836   0.20313   0.00000  Uiso   1.00
C295   C     0.85273   0.43364   0.23721   0.00000  Uiso   1.00
C296   C     0.87904   0.40076   0.28699   0.00000  Uiso   1.00
C297   C     0.72708   0.44744   0.19756   0.00000  Uiso   1.00
C298   C     0.70176   0.48716   0.22699   0.00000  Uiso   1.00
C299   C     0.65903   0.47875   0.27212   0.00000  Uiso   1.00
H300   H     0.73068   0.32664   0.18650   0.00000  Uiso   1.00
H301   H     0.72711   0.30739   0.01468   0.00000  Uiso   1.00
H302   H     0.80560   0.30300   0.27966   0.00000  Uiso   1.00
H303   H     0.65466   0.35651   0.26944   0.00000  Uiso   1.00
H304   H     0.73056   0.30655   0.81753   0.00000  Uiso   1.00
H305   H     0.89605   0.29729   0.37627   0.00000  Uiso   1.00
H306   H     0.57777   0.41013   0.35473   0.00000  Uiso   1.00
H307   H     0.78764   0.48458   0.13518   0.00000  Uiso   1.00
H308   H     0.78719   0.47401   0.96053   0.00000  Uiso   1.00
H309   H     0.86568   0.46961   0.22551   0.00000  Uiso   1.00
H310   H     0.71475   0.52312   0.21529   0.00000  Uiso   1.00
H311   H     0.77932   0.44178   0.77358   0.00000  Uiso   1.00
H312   H     0.94482   0.43252   0.33232   0.00000  Uiso   1.00
H313   H     0.62654   0.54536   0.31078   0.00000  Uiso   1.00
O314   O     0.75363   0.36435   0.68159   0.00000  Uiso   1.00
O315   O     0.97075   0.35221   0.41466   0.00000  Uiso   1.00
O316   O     0.55317   0.50025   0.38639   0.00000  Uiso   1.00
N317   N     0.74209   0.33983   0.83115   0.00000  Uiso   1.00
N318   N     0.89682   0.33117   0.35353   0.00000  Uiso   1.00
N319   N     0.59926   0.43667   0.33341   0.00000  Uiso   1.00
N320   N     0.76833   0.41260   0.80750   0.00000  Uiso   1.00
N321   N     0.92306   0.40394   0.32988   0.00000  Uiso   1.00
N322   N     0.62550   0.50943   0.30976   0.00000  Uiso   1.00
C323   C     0.24373   0.86282   0.67474   0.00000  Uiso   1.00
C324   C     0.24968   0.87427   0.57427   0.00000  Uiso   1.00
C325   C     0.24007   0.84336   0.50297   0.00000  Uiso   1.00
C326   C     0.24783   0.86060   0.41591   0.00000  Uiso   1.00
C327   C     0.25455   0.87129   0.26220   0.00000  Uiso   1.00
C328   C     0.29233   0.87188   0.71823   0.00000  Uiso   1.00
C329   C     0.31858   0.83897   0.76797   0.00000  Uiso   1.00
C330   C     0.36224   0.85419   0.80212   0.00000  Uiso   1.00
C331   C     0.43516   0.86119   0.87196   0.00000  Uiso   1.00
C332   C     0.21032   0.90096   0.71267   0.00000  Uiso   1.00
C333   C     0.16762   0.89249   0.75777   0.00000  Uiso   1.00
C334   C     0.14224   0.93219   0.78725   0.00000  Uiso   1.00
C335   C     0.08782   0.98433   0.84846   0.00000  Uiso   1.00
C336   C     0.27459   0.94840   0.64693   0.00000  Uiso   1.00
C337   C     0.26644   0.92075   0.55917   0.00000  Uiso   1.00
C338   C     0.27422   0.93804   0.47220   0.00000  Uiso   1.00
C339   C     0.26462   0.90716   0.40078   0.00000  Uiso   1.00
C340   C     0.30909   0.91836   0.70313   0.00000  Uiso   1.00
C341   C     0.35273   0.93364   0.73721   0.00000  Uiso   1.00
C342   C     0.37904   0.90076   0.78699   0.00000  Uiso   1.00
C343   C     0.22708   0.94744   0.69756   0.00000  Uiso   1.00
C344   C     0.20176   0.98716   0.72699   0.00000  Uiso   1.00
C345   C     0.15903   0.97875   0.77212   0.00000  Uiso   1.00
H346   H     0.23068   0.82664   0.68650   0.00000  Uiso   1.00
H347   H     0.22711   0.80739   0.51468   0.00000  Uiso   1.00
H348   H     0.30560   0.80300   0.77966   0.00000  Uiso   1.00
H349   H     0.15466   0.85651   0.76944   0.00000  Uiso   1.00
H350   H     0.23056   0.80655   0.31753   0.00000  Uiso   1.00
H351   H     0.39605   0.79729   0.87627   0.00000  Uiso   1.00
H352   H     0.07777   0.91013   0.85473   0.00000  Uiso   1.00
H353   H     0.28764   0.98458   0.63518   0.00000  Uiso   1.00
H354   H     0.28719   0.97401   0.46053   0.00000  Uiso   1.00
H355   H     0.36568   0.96961   0.72551   0.00000  Uiso   1.00
H356   H     0.21475   0.02312   0.71529   0.00000  Uiso   1.00
H357   H     0.27932   0.94178   0.27358   0.00000  Uiso   1.00
H358   H     0.44482   0.93252   0.83232   0.00000  Uiso   1.00
H359   H     0.12654   0.04536   0.81078   0.00000  Uiso   1.00
O360   O     0.25363   0.86435   0.18159   0.00000  Uiso   1.00
O361   O     0.47075   0.85221   0.91466   0.00000  Uiso   1.00
O362   O     0.05317   0.00025   0.88639   0.00000  Uiso   1.00
N363   N     0.24209   0.83983   0.33115   0.00000  Uiso   1.00
N364   N     0.39682   0.83117   0.85353   0.00000  Uiso   1.00
N365   N     0.09926   0.93667   0.83341   0.00000  Uiso   1.00
N366   N     0.26833   0.91260   0.30750   0.00000  Uiso   1.00
N367   N     0.42306   0.90394   0.82988   0.00000  Uiso   1.00
N368   N     0.12550   0.00943   0.80976   0.00000  Uiso   1.00
C369   C     0.36282   0.25627   0.82526   0.00000  Uiso   1.00
C370   C     0.37427   0.25032   0.92573   0.00000  Uiso   1.00
C371   C     0.34336   0.25993   0.99703   0.00000  Uiso   1.00
C372   C     0.36060   0.25217   0.08409   0.00000  Uiso   1.00
C373   C     0.37129   0.24545   0.23780   0.00000  Uiso   1.00
C374   C     0.37188   0.20767   0.78177   0.00000  Uiso   1.00
C375   C     0.33897   0.18142   0.73203   0.00000  Uiso   1.00
C376   C     0.35419   0.13776   0.69788   0.00000  Uiso   1.00
C377   C     0.36119   0.06484   0.62804   0.00000  Uiso   1.00
C378   C     0.40096   0.28968   0.78733   0.00000  Uiso   1.00
C379   C     0.39249   0.33238   0.74223   0.00000  Uiso   1.00
C380   C     0.43219   0.35776   0.71275   0.00000  Uiso   1.00
C381   C     0.48433   0.41218   0.65154   0.00000  Uiso   1.00
C382   C     0.44840   0.22541   0.85307   0.00000  Uiso   1.00
C383   C     0.42075   0.23356   0.94083   0.00000  Uiso   1.00
C384   C     0.43804   0.22578   0.02780   0.00000  Uiso   1.00
C385   C     0.40716   0.23538   0.09922   0.00000  Uiso   1.00
C386   C     0.41836   0.19091   0.79687   0.00000  Uiso   1.00
C387   C     0.43364   0.14727   0.76279   0.00000  Uiso   1.00
C388   C     0.40076   0.12096   0.71301   0.00000  Uiso   1.00
C389   C     0.44744   0.27292   0.80244   0.00000  Uiso   1.00
C390   C     0.48716   0.29824   0.77301   0.00000  Uiso   1.00
C391   C     0.47875   0.34097   0.72788   0.00000  Uiso   1.00
H392   H     0.32664   0.26932   0.81350   0.00000  Uiso   1.00
H393   H     0.30739   0.27289   0.98532   0.00000  Uiso   1.00
H394   H     0.30300   0.19440   0.72034   0.00000  Uiso   1.00
H395   H     0.35651   0.34534   0.73056   0.00000  Uiso   1.00
H396   H     0.30655   0.26944   0.18247   0.00000  Uiso   1.00
H397   H     0.29729   0.10395   0.62373   0.00000  Uiso   1.00
H398   H     0.41013   0.42223   0.64527   0.00000  Uiso   1.00
H399   H     0.48458   0.21236   0.86482   0.00000  Uiso   1.00
H400   H     0.47401   0.21281   0.03947   0.00000  Uiso   1.00
H401   H     0.46961   0.13432   0.77449   0.00000  Uiso   1.00
H402   H     0.52312   0.28525   0.78471   0.00000  Uiso   1.00
H403   H     0.44178   0.22068   0.22642   0.00000  Uiso   1.00
H404   H     0.43252   0.05518   0.66768   0.00000  Uiso   1.00
H405   H     0.54536   0.37346   0.68922   0.00000  Uiso   1.00
O406   O     0.36435   0.24637   0.31841   0.00000  Uiso   1.00
O407   O     0.35221   0.02925   0.58534   0.00000  Uiso   1.00
O408   O     0.50025   0.44683   0.61361   0.00000  Uiso   1.00
N409   N     0.33983   0.25791   0.16885   0.00000  Uiso   1.00
N410   N     0.33117   0.10318   0.64647   0.00000  Uiso   1.00
N411   N     0.43667   0.40074   0.66659   0.00000  Uiso   1.00
N412   N     0.41260   0.23167   0.19250   0.00000  Uiso   1.00
N413   N     0.40394   0.07694   0.67012   0.00000  Uiso   1.00
N414   N     0.50943   0.37450   0.69024   0.00000  Uiso   1.00
C415   C     0.86282   0.75627   0.32526   0.00000  Uiso   1.00
C416   C     0.87427   0.75032   0.42573   0.00000  Uiso   1.00
C417   C     0.84336   0.75993   0.49703   0.00000  Uiso   1.00
C418   C     0.86060   0.75217   0.58409   0.00000  Uiso   1.00
C419   C     0.87129   0.74545   0.73780   0.00000  Uiso   1.00
C420   C     0.87188   0.70767   0.28177   0.00000  Uiso   1.00
C421   C     0.83897   0.68142   0.23203   0.00000  Uiso   1.00
C422   C     0.85419   0.63776   0.19788   0.00000  Uiso   1.00
C423   C     0.86119   0.56484   0.12804   0.00000  Uiso   1.00
C424   C     0.90096   0.78968   0.28733   0.00000  Uiso   1.00
C425   C     0.89249   0.83238   0.24223   0.00000  Uiso   1.00
C426   C     0.93219   0.85776   0.21275   0.00000  Uiso   1.00
C427   C     0.98433   0.91218   0.15154   0.00000  Uiso   1.00
C428   C     0.94840   0.72541   0.35307   0.00000  Uiso   1.00
C429   C     0.92075   0.73356   0.44083   0.00000  Uiso   1.00
C430   C     0.93804   0.72578   0.52780   0.00000  Uiso   1.00
C431   C     0.90716   0.73538   0.59922   0.00000  Uiso   1.00
C432   C     0.91836   0.69091   0.29687   0.00000  Uiso   1.00
C433   C     0.93364   0.64727   0.26279   0.00000  Uiso   1.00
C434   C     0.90076   0.62096   0.21301   0.00000  Uiso   1.00
C435   C     0.94744   0.77292   0.30244   0.00000  Uiso   1.00
C436   C     0.98716   0.79824   0.27301   0.00000  Uiso   1.00
C437   C     0.97875   0.84097   0.22788   0.00000  Uiso   1.00
H438   H     0.82664   0.76932   0.31350   0.00000  Uiso   1.00
H439   H     0.80739   0.77289   0.48532   0.00000  Uiso   1.00
H440   H     0.80300   0.69440   0.22034   0.00000  Uiso   1.00
H441   H     0.85651   0.84534   0.23056   0.00000  Uiso   1.00
H442   H     0.80655   0.76944   0.68247   0.00000  Uiso   1.00
H443   H     0.79729   0.60395   0.12373   0.00000  Uiso   1.00
H444   H     0.91013   0.92223   0.14527   0.00000  Uiso   1.00
H445   H     0.98458   0.71236   0.36482   0.00000  Uiso   1.00
H446   H     0.97401   0.71281   0.53947   0.00000  Uiso   1.00
H447   H     0.96961   0.63432   0.27449   0.00000  Uiso   1.00
H448   H     0.02312   0.78525   0.28471   0.00000  Uiso   1.00
H449   H     0.94178   0.72068   0.72642   0.00000  Uiso   1.00
H450   H     0.93252   0.55518   0.16768   0.00000  Uiso   1.00
H451   H     0.04536   0.87346   0.18922   0.00000  Uiso   1.00
O452   O     0.86435   0.74637   0.81841   0.00000  Uiso   1.00
O453   O     0.85221   0.52925   0.08534   0.00000  Uiso   1.00
O454   O     0.00025   0.94683   0.11361   0.00000  Uiso   1.00
N455   N     0.83983   0.75791   0.66885   0.00000  Uiso   1.00
N456   N     0.83117   0.60318   0.14647   0.00000  Uiso   1.00
N457   N     0.93667   0.90074   0.16659   0.00000  Uiso   1.00
N458   N     0.91260   0.73167   0.69250   0.00000  Uiso   1.00
N459   N     0.90394   0.57694   0.17012   0.00000  Uiso   1.00
N460   N     0.00943   0.87450   0.19024   0.00000  Uiso   1.00
C461   C     0.13718   0.24373   0.32526   0.00000  Uiso   1.00
C462   C     0.12573   0.24968   0.42573   0.00000  Uiso   1.00
C463   C     0.15664   0.24007   0.49703   0.00000  Uiso   1.00
C464   C     0.13940   0.24783   0.58409   0.00000  Uiso   1.00
C465   C     0.12871   0.25455   0.73780   0.00000  Uiso   1.00
C466   C     0.12812   0.29233   0.28177   0.00000  Uiso   1.00
C467   C     0.16103   0.31858   0.23203   0.00000  Uiso   1.00
C468   C     0.14581   0.36224   0.19788   0.00000  Uiso   1.00
C469   C     0.13881   0.43516   0.12804   0.00000  Uiso   1.00
C470   C     0.09904   0.21032   0.28733   0.00000  Uiso   1.00
C471   C     0.10751   0.16762   0.24223   0.00000  Uiso   1.00
C472   C     0.06781   0.14224   0.21275   0.00000  Uiso   1.00
C473   C     0.01567   0.08782   0.15154   0.00000  Uiso   1.00
C474   C     0.05160   0.27459   0.35307   0.00000  Uiso   1.00
C475   C     0.07925   0.26644   0.44083   0.00000  Uiso   1.00
C476   C     0.06196   0.27422   0.52780   0.00000  Uiso   1.00
C477   C     0.09284   0.26462   0.59922   0.00000  Uiso   1.00
C478   C     0.08164   0.30909   0.29687   0.00000  Uiso   1.00
C479   C     0.06636   0.35273   0.26279   0.00000  Uiso   1.00
C480   C     0.09924   0.37904   0.21301   0.00000  Uiso   1.00
C481   C     0.05256   0.22708   0.30244   0.00000  Uiso   1.00
C482   C     0.01284   0.20176   0.27301   0.00000  Uiso   1.00
C483   C     0.02125   0.15903   0.22788   0.00000  Uiso   1.00
H484   H     0.17336   0.23068   0.31350   0.00000  Uiso   1.00
H485   H     0.19261   0.22711   0.48532   0.00000  Uiso   1.00
H486   H     0.19700   0.30560   0.22034   0.00000  Uiso   1.00
H487   H     0.14349   0.15466   0.23056   0.00000  Uiso   1.00
H488   H     0.19345   0.23056   0.68247   0.00000  Uiso   1.00
H489   H     0.20271   0.39605   0.12373   0.00000  Uiso   1.00
H490   H     0.08987   0.07777   0.14527   0.00000  Uiso   1.00
H491   H     0.01542   0.28764   0.36482   0.00000  Uiso   1.00
H492   H     0.02599   0.28719   0.53947   0.00000  Uiso   1.00
H493   H     0.03039   0.36568   0.27449   0.00000  Uiso   1.00
H494   H     0.97688   0.21475   0.28471   0.00000  Uiso   1.00
H495   H     0.05822   0.27932   0.72642   0.00000  Uiso   1.00
H496   H     0.06748   0.44482   0.16768   0.00000  Uiso   1.00
H497   H     0.95464   0.12654   0.18922   0.00000  Uiso   1.00
O498   O     0.13565   0.25363   0.81841   0.00000  Uiso   1.00
O499   O     0.14779   0.47075   0.08534   0.00000  Uiso   1.00
O500   O     0.99975   0.05317   0.11361   0.00000  Uiso   1.00
N501   N     0.16017   0.24209   0.66885   0.00000  Uiso   1.00
N502   N     0.16883   0.39682   0.14647   0.00000  Uiso   1.00
N503   N     0.06333   0.09926   0.16659   0.00000  Uiso   1.00
N504   N     0.08740   0.26833   0.69250   0.00000  Uiso   1.00
N505   N     0.09606   0.42306   0.17012   0.00000  Uiso   1.00
N506   N     0.99057   0.12550   0.19024   0.00000  Uiso   1.00
C507   C     0.63718   0.74373   0.82526   0.00000  Uiso   1.00
C508   C     0.62573   0.74968   0.92573   0.00000  Uiso   1.00
C509   C     0.65664   0.74007   0.99703   0.00000  Uiso   1.00
C510   C     0.63940   0.74783   0.08409   0.00000  Uiso   1.00
C511   C     0.62871   0.75455   0.23780   0.00000  Uiso   1.00
C512   C     0.62812   0.79233   0.78177   0.00000  Uiso   1.00
C513   C     0.66103   0.81858   0.73203   0.00000  Uiso   1.00
C514   C     0.64581   0.86224   0.69788   0.00000  Uiso   1.00
C515   C     0.63881   0.93516   0.62804   0.00000  Uiso   1.00
C516   C     0.59904   0.71032   0.78733   0.00000  Uiso   1.00
C517   C     0.60751   0.66762   0.74223   0.00000  Uiso   1.00
C518   C     0.56781   0.64224   0.71275   0.00000  Uiso   1.00
C519   C     0.51567   0.58782   0.65154   0.00000  Uiso   1.00
C520   C     0.55160   0.77459   0.85307   0.00000  Uiso   1.00
C521   C     0.57925   0.76644   0.94083   0.00000  Uiso   1.00
C522   C     0.56196   0.77422   0.02780   0.00000  Uiso   1.00
C523   C     0.59284   0.76462   0.09922   0.00000  Uiso   1.00
C524   C     0.58164   0.80909   0.79687   0.00000  Uiso   1.00
C525   C     0.56636   0.85273   0.76279   0.00000  Uiso   1.00
C526   C     0.59924   0.87904   0.71301   0.00000  Uiso   1.00
C527   C     0.55256   0.72708   0.80244   0.00000  Uiso   1.00
C528   C     0.51284   0.70176   0.77301   0.00000  Uiso   1.00
C529   C     0.52125   0.65903   0.72788   0.00000  Uiso   1.00
H530   H     0.67336   0.73068   0.81350   0.00000  Uiso   1.00
H531   H     0.69261   0.72711   0.98532   0.00000  Uiso   1.00
H532   H     0.69700   0.80560   0.72034   0.00000  Uiso   1.00
H533   H     0.64349   0.65466   0.73056   0.00000  Uiso   1.00
H534   H     0.69345   0.73056   0.18247   0.00000  Uiso   1.00
H535   H     0.70271   0.89605   0.62373   0.00000  Uiso   1.00
H536   H     0.58987   0.57777   0.64527   0.00000  Uiso   1.00
H537   H     0.51542   0.78764   0.86482   0.00000  Uiso   1.00
H538   H     0.52599   0.78719   0.03947   0.00000  Uiso   1.00
H539   H     0.53039   0.86568   0.77449   0.00000  Uiso   1.00
H540   H     0.47688   0.71475   0.78471   0.00000  Uiso   1.00
H541   H     0.55822   0.77932   0.22642   0.00000  Uiso   1.00
H542   H     0.56748   0.94482   0.66768   0.00000  Uiso   1.00
H543   H     0.45464   0.62654   0.68922   0.00000  Uiso   1.00
O544   O     0.63565   0.75363   0.31841   0.00000  Uiso   1.00
O545   O     0.64779   0.97075   0.58534   0.00000  Uiso   1.00
O546   O     0.49975   0.55317   0.61361   0.00000  Uiso   1.00
N547   N     0.66017   0.74209   0.16885   0.00000  Uiso   1.00
N548   N     0.66883   0.89682   0.64647   0.00000  Uiso   1.00
N549   N     0.56333   0.59926   0.66659   0.00000  Uiso   1.00
N550   N     0.58740   0.76833   0.19250   0.00000  Uiso   1.00
N551   N     0.59606   0.92306   0.67012   0.00000  Uiso   1.00
N552   N     0.49057   0.62550   0.69024   0.00000  Uiso   1.00
C553   C     0.24373   0.36282   0.57526   0.00000  Uiso   1.00
C554   C     0.24968   0.37427   0.67573   0.00000  Uiso   1.00
C555   C     0.24007   0.34336   0.74703   0.00000  Uiso   1.00
C556   C     0.24783   0.36060   0.83409   0.00000  Uiso   1.00
C557   C     0.25455   0.37129   0.98780   0.00000  Uiso   1.00
C558   C     0.29233   0.37188   0.53177   0.00000  Uiso   1.00
C559   C     0.31858   0.33897   0.48203   0.00000  Uiso   1.00
C560   C     0.36224   0.35419   0.44788   0.00000  Uiso   1.00
C561   C     0.43516   0.36119   0.37804   0.00000  Uiso   1.00
C562   C     0.21032   0.40096   0.53733   0.00000  Uiso   1.00
C563   C     0.16762   0.39249   0.49223   0.00000  Uiso   1.00
C564   C     0.14224   0.43219   0.46275   0.00000  Uiso   1.00
C565   C     0.08782   0.48433   0.40154   0.00000  Uiso   1.00
C566   C     0.27459   0.44840   0.60307   0.00000  Uiso   1.00
C567   C     0.26644   0.42075   0.69083   0.00000  Uiso   1.00
C568   C     0.27422   0.43804   0.77780   0.00000  Uiso   1.00
C569   C     0.26462   0.40716   0.84922   0.00000  Uiso   1.00
C570   C     0.30909   0.41836   0.54687   0.00000  Uiso   1.00
C571   C     0.35273   0.43364   0.51279   0.00000  Uiso   1.00
C572   C     0.37904   0.40076   0.46301   0.00000  Uiso   1.00
C573   C     0.22708   0.44744   0.55244   0.00000  Uiso   1.00
C574   C     0.20176   0.48716   0.52301   0.00000  Uiso   1.00
C575   C     0.15903   0.47875   0.47788   0.00000  Uiso   1.00
H576   H     0.23068   0.32664   0.56350   0.00000  Uiso   1.00
H577   H     0.22711   0.30739   0.73532   0.00000  Uiso   1.00
H578   H     0.30560   0.30300   0.47034   0.00000  Uiso   1.00
H579   H     0.15466   0.35651   0.48056   0.00000  Uiso   1.00
H580   H     0.23056   0.30655   0.93247   0.00000  Uiso   1.00
H581   H     0.39605   0.29729   0.37373   0.00000  Uiso   1.00
H582   H     0.07777   0.41013   0.39527   0.00000  Uiso   1.00
H583   H     0.28764   0.48458   0.61482   0.00000  Uiso   1.00
H584   H     0.28719   0.47401   0.78947   0.00000  Uiso   1.00
H585   H     0.36568   0.46961   0.52449   0.00000  Uiso   1.00
H586   H     0.21475   0.52312   0.53471   0.00000  Uiso   1.00
H587   H     0.27932   0.44178   0.97642   0.00000  Uiso   1.00
H588   H     0.44482   0.43252   0.41768   0.00000  Uiso   1.00
H589   H     0.12654   0.54536   0.43922   0.00000  Uiso   1.00
O590   O     0.25363   0.36435   0.06841   0.00000  Uiso   1.00
O591   O     0.47075   0.35221   0.33534   0.00000  Uiso   1.00
O592   O     0.05317   0.50025   0.36361   0.00000  Uiso   1.00
N593   N     0.24209   0.33983   0.91885   0.00000  Uiso   1.00
N594   N     0.39682   0.33117   0.39647   0.00000  Uiso   1.00
N595   N     0.09926   0.43667   0.41659   0.00000  Uiso   1.00
N596   N     0.26833   0.41260   0.94250   0.00000  Uiso   1.00
N597   N     0.42306   0.40394   0.42012   0.00000  Uiso   1.00
N598   N     0.12550   0.50943   0.44024   0.00000  Uiso   1.00
C599   C     0.74373   0.86282   0.07526   0.00000  Uiso   1.00
C600   C     0.74968   0.87427   0.17573   0.00000  Uiso   1.00
C601   C     0.74007   0.84336   0.24703   0.00000  Uiso   1.00
C602   C     0.74783   0.86060   0.33409   0.00000  Uiso   1.00
C603   C     0.75455   0.87129   0.48780   0.00000  Uiso   1.00
C604   C     0.79233   0.87188   0.03177   0.00000  Uiso   1.00
C605   C     0.81858   0.83897   0.98203   0.00000  Uiso   1.00
C606   C     0.86224   0.85419   0.94788   0.00000  Uiso   1.00
C607   C     0.93516   0.86119   0.87804   0.00000  Uiso   1.00
C608   C     0.71032   0.90096   0.03733   0.00000  Uiso   1.00
C609   C     0.66762   0.89249   0.99223   0.00000  Uiso   1.00
C610   C     0.64224   0.93219   0.96275   0.00000  Uiso   1.00
C611   C     0.58782   0.98433   0.90154   0.00000  Uiso   1.00
C612   C     0.77459   0.94840   0.10307   0.00000  Uiso   1.00
C613   C     0.76644   0.92075   0.19083   0.00000  Uiso   1.00
C614   C     0.77422   0.93804   0.27780   0.00000  Uiso   1.00
C615   C     0.76462   0.90716   0.34922   0.00000  Uiso   1.00
C616   C     0.80909   0.91836   0.04687   0.00000  Uiso   1.00
C617   C     0.85273   0.93364   0.01279   0.00000  Uiso   1.00
C618   C     0.87904   0.90076   0.96301   0.00000  Uiso   1.00
C619   C     0.72708   0.94744   0.05244   0.00000  Uiso   1.00
C620   C     0.70176   0.98716   0.02301   0.00000  Uiso   1.00
C621   C     0.65903   0.97875   0.97788   0.00000  Uiso   1.00
H622   H     0.73068   0.82664   0.06350   0.00000  Uiso   1.00
H623   H     0.72711   0.80739   0.23532   0.00000  Uiso   1.00
H624   H     0.80560   0.80300   0.97034   0.00000  Uiso   1.00
H625   H     0.65466   0.85651   0.98056   0.00000  Uiso   1.00
H626   H     0.73056   0.80655   0.43247   0.00000  Uiso   1.00
H627   H     0.89605   0.79729   0.87373   0.00000  Uiso   1.00
H628   H     0.57777   0.91013   0.89527   0.00000  Uiso   1.00
H629   H     0.78764   0.98458   0.11482   0.00000  Uiso   1.00
H630   H     0.78719   0.97401   0.28947   0.00000  Uiso   1.00
H631   H     0.86568   0.96961   0.02449   0.00000  Uiso   1.00
H632   H     0.71475   0.02312   0.03471   0.00000  Uiso   1.00
H633   H     0.77932   0.94178   0.47642   0.00000  Uiso   1.00
H634   H     0.94482   0.93252   0.91768   0.00000  Uiso   1.00
H635   H     0.62654   0.04536   0.93922   0.00000  Uiso   1.00
O636   O     0.75363   0.86435   0.56841   0.00000  Uiso   1.00
O637   O     0.97075   0.85221   0.83534   0.00000  Uiso   1.00
O638   O     0.55317   0.00025   0.86361   0.00000  Uiso   1.00
N639   N     0.74209   0.83983   0.41885   0.00000  Uiso   1.00
N640   N     0.89682   0.83117   0.89647   0.00000  Uiso   1.00
N641   N     0.59926   0.93667   0.91659   0.00000  Uiso   1.00
N642   N     0.76833   0.91260   0.44250   0.00000  Uiso   1.00
N643   N     0.92306   0.90394   0.92012   0.00000  Uiso   1.00
N644   N     0.62550   0.00943   0.94024   0.00000  Uiso   1.00
C645   C     0.25627   0.13718   0.07526   0.00000  Uiso   1.00
C646   C     0.25032   0.12573   0.17573   0.00000  Uiso   1.00
C647   C     0.25993   0.15664   0.24703   0.00000  Uiso   1.00
C648   C     0.25217   0.13940   0.33409   0.00000  Uiso   1.00
C649   C     0.24545   0.12871   0.48780   0.00000  Uiso   1.00
C650   C     0.20767   0.12812   0.03177   0.00000  Uiso   1.00
C651   C     0.18142   0.16103   0.98203   0.00000  Uiso   1.00
C652   C     0.13776   0.14581   0.94788   0.00000  Uiso   1.00
C653   C     0.06484   0.13881   0.87804   0.00000  Uiso   1.00
C654   C     0.28968   0.09904   0.03733   0.00000  Uiso   1.00
C655   C     0.33238   0.10751   0.99223   0.00000  Uiso   1.00
C656   C     0.35776   0.06781   0.96275   0.00000  Uiso   1.00
C657   C     0.41218   0.01567   0.90154   0.00000  Uiso   1.00
C658   C     0.22541   0.05160   0.10307   0.00000  Uiso   1.00
C659   C     0.23356   0.07925   0.19083   0.00000  Uiso   1.00
C660   C     0.22578   0.06196   0.27780   0.00000  Uiso   1.00
C661   C     0.23538   0.09284   0.34922   0.00000  Uiso   1.00
C662   C     0.19091   0.08164   0.04687   0.00000  Uiso   1.00
C663   C     0.14727   0.06636   0.01279   0.00000  Uiso   1.00
C664   C     0.12096   0.09924   0.96301   0.00000  Uiso   1.00
C665   C     0.27292   0.05256   0.05244   0.00000  Uiso   1.00
C666   C     0.29824   0.01284   0.02301   0.00000  Uiso   1.00
C667   C     0.34097   0.02125   0.97788   0.00000  Uiso   1.00
H668   H     0.26932   0.17336   0.06350   0.00000  Uiso   1.00
H669   H     0.27289   0.19261   0.23532   0.00000  Uiso   1.00
H670   H     0.19440   0.19700   0.97034   0.00000  Uiso   1.00
H671   H     0.34534   0.14349   0.98056   0.00000  Uiso   1.00
H672   H     0.26944   0.19345   0.43247   0.00000  Uiso   1.00
H673   H     0.10395   0.20271   0.87373   0.00000  Uiso   1.00
H674   H     0.42223   0.08987   0.89527   0.00000  Uiso   1.00
H675   H     0.21236   0.01542   0.11482   0.00000  Uiso   1.00
H676   H     0.21281   0.02599   0.28947   0.00000  Uiso   1.00
H677   H     0.13432   0.03039   0.02449   0.00000  Uiso   1.00
H678   H     0.28525   0.97688   0.03471   0.00000  Uiso   1.00
H679   H     0.22068   0.05822   0.47642   0.00000  Uiso   1.00
H680   H     0.05518   0.06748   0.91768   0.00000  Uiso   1.00
H681   H     0.37346   0.95464   0.93922   0.00000  Uiso   1.00
O682   O     0.24637   0.13565   0.56841   0.00000  Uiso   1.00
O683   O     0.02925   0.14779   0.83534   0.00000  Uiso   1.00
O684   O     0.44683   0.99975   0.86361   0.00000  Uiso   1.00
N685   N     0.25791   0.16017   0.41885   0.00000  Uiso   1.00
N686   N     0.10318   0.16883   0.89647   0.00000  Uiso   1.00
N687   N     0.40074   0.06333   0.91659   0.00000  Uiso   1.00
N688   N     0.23167   0.08740   0.44250   0.00000  Uiso   1.00
N689   N     0.07694   0.09606   0.92012   0.00000  Uiso   1.00
N690   N     0.37450   0.99057   0.94024   0.00000  Uiso   1.00
C691   C     0.75627   0.63718   0.57526   0.00000  Uiso   1.00
C692   C     0.75032   0.62573   0.67573   0.00000  Uiso   1.00
C693   C     0.75993   0.65664   0.74703   0.00000  Uiso   1.00
C694   C     0.75217   0.63940   0.83409   0.00000  Uiso   1.00
C695   C     0.74545   0.62871   0.98780   0.00000  Uiso   1.00
C696   C     0.70767   0.62812   0.53177   0.00000  Uiso   1.00
C697   C     0.68142   0.66103   0.48203   0.00000  Uiso   1.00
C698   C     0.63776   0.64581   0.44788   0.00000  Uiso   1.00
C699   C     0.56484   0.63881   0.37804   0.00000  Uiso   1.00
C700   C     0.78968   0.59904   0.53733   0.00000  Uiso   1.00
C701   C     0.83238   0.60751   0.49223   0.00000  Uiso   1.00
C702   C     0.85776   0.56781   0.46275   0.00000  Uiso   1.00
C703   C     0.91218   0.51567   0.40154   0.00000  Uiso   1.00
C704   C     0.72541   0.55160   0.60307   0.00000  Uiso   1.00
C705   C     0.73356   0.57925   0.69083   0.00000  Uiso   1.00
C706   C     0.72578   0.56196   0.77780   0.00000  Uiso   1.00
C707   C     0.73538   0.59284   0.84922   0.00000  Uiso   1.00
C708   C     0.69091   0.58164   0.54687   0.00000  Uiso   1.00
C709   C     0.64727   0.56636   0.51279   0.00000  Uiso   1.00
C710   C     0.62096   0.59924   0.46301   0.00000  Uiso   1.00
C711   C     0.77292   0.55256   0.55244   0.00000  Uiso   1.00
C712   C     0.79824   0.51284   0.52301   0.00000  Uiso   1.00
C713   C     0.84097   0.52125   0.47788   0.00000  Uiso   1.00
H714   H     0.76932   0.67336   0.56350   0.00000  Uiso   1.00
H715   H     0.77289   0.69261   0.73532   0.00000  Uiso   1.00
H716   H     0.69440   0.69700   0.47034   0.00000  Uiso   1.00
H717   H     0.84534   0.64349   0.48056   0.00000  Uiso   1.00
H718   H     0.76944   0.69345   0.93247   0.00000  Uiso   1.00
H719   H     0.60395   0.70271   0.37373   0.00000  Uiso   1.00
H720   H     0.92223   0.58987   0.39527   0.00000  Uiso   1.00
H721   H     0.71236   0.51542   0.61482   0.00000  Uiso   1.00
H722   H     0.71281   0.52599   0.78947   0.00000  Uiso   1.00
H723   H     0.63432   0.53039   0.52449   0.00000  Uiso   1.00
H724   H     0.78525   0.47688   0.53471   0.00000  Uiso   1.00
H725   H     0.72068   0.55822   0.97642   0.00000  Uiso   1.00
H726   H     0.55518   0.56748   0.41768   0.00000  Uiso   1.00
H727   H     0.87346   0.45464   0.43922   0.00000  Uiso   1.00
O728   O     0.74637   0.63565   0.06841   0.00000  Uiso   1.00
O729   O     0.52925   0.64779   0.33534   0.00000  Uiso   1.00
O730   O     0.94683   0.49975   0.36361   0.00000  Uiso   1.00
N731   N     0.75791   0.66017   0.91885   0.00000  Uiso   1.00
N732   N     0.60318   0.66883   0.39647   0.00000  Uiso   1.00
N733   N     0.90074   0.56333   0.41659   0.00000  Uiso   1.00
N734   N     0.73167   0.58740   0.94250   0.00000  Uiso   1.00
N735   N     0.57694   0.59606   0.42012   0.00000  Uiso   1.00
N736   N     0.87450   0.49057   0.44024   0.00000  Uiso   1.00
