data_job_04066
_audit_creation_date              2018-12-19
_audit_creation_method            'Materials Studio'
_symmetry_space_group_name_H-M    'P1'
_symmetry_Int_Tables_number       1
_symmetry_cell_setting            triclinic
loop_
_symmetry_equiv_pos_as_xyz
  x,y,z
_cell_length_a                    20.6365
_cell_length_b                    34.1149
_cell_length_c                    13.8742
_cell_angle_alpha                 90.0000
_cell_angle_beta                  90.0000
_cell_angle_gamma                 90.0000
loop_
_atom_site_label
_atom_site_type_symbol
_atom_site_fract_x
_atom_site_fract_y
_atom_site_fract_z
_atom_site_U_iso_or_equiv
_atom_site_adp_type
_atom_site_occupancy
C1     C     0.44454   0.15020   0.67975   0.00000  Uiso   1.00
C2     C     0.42468   0.17190   0.77118   0.00000  Uiso   1.00
C3     C     0.39343   0.20789   0.77473   0.00000  Uiso   1.00
C4     C     0.37944   0.22284   0.86544   0.00000  Uiso   1.00
C5     C     0.34609   0.25965   0.99462   0.00000  Uiso   1.00
C6     C     0.51727   0.14310   0.68839   0.00000  Uiso   1.00
C7     C     0.56387   0.15488   0.62233   0.00000  Uiso   1.00
C8     C     0.62783   0.14558   0.64336   0.00000  Uiso   1.00
C9     C     0.73822   0.13765   0.64398   0.00000  Uiso   1.00
C10    C     0.41275   0.10992   0.68576   0.00000  Uiso   1.00
C11    C     0.37148   0.09379   0.61746   0.00000  Uiso   1.00
C12    C     0.34744   0.05655   0.63626   0.00000  Uiso   1.00
C13    C     0.29555   0.99711   0.63278   0.00000  Uiso   1.00
C14    C     0.47527   0.11274   0.83455   0.00000  Uiso   1.00
C15    C     0.44137   0.15156   0.85526   0.00000  Uiso   1.00
C16    C     0.42743   0.16645   0.94600   0.00000  Uiso   1.00
C17    C     0.39616   0.20246   0.94968   0.00000  Uiso   1.00
C18    C     0.53396   0.12276   0.77247   0.00000  Uiso   1.00
C19    C     0.59787   0.11344   0.79360   0.00000  Uiso   1.00
C20    C     0.64455   0.12520   0.72759   0.00000  Uiso   1.00
C21    C     0.42944   0.08958   0.76984   0.00000  Uiso   1.00
C22    C     0.40547   0.05236   0.78874   0.00000  Uiso   1.00
C23    C     0.36417   0.03617   0.72049   0.00000  Uiso   1.00
H24    H     0.43156   0.16603   0.61428   0.00000  Uiso   1.00
H25    H     0.38053   0.22363   0.70964   0.00000  Uiso   1.00
H26    H     0.55094   0.17062   0.55726   0.00000  Uiso   1.00
H27    H     0.35857   0.10954   0.55240   0.00000  Uiso   1.00
H28    H     0.33133   0.27852   0.85244   0.00000  Uiso   1.00
H29    H     0.69065   0.16673   0.53113   0.00000  Uiso   1.00
H30    H     0.28501   0.03794   0.52088   0.00000  Uiso   1.00
H31    H     0.48827   0.09690   0.90001   0.00000  Uiso   1.00
H32    H     0.44035   0.15070   0.01105   0.00000  Uiso   1.00
H33    H     0.61076   0.09769   0.85868   0.00000  Uiso   1.00
H34    H     0.41840   0.03662   0.85381   0.00000  Uiso   1.00
H35    H     0.37989   0.21933   0.09708   0.00000  Uiso   1.00
H36    H     0.73921   0.10754   0.77577   0.00000  Uiso   1.00
H37    H     0.33357   0.97876   0.76552   0.00000  Uiso   1.00
O38    O     0.32309   0.28557   0.04265   0.00000  Uiso   1.00
O39    O     0.79449   0.13890   0.62109   0.00000  Uiso   1.00
O40    O     0.26230   0.96994   0.60764   0.00000  Uiso   1.00
N41    N     0.34933   0.25720   0.89478   0.00000  Uiso   1.00
N42    N     0.68527   0.15269   0.59438   0.00000  Uiso   1.00
N43    N     0.30604   0.03228   0.58478   0.00000  Uiso   1.00
N44    N     0.37545   0.22535   0.02641   0.00000  Uiso   1.00
N45    N     0.71140   0.12084   0.72602   0.00000  Uiso   1.00
N46    N     0.33217   0.00043   0.71642   0.00000  Uiso   1.00
C47    C     0.94454   0.65020   0.67975   0.00000  Uiso   1.00
C48    C     0.92468   0.67190   0.77118   0.00000  Uiso   1.00
C49    C     0.89343   0.70789   0.77473   0.00000  Uiso   1.00
C50    C     0.87944   0.72284   0.86544   0.00000  Uiso   1.00
C51    C     0.84609   0.75965   0.99462   0.00000  Uiso   1.00
C52    C     0.01727   0.64310   0.68839   0.00000  Uiso   1.00
C53    C     0.06387   0.65488   0.62233   0.00000  Uiso   1.00
C54    C     0.12783   0.64558   0.64336   0.00000  Uiso   1.00
C55    C     0.23822   0.63765   0.64398   0.00000  Uiso   1.00
C56    C     0.91275   0.60992   0.68576   0.00000  Uiso   1.00
C57    C     0.87148   0.59379   0.61746   0.00000  Uiso   1.00
C58    C     0.84744   0.55655   0.63626   0.00000  Uiso   1.00
C59    C     0.79555   0.49711   0.63278   0.00000  Uiso   1.00
C60    C     0.97527   0.61274   0.83455   0.00000  Uiso   1.00
C61    C     0.94137   0.65156   0.85526   0.00000  Uiso   1.00
C62    C     0.92743   0.66645   0.94600   0.00000  Uiso   1.00
C63    C     0.89616   0.70246   0.94968   0.00000  Uiso   1.00
C64    C     0.03396   0.62276   0.77247   0.00000  Uiso   1.00
C65    C     0.09787   0.61344   0.79360   0.00000  Uiso   1.00
C66    C     0.14455   0.62520   0.72759   0.00000  Uiso   1.00
C67    C     0.92944   0.58958   0.76984   0.00000  Uiso   1.00
C68    C     0.90547   0.55236   0.78874   0.00000  Uiso   1.00
C69    C     0.86417   0.53617   0.72049   0.00000  Uiso   1.00
H70    H     0.93156   0.66603   0.61428   0.00000  Uiso   1.00
H71    H     0.88053   0.72363   0.70964   0.00000  Uiso   1.00
H72    H     0.05094   0.67062   0.55726   0.00000  Uiso   1.00
H73    H     0.85857   0.60954   0.55240   0.00000  Uiso   1.00
H74    H     0.83133   0.77852   0.85244   0.00000  Uiso   1.00
H75    H     0.19065   0.66673   0.53113   0.00000  Uiso   1.00
H76    H     0.78501   0.53794   0.52088   0.00000  Uiso   1.00
H77    H     0.98827   0.59690   0.90001   0.00000  Uiso   1.00
H78    H     0.94035   0.65070   0.01105   0.00000  Uiso   1.00
H79    H     0.11076   0.59769   0.85868   0.00000  Uiso   1.00
H80    H     0.91840   0.53662   0.85381   0.00000  Uiso   1.00
H81    H     0.87989   0.71933   0.09708   0.00000  Uiso   1.00
H82    H     0.23921   0.60754   0.77577   0.00000  Uiso   1.00
H83    H     0.83357   0.47876   0.76552   0.00000  Uiso   1.00
O84    O     0.82309   0.78557   0.04265   0.00000  Uiso   1.00
O85    O     0.29449   0.63890   0.62109   0.00000  Uiso   1.00
O86    O     0.76230   0.46994   0.60764   0.00000  Uiso   1.00
N87    N     0.84933   0.75720   0.89478   0.00000  Uiso   1.00
N88    N     0.18527   0.65269   0.59438   0.00000  Uiso   1.00
N89    N     0.80604   0.53228   0.58478   0.00000  Uiso   1.00
N90    N     0.87545   0.72535   0.02641   0.00000  Uiso   1.00
N91    N     0.21140   0.62084   0.72602   0.00000  Uiso   1.00
N92    N     0.83217   0.50043   0.71642   0.00000  Uiso   1.00
C93    C     0.05546   0.34980   0.67975   0.00000  Uiso   1.00
C94    C     0.07532   0.32810   0.77118   0.00000  Uiso   1.00
C95    C     0.10657   0.29211   0.77473   0.00000  Uiso   1.00
C96    C     0.12056   0.27716   0.86544   0.00000  Uiso   1.00
C97    C     0.15391   0.24035   0.99462   0.00000  Uiso   1.00
C98    C     0.98273   0.35690   0.68839   0.00000  Uiso   1.00
C99    C     0.93613   0.34512   0.62233   0.00000  Uiso   1.00
C100   C     0.87217   0.35442   0.64336   0.00000  Uiso   1.00
C101   C     0.76178   0.36235   0.64398   0.00000  Uiso   1.00
C102   C     0.08725   0.39008   0.68576   0.00000  Uiso   1.00
C103   C     0.12852   0.40621   0.61746   0.00000  Uiso   1.00
C104   C     0.15256   0.44345   0.63626   0.00000  Uiso   1.00
C105   C     0.20445   0.50289   0.63278   0.00000  Uiso   1.00
C106   C     0.02473   0.38726   0.83455   0.00000  Uiso   1.00
C107   C     0.05863   0.34844   0.85526   0.00000  Uiso   1.00
C108   C     0.07257   0.33355   0.94600   0.00000  Uiso   1.00
C109   C     0.10384   0.29754   0.94968   0.00000  Uiso   1.00
C110   C     0.96604   0.37724   0.77247   0.00000  Uiso   1.00
C111   C     0.90213   0.38656   0.79360   0.00000  Uiso   1.00
C112   C     0.85545   0.37480   0.72759   0.00000  Uiso   1.00
C113   C     0.07056   0.41042   0.76984   0.00000  Uiso   1.00
C114   C     0.09453   0.44764   0.78874   0.00000  Uiso   1.00
C115   C     0.13583   0.46383   0.72049   0.00000  Uiso   1.00
H116   H     0.06844   0.33397   0.61428   0.00000  Uiso   1.00
H117   H     0.11947   0.27637   0.70964   0.00000  Uiso   1.00
H118   H     0.94906   0.32938   0.55726   0.00000  Uiso   1.00
H119   H     0.14143   0.39046   0.55240   0.00000  Uiso   1.00
H120   H     0.16867   0.22148   0.85244   0.00000  Uiso   1.00
H121   H     0.80935   0.33327   0.53113   0.00000  Uiso   1.00
H122   H     0.21499   0.46206   0.52088   0.00000  Uiso   1.00
H123   H     0.01173   0.40310   0.90001   0.00000  Uiso   1.00
H124   H     0.05965   0.34930   0.01105   0.00000  Uiso   1.00
H125   H     0.88924   0.40231   0.85868   0.00000  Uiso   1.00
H126   H     0.08160   0.46338   0.85381   0.00000  Uiso   1.00
H127   H     0.12011   0.28067   0.09708   0.00000  Uiso   1.00
H128   H     0.76079   0.39246   0.77577   0.00000  Uiso   1.00
H129   H     0.16643   0.52124   0.76552   0.00000  Uiso   1.00
O130   O     0.17691   0.21443   0.04265   0.00000  Uiso   1.00
O131   O     0.70551   0.36110   0.62109   0.00000  Uiso   1.00
O132   O     0.23770   0.53006   0.60764   0.00000  Uiso   1.00
N133   N     0.15067   0.24280   0.89478   0.00000  Uiso   1.00
N134   N     0.81473   0.34731   0.59438   0.00000  Uiso   1.00
N135   N     0.19396   0.46772   0.58478   0.00000  Uiso   1.00
N136   N     0.12455   0.27465   0.02641   0.00000  Uiso   1.00
N137   N     0.78860   0.37916   0.72602   0.00000  Uiso   1.00
N138   N     0.16783   0.49957   0.71642   0.00000  Uiso   1.00
C139   C     0.55546   0.84980   0.67975   0.00000  Uiso   1.00
C140   C     0.57532   0.82810   0.77118   0.00000  Uiso   1.00
C141   C     0.60657   0.79211   0.77473   0.00000  Uiso   1.00
C142   C     0.62056   0.77716   0.86544   0.00000  Uiso   1.00
C143   C     0.65391   0.74035   0.99462   0.00000  Uiso   1.00
C144   C     0.48273   0.85690   0.68839   0.00000  Uiso   1.00
C145   C     0.43613   0.84512   0.62233   0.00000  Uiso   1.00
C146   C     0.37217   0.85442   0.64336   0.00000  Uiso   1.00
C147   C     0.26178   0.86235   0.64398   0.00000  Uiso   1.00
C148   C     0.58725   0.89008   0.68576   0.00000  Uiso   1.00
C149   C     0.62852   0.90621   0.61746   0.00000  Uiso   1.00
C150   C     0.65256   0.94345   0.63626   0.00000  Uiso   1.00
C151   C     0.70445   0.00289   0.63278   0.00000  Uiso   1.00
C152   C     0.52473   0.88726   0.83455   0.00000  Uiso   1.00
C153   C     0.55863   0.84844   0.85526   0.00000  Uiso   1.00
C154   C     0.57257   0.83355   0.94600   0.00000  Uiso   1.00
C155   C     0.60384   0.79754   0.94968   0.00000  Uiso   1.00
C156   C     0.46604   0.87724   0.77247   0.00000  Uiso   1.00
C157   C     0.40213   0.88656   0.79360   0.00000  Uiso   1.00
C158   C     0.35545   0.87480   0.72759   0.00000  Uiso   1.00
C159   C     0.57056   0.91042   0.76984   0.00000  Uiso   1.00
C160   C     0.59453   0.94764   0.78874   0.00000  Uiso   1.00
C161   C     0.63583   0.96383   0.72049   0.00000  Uiso   1.00
H162   H     0.56844   0.83397   0.61428   0.00000  Uiso   1.00
H163   H     0.61947   0.77637   0.70964   0.00000  Uiso   1.00
H164   H     0.44906   0.82938   0.55726   0.00000  Uiso   1.00
H165   H     0.64143   0.89046   0.55240   0.00000  Uiso   1.00
H166   H     0.66867   0.72148   0.85244   0.00000  Uiso   1.00
H167   H     0.30935   0.83327   0.53113   0.00000  Uiso   1.00
H168   H     0.71499   0.96206   0.52088   0.00000  Uiso   1.00
H169   H     0.51173   0.90310   0.90001   0.00000  Uiso   1.00
H170   H     0.55965   0.84930   0.01105   0.00000  Uiso   1.00
H171   H     0.38924   0.90231   0.85868   0.00000  Uiso   1.00
H172   H     0.58160   0.96338   0.85381   0.00000  Uiso   1.00
H173   H     0.62011   0.78067   0.09708   0.00000  Uiso   1.00
H174   H     0.26079   0.89246   0.77577   0.00000  Uiso   1.00
H175   H     0.66643   0.02124   0.76552   0.00000  Uiso   1.00
O176   O     0.67691   0.71443   0.04265   0.00000  Uiso   1.00
O177   O     0.20551   0.86110   0.62109   0.00000  Uiso   1.00
O178   O     0.73770   0.03006   0.60764   0.00000  Uiso   1.00
N179   N     0.65067   0.74280   0.89478   0.00000  Uiso   1.00
N180   N     0.31473   0.84731   0.59438   0.00000  Uiso   1.00
N181   N     0.69396   0.96772   0.58478   0.00000  Uiso   1.00
N182   N     0.62455   0.77465   0.02641   0.00000  Uiso   1.00
N183   N     0.28860   0.87916   0.72602   0.00000  Uiso   1.00
N184   N     0.66783   0.99957   0.71642   0.00000  Uiso   1.00
C185   C     0.55546   0.15020   0.32025   0.00000  Uiso   1.00
C186   C     0.57532   0.17190   0.22882   0.00000  Uiso   1.00
C187   C     0.60657   0.20789   0.22527   0.00000  Uiso   1.00
C188   C     0.62056   0.22284   0.13456   0.00000  Uiso   1.00
C189   C     0.65391   0.25965   0.00538   0.00000  Uiso   1.00
C190   C     0.48273   0.14310   0.31161   0.00000  Uiso   1.00
C191   C     0.43613   0.15488   0.37767   0.00000  Uiso   1.00
C192   C     0.37217   0.14558   0.35664   0.00000  Uiso   1.00
C193   C     0.26178   0.13765   0.35602   0.00000  Uiso   1.00
C194   C     0.58725   0.10992   0.31424   0.00000  Uiso   1.00
C195   C     0.62852   0.09379   0.38254   0.00000  Uiso   1.00
C196   C     0.65256   0.05655   0.36374   0.00000  Uiso   1.00
C197   C     0.70445   0.99711   0.36722   0.00000  Uiso   1.00
C198   C     0.52473   0.11274   0.16545   0.00000  Uiso   1.00
C199   C     0.55863   0.15156   0.14474   0.00000  Uiso   1.00
C200   C     0.57257   0.16645   0.05400   0.00000  Uiso   1.00
C201   C     0.60384   0.20246   0.05032   0.00000  Uiso   1.00
C202   C     0.46604   0.12276   0.22753   0.00000  Uiso   1.00
C203   C     0.40213   0.11344   0.20640   0.00000  Uiso   1.00
C204   C     0.35545   0.12520   0.27241   0.00000  Uiso   1.00
C205   C     0.57056   0.08958   0.23016   0.00000  Uiso   1.00
C206   C     0.59453   0.05236   0.21126   0.00000  Uiso   1.00
C207   C     0.63583   0.03617   0.27951   0.00000  Uiso   1.00
H208   H     0.56844   0.16603   0.38572   0.00000  Uiso   1.00
H209   H     0.61947   0.22363   0.29036   0.00000  Uiso   1.00
H210   H     0.44906   0.17062   0.44274   0.00000  Uiso   1.00
H211   H     0.64143   0.10954   0.44760   0.00000  Uiso   1.00
H212   H     0.66867   0.27852   0.14756   0.00000  Uiso   1.00
H213   H     0.30935   0.16673   0.46887   0.00000  Uiso   1.00
H214   H     0.71499   0.03794   0.47912   0.00000  Uiso   1.00
H215   H     0.51173   0.09690   0.09999   0.00000  Uiso   1.00
H216   H     0.55965   0.15070   0.98895   0.00000  Uiso   1.00
H217   H     0.38924   0.09769   0.14132   0.00000  Uiso   1.00
H218   H     0.58160   0.03662   0.14619   0.00000  Uiso   1.00
H219   H     0.62011   0.21933   0.90292   0.00000  Uiso   1.00
H220   H     0.26079   0.10754   0.22423   0.00000  Uiso   1.00
H221   H     0.66643   0.97876   0.23448   0.00000  Uiso   1.00
O222   O     0.67691   0.28557   0.95735   0.00000  Uiso   1.00
O223   O     0.20551   0.13890   0.37891   0.00000  Uiso   1.00
O224   O     0.73770   0.96994   0.39236   0.00000  Uiso   1.00
N225   N     0.65067   0.25720   0.10522   0.00000  Uiso   1.00
N226   N     0.31473   0.15269   0.40562   0.00000  Uiso   1.00
N227   N     0.69396   0.03228   0.41522   0.00000  Uiso   1.00
N228   N     0.62455   0.22535   0.97359   0.00000  Uiso   1.00
N229   N     0.28860   0.12084   0.27398   0.00000  Uiso   1.00
N230   N     0.66783   0.00043   0.28358   0.00000  Uiso   1.00
C231   C     0.05546   0.65020   0.32025   0.00000  Uiso   1.00
C232   C     0.07532   0.67190   0.22882   0.00000  Uiso   1.00
C233   C     0.10657   0.70789   0.22527   0.00000  Uiso   1.00
C234   C     0.12056   0.72284   0.13456   0.00000  Uiso   1.00
C235   C     0.15391   0.75965   0.00538   0.00000  Uiso   1.00
C236   C     0.98273   0.64310   0.31161   0.00000  Uiso   1.00
C237   C     0.93613   0.65488   0.37767   0.00000  Uiso   1.00
C238   C     0.87217   0.64558   0.35664   0.00000  Uiso   1.00
C239   C     0.76178   0.63765   0.35602   0.00000  Uiso   1.00
C240   C     0.08725   0.60992   0.31424   0.00000  Uiso   1.00
C241   C     0.12852   0.59379   0.38254   0.00000  Uiso   1.00
C242   C     0.15256   0.55655   0.36374   0.00000  Uiso   1.00
C243   C     0.20445   0.49711   0.36722   0.00000  Uiso   1.00
C244   C     0.02473   0.61274   0.16545   0.00000  Uiso   1.00
C245   C     0.05863   0.65156   0.14474   0.00000  Uiso   1.00
C246   C     0.07257   0.66645   0.05400   0.00000  Uiso   1.00
C247   C     0.10384   0.70246   0.05032   0.00000  Uiso   1.00
C248   C     0.96604   0.62276   0.22753   0.00000  Uiso   1.00
C249   C     0.90213   0.61344   0.20640   0.00000  Uiso   1.00
C250   C     0.85545   0.62520   0.27241   0.00000  Uiso   1.00
C251   C     0.07056   0.58958   0.23016   0.00000  Uiso   1.00
C252   C     0.09453   0.55236   0.21126   0.00000  Uiso   1.00
C253   C     0.13583   0.53617   0.27951   0.00000  Uiso   1.00
H254   H     0.06844   0.66603   0.38572   0.00000  Uiso   1.00
H255   H     0.11947   0.72363   0.29036   0.00000  Uiso   1.00
H256   H     0.94906   0.67062   0.44274   0.00000  Uiso   1.00
H257   H     0.14143   0.60954   0.44760   0.00000  Uiso   1.00
H258   H     0.16867   0.77852   0.14756   0.00000  Uiso   1.00
H259   H     0.80935   0.66673   0.46887   0.00000  Uiso   1.00
H260   H     0.21499   0.53794   0.47912   0.00000  Uiso   1.00
H261   H     0.01173   0.59690   0.09999   0.00000  Uiso   1.00
H262   H     0.05965   0.65070   0.98895   0.00000  Uiso   1.00
H263   H     0.88924   0.59769   0.14132   0.00000  Uiso   1.00
H264   H     0.08160   0.53662   0.14619   0.00000  Uiso   1.00
H265   H     0.12011   0.71933   0.90292   0.00000  Uiso   1.00
H266   H     0.76079   0.60754   0.22423   0.00000  Uiso   1.00
H267   H     0.16643   0.47876   0.23448   0.00000  Uiso   1.00
O268   O     0.17691   0.78557   0.95735   0.00000  Uiso   1.00
O269   O     0.70551   0.63890   0.37891   0.00000  Uiso   1.00
O270   O     0.23770   0.46994   0.39236   0.00000  Uiso   1.00
N271   N     0.15067   0.75720   0.10522   0.00000  Uiso   1.00
N272   N     0.81473   0.65269   0.40562   0.00000  Uiso   1.00
N273   N     0.19396   0.53228   0.41522   0.00000  Uiso   1.00
N274   N     0.12455   0.72535   0.97359   0.00000  Uiso   1.00
N275   N     0.78860   0.62084   0.27398   0.00000  Uiso   1.00
N276   N     0.16783   0.50043   0.28358   0.00000  Uiso   1.00
C277   C     0.94454   0.34980   0.32025   0.00000  Uiso   1.00
C278   C     0.92468   0.32810   0.22882   0.00000  Uiso   1.00
C279   C     0.89343   0.29211   0.22527   0.00000  Uiso   1.00
C280   C     0.87944   0.27716   0.13456   0.00000  Uiso   1.00
C281   C     0.84609   0.24035   0.00538   0.00000  Uiso   1.00
C282   C     0.01727   0.35690   0.31161   0.00000  Uiso   1.00
C283   C     0.06387   0.34512   0.37767   0.00000  Uiso   1.00
C284   C     0.12783   0.35442   0.35664   0.00000  Uiso   1.00
C285   C     0.23822   0.36235   0.35602   0.00000  Uiso   1.00
C286   C     0.91275   0.39008   0.31424   0.00000  Uiso   1.00
C287   C     0.87148   0.40621   0.38254   0.00000  Uiso   1.00
C288   C     0.84744   0.44345   0.36374   0.00000  Uiso   1.00
C289   C     0.79555   0.50289   0.36722   0.00000  Uiso   1.00
C290   C     0.97527   0.38726   0.16545   0.00000  Uiso   1.00
C291   C     0.94137   0.34844   0.14474   0.00000  Uiso   1.00
C292   C     0.92743   0.33355   0.05400   0.00000  Uiso   1.00
C293   C     0.89616   0.29754   0.05032   0.00000  Uiso   1.00
C294   C     0.03396   0.37724   0.22753   0.00000  Uiso   1.00
C295   C     0.09787   0.38656   0.20640   0.00000  Uiso   1.00
C296   C     0.14455   0.37480   0.27241   0.00000  Uiso   1.00
C297   C     0.92944   0.41042   0.23016   0.00000  Uiso   1.00
C298   C     0.90547   0.44764   0.21126   0.00000  Uiso   1.00
C299   C     0.86417   0.46383   0.27951   0.00000  Uiso   1.00
H300   H     0.93156   0.33397   0.38572   0.00000  Uiso   1.00
H301   H     0.88053   0.27637   0.29036   0.00000  Uiso   1.00
H302   H     0.05094   0.32938   0.44274   0.00000  Uiso   1.00
H303   H     0.85857   0.39046   0.44760   0.00000  Uiso   1.00
H304   H     0.83133   0.22148   0.14756   0.00000  Uiso   1.00
H305   H     0.19065   0.33327   0.46887   0.00000  Uiso   1.00
H306   H     0.78501   0.46206   0.47912   0.00000  Uiso   1.00
H307   H     0.98827   0.40310   0.09999   0.00000  Uiso   1.00
H308   H     0.94035   0.34930   0.98895   0.00000  Uiso   1.00
H309   H     0.11076   0.40231   0.14132   0.00000  Uiso   1.00
H310   H     0.91840   0.46338   0.14619   0.00000  Uiso   1.00
H311   H     0.87989   0.28067   0.90292   0.00000  Uiso   1.00
H312   H     0.23921   0.39246   0.22423   0.00000  Uiso   1.00
H313   H     0.83357   0.52124   0.23448   0.00000  Uiso   1.00
O314   O     0.82309   0.21443   0.95735   0.00000  Uiso   1.00
O315   O     0.29449   0.36110   0.37891   0.00000  Uiso   1.00
O316   O     0.76230   0.53006   0.39236   0.00000  Uiso   1.00
N317   N     0.84933   0.24280   0.10522   0.00000  Uiso   1.00
N318   N     0.18527   0.34731   0.40562   0.00000  Uiso   1.00
N319   N     0.80604   0.46772   0.41522   0.00000  Uiso   1.00
N320   N     0.87545   0.27465   0.97359   0.00000  Uiso   1.00
N321   N     0.21140   0.37916   0.27398   0.00000  Uiso   1.00
N322   N     0.83217   0.49957   0.28358   0.00000  Uiso   1.00
C323   C     0.44454   0.84980   0.32025   0.00000  Uiso   1.00
C324   C     0.42468   0.82810   0.22882   0.00000  Uiso   1.00
C325   C     0.39343   0.79211   0.22527   0.00000  Uiso   1.00
C326   C     0.37944   0.77716   0.13456   0.00000  Uiso   1.00
C327   C     0.34609   0.74035   0.00538   0.00000  Uiso   1.00
C328   C     0.51727   0.85690   0.31161   0.00000  Uiso   1.00
C329   C     0.56387   0.84512   0.37767   0.00000  Uiso   1.00
C330   C     0.62783   0.85442   0.35664   0.00000  Uiso   1.00
C331   C     0.73822   0.86235   0.35602   0.00000  Uiso   1.00
C332   C     0.41275   0.89008   0.31424   0.00000  Uiso   1.00
C333   C     0.37148   0.90621   0.38254   0.00000  Uiso   1.00
C334   C     0.34744   0.94345   0.36374   0.00000  Uiso   1.00
C335   C     0.29555   0.00289   0.36722   0.00000  Uiso   1.00
C336   C     0.47527   0.88726   0.16545   0.00000  Uiso   1.00
C337   C     0.44137   0.84844   0.14474   0.00000  Uiso   1.00
C338   C     0.42743   0.83355   0.05400   0.00000  Uiso   1.00
C339   C     0.39616   0.79754   0.05032   0.00000  Uiso   1.00
C340   C     0.53396   0.87724   0.22753   0.00000  Uiso   1.00
C341   C     0.59787   0.88656   0.20640   0.00000  Uiso   1.00
C342   C     0.64455   0.87480   0.27241   0.00000  Uiso   1.00
C343   C     0.42944   0.91042   0.23016   0.00000  Uiso   1.00
C344   C     0.40547   0.94764   0.21126   0.00000  Uiso   1.00
C345   C     0.36417   0.96383   0.27951   0.00000  Uiso   1.00
H346   H     0.43156   0.83397   0.38572   0.00000  Uiso   1.00
H347   H     0.38053   0.77637   0.29036   0.00000  Uiso   1.00
H348   H     0.55094   0.82938   0.44274   0.00000  Uiso   1.00
H349   H     0.35857   0.89046   0.44760   0.00000  Uiso   1.00
H350   H     0.33133   0.72148   0.14756   0.00000  Uiso   1.00
H351   H     0.69065   0.83327   0.46887   0.00000  Uiso   1.00
H352   H     0.28501   0.96206   0.47912   0.00000  Uiso   1.00
H353   H     0.48827   0.90310   0.09999   0.00000  Uiso   1.00
H354   H     0.44035   0.84930   0.98895   0.00000  Uiso   1.00
H355   H     0.61076   0.90231   0.14132   0.00000  Uiso   1.00
H356   H     0.41840   0.96338   0.14619   0.00000  Uiso   1.00
H357   H     0.37989   0.78067   0.90292   0.00000  Uiso   1.00
H358   H     0.73921   0.89246   0.22423   0.00000  Uiso   1.00
H359   H     0.33357   0.02124   0.23448   0.00000  Uiso   1.00
O360   O     0.32309   0.71443   0.95735   0.00000  Uiso   1.00
O361   O     0.79449   0.86110   0.37891   0.00000  Uiso   1.00
O362   O     0.26230   0.03006   0.39236   0.00000  Uiso   1.00
N363   N     0.34933   0.74280   0.10522   0.00000  Uiso   1.00
N364   N     0.68527   0.84731   0.40562   0.00000  Uiso   1.00
N365   N     0.30604   0.96772   0.41522   0.00000  Uiso   1.00
N366   N     0.37545   0.77465   0.97359   0.00000  Uiso   1.00
N367   N     0.71140   0.87916   0.27398   0.00000  Uiso   1.00
N368   N     0.33217   0.99957   0.28358   0.00000  Uiso   1.00
C369   C     0.55546   0.34980   0.82025   0.00000  Uiso   1.00
C370   C     0.57532   0.32810   0.72882   0.00000  Uiso   1.00
C371   C     0.60657   0.29211   0.72527   0.00000  Uiso   1.00
C372   C     0.62056   0.27716   0.63456   0.00000  Uiso   1.00
C373   C     0.65391   0.24035   0.50538   0.00000  Uiso   1.00
C374   C     0.48273   0.35690   0.81161   0.00000  Uiso   1.00
C375   C     0.43613   0.34512   0.87767   0.00000  Uiso   1.00
C376   C     0.37217   0.35442   0.85664   0.00000  Uiso   1.00
C377   C     0.26178   0.36235   0.85602   0.00000  Uiso   1.00
C378   C     0.58725   0.39008   0.81424   0.00000  Uiso   1.00
C379   C     0.62852   0.40621   0.88254   0.00000  Uiso   1.00
C380   C     0.65256   0.44345   0.86374   0.00000  Uiso   1.00
C381   C     0.70445   0.50289   0.86722   0.00000  Uiso   1.00
C382   C     0.52473   0.38726   0.66545   0.00000  Uiso   1.00
C383   C     0.55863   0.34844   0.64474   0.00000  Uiso   1.00
C384   C     0.57257   0.33355   0.55400   0.00000  Uiso   1.00
C385   C     0.60384   0.29754   0.55032   0.00000  Uiso   1.00
C386   C     0.46604   0.37724   0.72753   0.00000  Uiso   1.00
C387   C     0.40213   0.38656   0.70640   0.00000  Uiso   1.00
C388   C     0.35545   0.37480   0.77241   0.00000  Uiso   1.00
C389   C     0.57056   0.41042   0.73016   0.00000  Uiso   1.00
C390   C     0.59453   0.44764   0.71126   0.00000  Uiso   1.00
C391   C     0.63583   0.46383   0.77951   0.00000  Uiso   1.00
H392   H     0.56844   0.33397   0.88572   0.00000  Uiso   1.00
H393   H     0.61947   0.27637   0.79036   0.00000  Uiso   1.00
H394   H     0.44906   0.32938   0.94274   0.00000  Uiso   1.00
H395   H     0.64143   0.39046   0.94760   0.00000  Uiso   1.00
H396   H     0.66867   0.22148   0.64756   0.00000  Uiso   1.00
H397   H     0.30935   0.33327   0.96887   0.00000  Uiso   1.00
H398   H     0.71499   0.46206   0.97912   0.00000  Uiso   1.00
H399   H     0.51173   0.40310   0.59999   0.00000  Uiso   1.00
H400   H     0.55965   0.34930   0.48895   0.00000  Uiso   1.00
H401   H     0.38924   0.40231   0.64132   0.00000  Uiso   1.00
H402   H     0.58160   0.46338   0.64619   0.00000  Uiso   1.00
H403   H     0.62011   0.28067   0.40292   0.00000  Uiso   1.00
H404   H     0.26079   0.39246   0.72423   0.00000  Uiso   1.00
H405   H     0.66643   0.52124   0.73448   0.00000  Uiso   1.00
O406   O     0.67691   0.21443   0.45735   0.00000  Uiso   1.00
O407   O     0.20551   0.36110   0.87891   0.00000  Uiso   1.00
O408   O     0.73770   0.53006   0.89236   0.00000  Uiso   1.00
N409   N     0.65067   0.24280   0.60522   0.00000  Uiso   1.00
N410   N     0.31473   0.34731   0.90562   0.00000  Uiso   1.00
N411   N     0.69396   0.46772   0.91522   0.00000  Uiso   1.00
N412   N     0.62455   0.27465   0.47359   0.00000  Uiso   1.00
N413   N     0.28860   0.37916   0.77398   0.00000  Uiso   1.00
N414   N     0.66783   0.49957   0.78358   0.00000  Uiso   1.00
C415   C     0.05546   0.84980   0.82025   0.00000  Uiso   1.00
C416   C     0.07532   0.82810   0.72882   0.00000  Uiso   1.00
C417   C     0.10657   0.79211   0.72527   0.00000  Uiso   1.00
C418   C     0.12056   0.77716   0.63456   0.00000  Uiso   1.00
C419   C     0.15391   0.74035   0.50538   0.00000  Uiso   1.00
C420   C     0.98273   0.85690   0.81161   0.00000  Uiso   1.00
C421   C     0.93613   0.84512   0.87767   0.00000  Uiso   1.00
C422   C     0.87217   0.85442   0.85664   0.00000  Uiso   1.00
C423   C     0.76178   0.86235   0.85602   0.00000  Uiso   1.00
C424   C     0.08725   0.89008   0.81424   0.00000  Uiso   1.00
C425   C     0.12852   0.90621   0.88254   0.00000  Uiso   1.00
C426   C     0.15256   0.94345   0.86374   0.00000  Uiso   1.00
C427   C     0.20445   0.00289   0.86722   0.00000  Uiso   1.00
C428   C     0.02473   0.88726   0.66545   0.00000  Uiso   1.00
C429   C     0.05863   0.84844   0.64474   0.00000  Uiso   1.00
C430   C     0.07257   0.83355   0.55400   0.00000  Uiso   1.00
C431   C     0.10384   0.79754   0.55032   0.00000  Uiso   1.00
C432   C     0.96604   0.87724   0.72753   0.00000  Uiso   1.00
C433   C     0.90213   0.88656   0.70640   0.00000  Uiso   1.00
C434   C     0.85545   0.87480   0.77241   0.00000  Uiso   1.00
C435   C     0.07056   0.91042   0.73016   0.00000  Uiso   1.00
C436   C     0.09453   0.94764   0.71126   0.00000  Uiso   1.00
C437   C     0.13583   0.96383   0.77951   0.00000  Uiso   1.00
H438   H     0.06844   0.83397   0.88572   0.00000  Uiso   1.00
H439   H     0.11947   0.77637   0.79036   0.00000  Uiso   1.00
H440   H     0.94906   0.82938   0.94274   0.00000  Uiso   1.00
H441   H     0.14143   0.89046   0.94760   0.00000  Uiso   1.00
H442   H     0.16867   0.72148   0.64756   0.00000  Uiso   1.00
H443   H     0.80935   0.83327   0.96887   0.00000  Uiso   1.00
H444   H     0.21499   0.96206   0.97912   0.00000  Uiso   1.00
H445   H     0.01173   0.90310   0.59999   0.00000  Uiso   1.00
H446   H     0.05965   0.84930   0.48895   0.00000  Uiso   1.00
H447   H     0.88924   0.90231   0.64132   0.00000  Uiso   1.00
H448   H     0.08160   0.96338   0.64619   0.00000  Uiso   1.00
H449   H     0.12011   0.78067   0.40292   0.00000  Uiso   1.00
H450   H     0.76079   0.89246   0.72423   0.00000  Uiso   1.00
H451   H     0.16643   0.02124   0.73448   0.00000  Uiso   1.00
O452   O     0.17691   0.71443   0.45735   0.00000  Uiso   1.00
O453   O     0.70551   0.86110   0.87891   0.00000  Uiso   1.00
O454   O     0.23770   0.03006   0.89236   0.00000  Uiso   1.00
N455   N     0.15067   0.74280   0.60522   0.00000  Uiso   1.00
N456   N     0.81473   0.84731   0.90562   0.00000  Uiso   1.00
N457   N     0.19396   0.96772   0.91522   0.00000  Uiso   1.00
N458   N     0.12455   0.77465   0.47359   0.00000  Uiso   1.00
N459   N     0.78860   0.87916   0.77398   0.00000  Uiso   1.00
N460   N     0.16783   0.99957   0.78358   0.00000  Uiso   1.00
C461   C     0.94454   0.15020   0.82025   0.00000  Uiso   1.00
C462   C     0.92468   0.17190   0.72882   0.00000  Uiso   1.00
C463   C     0.89343   0.20789   0.72527   0.00000  Uiso   1.00
C464   C     0.87944   0.22284   0.63456   0.00000  Uiso   1.00
C465   C     0.84609   0.25965   0.50538   0.00000  Uiso   1.00
C466   C     0.01727   0.14310   0.81161   0.00000  Uiso   1.00
C467   C     0.06387   0.15488   0.87767   0.00000  Uiso   1.00
C468   C     0.12783   0.14558   0.85664   0.00000  Uiso   1.00
C469   C     0.23822   0.13765   0.85602   0.00000  Uiso   1.00
C470   C     0.91275   0.10992   0.81424   0.00000  Uiso   1.00
C471   C     0.87148   0.09379   0.88254   0.00000  Uiso   1.00
C472   C     0.84744   0.05655   0.86374   0.00000  Uiso   1.00
C473   C     0.79555   0.99711   0.86722   0.00000  Uiso   1.00
C474   C     0.97527   0.11274   0.66545   0.00000  Uiso   1.00
C475   C     0.94137   0.15156   0.64474   0.00000  Uiso   1.00
C476   C     0.92743   0.16645   0.55400   0.00000  Uiso   1.00
C477   C     0.89616   0.20246   0.55032   0.00000  Uiso   1.00
C478   C     0.03396   0.12276   0.72753   0.00000  Uiso   1.00
C479   C     0.09787   0.11344   0.70640   0.00000  Uiso   1.00
C480   C     0.14455   0.12520   0.77241   0.00000  Uiso   1.00
C481   C     0.92944   0.08958   0.73016   0.00000  Uiso   1.00
C482   C     0.90547   0.05236   0.71126   0.00000  Uiso   1.00
C483   C     0.86417   0.03617   0.77951   0.00000  Uiso   1.00
H484   H     0.93156   0.16603   0.88572   0.00000  Uiso   1.00
H485   H     0.88053   0.22363   0.79036   0.00000  Uiso   1.00
H486   H     0.05094   0.17062   0.94274   0.00000  Uiso   1.00
H487   H     0.85857   0.10954   0.94760   0.00000  Uiso   1.00
H488   H     0.83133   0.27852   0.64756   0.00000  Uiso   1.00
H489   H     0.19065   0.16673   0.96887   0.00000  Uiso   1.00
H490   H     0.78501   0.03794   0.97912   0.00000  Uiso   1.00
H491   H     0.98827   0.09690   0.59999   0.00000  Uiso   1.00
H492   H     0.94035   0.15070   0.48895   0.00000  Uiso   1.00
H493   H     0.11076   0.09769   0.64132   0.00000  Uiso   1.00
H494   H     0.91840   0.03662   0.64619   0.00000  Uiso   1.00
H495   H     0.87989   0.21933   0.40292   0.00000  Uiso   1.00
H496   H     0.23921   0.10754   0.72423   0.00000  Uiso   1.00
H497   H     0.83357   0.97876   0.73448   0.00000  Uiso   1.00
O498   O     0.82309   0.28557   0.45735   0.00000  Uiso   1.00
O499   O     0.29449   0.13890   0.87891   0.00000  Uiso   1.00
O500   O     0.76230   0.96994   0.89236   0.00000  Uiso   1.00
N501   N     0.84933   0.25720   0.60522   0.00000  Uiso   1.00
N502   N     0.18527   0.15269   0.90562   0.00000  Uiso   1.00
N503   N     0.80604   0.03228   0.91522   0.00000  Uiso   1.00
N504   N     0.87545   0.22535   0.47359   0.00000  Uiso   1.00
N505   N     0.21140   0.12084   0.77398   0.00000  Uiso   1.00
N506   N     0.83217   0.00043   0.78358   0.00000  Uiso   1.00
C507   C     0.44454   0.65020   0.82025   0.00000  Uiso   1.00
C508   C     0.42468   0.67190   0.72882   0.00000  Uiso   1.00
C509   C     0.39343   0.70789   0.72527   0.00000  Uiso   1.00
C510   C     0.37944   0.72284   0.63456   0.00000  Uiso   1.00
C511   C     0.34609   0.75965   0.50538   0.00000  Uiso   1.00
C512   C     0.51727   0.64310   0.81161   0.00000  Uiso   1.00
C513   C     0.56387   0.65488   0.87767   0.00000  Uiso   1.00
C514   C     0.62783   0.64558   0.85664   0.00000  Uiso   1.00
C515   C     0.73822   0.63765   0.85602   0.00000  Uiso   1.00
C516   C     0.41275   0.60992   0.81424   0.00000  Uiso   1.00
C517   C     0.37148   0.59379   0.88254   0.00000  Uiso   1.00
C518   C     0.34744   0.55655   0.86374   0.00000  Uiso   1.00
C519   C     0.29555   0.49711   0.86722   0.00000  Uiso   1.00
C520   C     0.47527   0.61274   0.66545   0.00000  Uiso   1.00
C521   C     0.44137   0.65156   0.64474   0.00000  Uiso   1.00
C522   C     0.42743   0.66645   0.55400   0.00000  Uiso   1.00
C523   C     0.39616   0.70246   0.55032   0.00000  Uiso   1.00
C524   C     0.53396   0.62276   0.72753   0.00000  Uiso   1.00
C525   C     0.59787   0.61344   0.70640   0.00000  Uiso   1.00
C526   C     0.64455   0.62520   0.77241   0.00000  Uiso   1.00
C527   C     0.42944   0.58958   0.73016   0.00000  Uiso   1.00
C528   C     0.40547   0.55236   0.71126   0.00000  Uiso   1.00
C529   C     0.36417   0.53617   0.77951   0.00000  Uiso   1.00
H530   H     0.43156   0.66603   0.88572   0.00000  Uiso   1.00
H531   H     0.38053   0.72363   0.79036   0.00000  Uiso   1.00
H532   H     0.55094   0.67062   0.94274   0.00000  Uiso   1.00
H533   H     0.35857   0.60954   0.94760   0.00000  Uiso   1.00
H534   H     0.33133   0.77852   0.64756   0.00000  Uiso   1.00
H535   H     0.69065   0.66673   0.96887   0.00000  Uiso   1.00
H536   H     0.28501   0.53794   0.97912   0.00000  Uiso   1.00
H537   H     0.48827   0.59690   0.59999   0.00000  Uiso   1.00
H538   H     0.44035   0.65070   0.48895   0.00000  Uiso   1.00
H539   H     0.61076   0.59769   0.64132   0.00000  Uiso   1.00
H540   H     0.41840   0.53662   0.64619   0.00000  Uiso   1.00
H541   H     0.37989   0.71933   0.40292   0.00000  Uiso   1.00
H542   H     0.73921   0.60754   0.72423   0.00000  Uiso   1.00
H543   H     0.33357   0.47876   0.73448   0.00000  Uiso   1.00
O544   O     0.32309   0.78557   0.45735   0.00000  Uiso   1.00
O545   O     0.79449   0.63890   0.87891   0.00000  Uiso   1.00
O546   O     0.26230   0.46994   0.89236   0.00000  Uiso   1.00
N547   N     0.34933   0.75720   0.60522   0.00000  Uiso   1.00
N548   N     0.68527   0.65269   0.90562   0.00000  Uiso   1.00
N549   N     0.30604   0.53228   0.91522   0.00000  Uiso   1.00
N550   N     0.37545   0.72535   0.47359   0.00000  Uiso   1.00
N551   N     0.71140   0.62084   0.77398   0.00000  Uiso   1.00
N552   N     0.33217   0.50043   0.78358   0.00000  Uiso   1.00
C553   C     0.44454   0.34980   0.17975   0.00000  Uiso   1.00
C554   C     0.42468   0.32810   0.27118   0.00000  Uiso   1.00
C555   C     0.39343   0.29211   0.27473   0.00000  Uiso   1.00
C556   C     0.37944   0.27716   0.36544   0.00000  Uiso   1.00
C557   C     0.34609   0.24035   0.49462   0.00000  Uiso   1.00
C558   C     0.51727   0.35690   0.18839   0.00000  Uiso   1.00
C559   C     0.56387   0.34512   0.12233   0.00000  Uiso   1.00
C560   C     0.62783   0.35442   0.14336   0.00000  Uiso   1.00
C561   C     0.73822   0.36235   0.14398   0.00000  Uiso   1.00
C562   C     0.41275   0.39008   0.18576   0.00000  Uiso   1.00
C563   C     0.37148   0.40621   0.11746   0.00000  Uiso   1.00
C564   C     0.34744   0.44345   0.13626   0.00000  Uiso   1.00
C565   C     0.29555   0.50289   0.13278   0.00000  Uiso   1.00
C566   C     0.47527   0.38726   0.33455   0.00000  Uiso   1.00
C567   C     0.44137   0.34844   0.35526   0.00000  Uiso   1.00
C568   C     0.42743   0.33355   0.44600   0.00000  Uiso   1.00
C569   C     0.39616   0.29754   0.44968   0.00000  Uiso   1.00
C570   C     0.53396   0.37724   0.27247   0.00000  Uiso   1.00
C571   C     0.59787   0.38656   0.29360   0.00000  Uiso   1.00
C572   C     0.64455   0.37480   0.22759   0.00000  Uiso   1.00
C573   C     0.42944   0.41042   0.26984   0.00000  Uiso   1.00
C574   C     0.40547   0.44764   0.28874   0.00000  Uiso   1.00
C575   C     0.36417   0.46383   0.22049   0.00000  Uiso   1.00
H576   H     0.43156   0.33397   0.11428   0.00000  Uiso   1.00
H577   H     0.38053   0.27637   0.20964   0.00000  Uiso   1.00
H578   H     0.55094   0.32938   0.05726   0.00000  Uiso   1.00
H579   H     0.35857   0.39046   0.05240   0.00000  Uiso   1.00
H580   H     0.33133   0.22148   0.35244   0.00000  Uiso   1.00
H581   H     0.69065   0.33327   0.03113   0.00000  Uiso   1.00
H582   H     0.28501   0.46206   0.02088   0.00000  Uiso   1.00
H583   H     0.48827   0.40310   0.40001   0.00000  Uiso   1.00
H584   H     0.44035   0.34930   0.51105   0.00000  Uiso   1.00
H585   H     0.61076   0.40231   0.35868   0.00000  Uiso   1.00
H586   H     0.41840   0.46338   0.35381   0.00000  Uiso   1.00
H587   H     0.37989   0.28067   0.59708   0.00000  Uiso   1.00
H588   H     0.73921   0.39246   0.27577   0.00000  Uiso   1.00
H589   H     0.33357   0.52124   0.26552   0.00000  Uiso   1.00
O590   O     0.32309   0.21443   0.54265   0.00000  Uiso   1.00
O591   O     0.79449   0.36110   0.12109   0.00000  Uiso   1.00
O592   O     0.26230   0.53006   0.10764   0.00000  Uiso   1.00
N593   N     0.34933   0.24280   0.39478   0.00000  Uiso   1.00
N594   N     0.68527   0.34731   0.09438   0.00000  Uiso   1.00
N595   N     0.30604   0.46772   0.08478   0.00000  Uiso   1.00
N596   N     0.37545   0.27465   0.52641   0.00000  Uiso   1.00
N597   N     0.71140   0.37916   0.22602   0.00000  Uiso   1.00
N598   N     0.33217   0.49957   0.21642   0.00000  Uiso   1.00
C599   C     0.94454   0.84980   0.17975   0.00000  Uiso   1.00
C600   C     0.92468   0.82810   0.27118   0.00000  Uiso   1.00
C601   C     0.89343   0.79211   0.27473   0.00000  Uiso   1.00
C602   C     0.87944   0.77716   0.36544   0.00000  Uiso   1.00
C603   C     0.84609   0.74035   0.49462   0.00000  Uiso   1.00
C604   C     0.01727   0.85690   0.18839   0.00000  Uiso   1.00
C605   C     0.06387   0.84512   0.12233   0.00000  Uiso   1.00
C606   C     0.12783   0.85442   0.14336   0.00000  Uiso   1.00
C607   C     0.23822   0.86235   0.14398   0.00000  Uiso   1.00
C608   C     0.91275   0.89008   0.18576   0.00000  Uiso   1.00
C609   C     0.87148   0.90621   0.11746   0.00000  Uiso   1.00
C610   C     0.84744   0.94345   0.13626   0.00000  Uiso   1.00
C611   C     0.79555   0.00289   0.13278   0.00000  Uiso   1.00
C612   C     0.97527   0.88726   0.33455   0.00000  Uiso   1.00
C613   C     0.94137   0.84844   0.35526   0.00000  Uiso   1.00
C614   C     0.92743   0.83355   0.44600   0.00000  Uiso   1.00
C615   C     0.89616   0.79754   0.44968   0.00000  Uiso   1.00
C616   C     0.03396   0.87724   0.27247   0.00000  Uiso   1.00
C617   C     0.09787   0.88656   0.29360   0.00000  Uiso   1.00
C618   C     0.14455   0.87480   0.22759   0.00000  Uiso   1.00
C619   C     0.92944   0.91042   0.26984   0.00000  Uiso   1.00
C620   C     0.90547   0.94764   0.28874   0.00000  Uiso   1.00
C621   C     0.86417   0.96383   0.22049   0.00000  Uiso   1.00
H622   H     0.93156   0.83397   0.11428   0.00000  Uiso   1.00
H623   H     0.88053   0.77637   0.20964   0.00000  Uiso   1.00
H624   H     0.05094   0.82938   0.05726   0.00000  Uiso   1.00
H625   H     0.85857   0.89046   0.05240   0.00000  Uiso   1.00
H626   H     0.83133   0.72148   0.35244   0.00000  Uiso   1.00
H627   H     0.19065   0.83327   0.03113   0.00000  Uiso   1.00
H628   H     0.78501   0.96206   0.02088   0.00000  Uiso   1.00
H629   H     0.98827   0.90310   0.40001   0.00000  Uiso   1.00
H630   H     0.94035   0.84930   0.51105   0.00000  Uiso   1.00
H631   H     0.11076   0.90231   0.35868   0.00000  Uiso   1.00
H632   H     0.91840   0.96338   0.35381   0.00000  Uiso   1.00
H633   H     0.87989   0.78067   0.59708   0.00000  Uiso   1.00
H634   H     0.23921   0.89246   0.27577   0.00000  Uiso   1.00
H635   H     0.83357   0.02124   0.26552   0.00000  Uiso   1.00
O636   O     0.82309   0.71443   0.54265   0.00000  Uiso   1.00
O637   O     0.29449   0.86110   0.12109   0.00000  Uiso   1.00
O638   O     0.76230   0.03006   0.10764   0.00000  Uiso   1.00
N639   N     0.84933   0.74280   0.39478   0.00000  Uiso   1.00
N640   N     0.18527   0.84731   0.09438   0.00000  Uiso   1.00
N641   N     0.80604   0.96772   0.08478   0.00000  Uiso   1.00
N642   N     0.87545   0.77465   0.52641   0.00000  Uiso   1.00
N643   N     0.21140   0.87916   0.22602   0.00000  Uiso   1.00
N644   N     0.83217   0.99957   0.21642   0.00000  Uiso   1.00
C645   C     0.05546   0.15020   0.17975   0.00000  Uiso   1.00
C646   C     0.07532   0.17190   0.27118   0.00000  Uiso   1.00
C647   C     0.10657   0.20789   0.27473   0.00000  Uiso   1.00
C648   C     0.12056   0.22284   0.36544   0.00000  Uiso   1.00
C649   C     0.15391   0.25965   0.49462   0.00000  Uiso   1.00
C650   C     0.98273   0.14310   0.18839   0.00000  Uiso   1.00
C651   C     0.93613   0.15488   0.12233   0.00000  Uiso   1.00
C652   C     0.87217   0.14558   0.14336   0.00000  Uiso   1.00
C653   C     0.76178   0.13765   0.14398   0.00000  Uiso   1.00
C654   C     0.08725   0.10992   0.18576   0.00000  Uiso   1.00
C655   C     0.12852   0.09379   0.11746   0.00000  Uiso   1.00
C656   C     0.15256   0.05655   0.13626   0.00000  Uiso   1.00
C657   C     0.20445   0.99711   0.13278   0.00000  Uiso   1.00
C658   C     0.02473   0.11274   0.33455   0.00000  Uiso   1.00
C659   C     0.05863   0.15156   0.35526   0.00000  Uiso   1.00
C660   C     0.07257   0.16645   0.44600   0.00000  Uiso   1.00
C661   C     0.10384   0.20246   0.44968   0.00000  Uiso   1.00
C662   C     0.96604   0.12276   0.27247   0.00000  Uiso   1.00
C663   C     0.90213   0.11344   0.29360   0.00000  Uiso   1.00
C664   C     0.85545   0.12520   0.22759   0.00000  Uiso   1.00
C665   C     0.07056   0.08958   0.26984   0.00000  Uiso   1.00
C666   C     0.09453   0.05236   0.28874   0.00000  Uiso   1.00
C667   C     0.13583   0.03617   0.22049   0.00000  Uiso   1.00
H668   H     0.06844   0.16603   0.11428   0.00000  Uiso   1.00
H669   H     0.11947   0.22363   0.20964   0.00000  Uiso   1.00
H670   H     0.94906   0.17062   0.05726   0.00000  Uiso   1.00
H671   H     0.14143   0.10954   0.05240   0.00000  Uiso   1.00
H672   H     0.16867   0.27852   0.35244   0.00000  Uiso   1.00
H673   H     0.80935   0.16673   0.03113   0.00000  Uiso   1.00
H674   H     0.21499   0.03794   0.02088   0.00000  Uiso   1.00
H675   H     0.01173   0.09690   0.40001   0.00000  Uiso   1.00
H676   H     0.05965   0.15070   0.51105   0.00000  Uiso   1.00
H677   H     0.88924   0.09769   0.35868   0.00000  Uiso   1.00
H678   H     0.08160   0.03662   0.35381   0.00000  Uiso   1.00
H679   H     0.12011   0.21933   0.59708   0.00000  Uiso   1.00
H680   H     0.76079   0.10754   0.27577   0.00000  Uiso   1.00
H681   H     0.16643   0.97876   0.26552   0.00000  Uiso   1.00
O682   O     0.17691   0.28557   0.54265   0.00000  Uiso   1.00
O683   O     0.70551   0.13890   0.12109   0.00000  Uiso   1.00
O684   O     0.23770   0.96994   0.10764   0.00000  Uiso   1.00
N685   N     0.15067   0.25720   0.39478   0.00000  Uiso   1.00
N686   N     0.81473   0.15269   0.09438   0.00000  Uiso   1.00
N687   N     0.19396   0.03228   0.08478   0.00000  Uiso   1.00
N688   N     0.12455   0.22535   0.52641   0.00000  Uiso   1.00
N689   N     0.78860   0.12084   0.22602   0.00000  Uiso   1.00
N690   N     0.16783   0.00043   0.21642   0.00000  Uiso   1.00
C691   C     0.55546   0.65020   0.17975   0.00000  Uiso   1.00
C692   C     0.57532   0.67190   0.27118   0.00000  Uiso   1.00
C693   C     0.60657   0.70789   0.27473   0.00000  Uiso   1.00
C694   C     0.62056   0.72284   0.36544   0.00000  Uiso   1.00
C695   C     0.65391   0.75965   0.49462   0.00000  Uiso   1.00
C696   C     0.48273   0.64310   0.18839   0.00000  Uiso   1.00
C697   C     0.43613   0.65488   0.12233   0.00000  Uiso   1.00
C698   C     0.37217   0.64558   0.14336   0.00000  Uiso   1.00
C699   C     0.26178   0.63765   0.14398   0.00000  Uiso   1.00
C700   C     0.58725   0.60992   0.18576   0.00000  Uiso   1.00
C701   C     0.62852   0.59379   0.11746   0.00000  Uiso   1.00
C702   C     0.65256   0.55655   0.13626   0.00000  Uiso   1.00
C703   C     0.70445   0.49711   0.13278   0.00000  Uiso   1.00
C704   C     0.52473   0.61274   0.33455   0.00000  Uiso   1.00
C705   C     0.55863   0.65156   0.35526   0.00000  Uiso   1.00
C706   C     0.57257   0.66645   0.44600   0.00000  Uiso   1.00
C707   C     0.60384   0.70246   0.44968   0.00000  Uiso   1.00
C708   C     0.46604   0.62276   0.27247   0.00000  Uiso   1.00
C709   C     0.40213   0.61344   0.29360   0.00000  Uiso   1.00
C710   C     0.35545   0.62520   0.22759   0.00000  Uiso   1.00
C711   C     0.57056   0.58958   0.26984   0.00000  Uiso   1.00
C712   C     0.59453   0.55236   0.28874   0.00000  Uiso   1.00
C713   C     0.63583   0.53617   0.22049   0.00000  Uiso   1.00
H714   H     0.56844   0.66603   0.11428   0.00000  Uiso   1.00
H715   H     0.61947   0.72363   0.20964   0.00000  Uiso   1.00
H716   H     0.44906   0.67062   0.05726   0.00000  Uiso   1.00
H717   H     0.64143   0.60954   0.05240   0.00000  Uiso   1.00
H718   H     0.66867   0.77852   0.35244   0.00000  Uiso   1.00
H719   H     0.30935   0.66673   0.03113   0.00000  Uiso   1.00
H720   H     0.71499   0.53794   0.02088   0.00000  Uiso   1.00
H721   H     0.51173   0.59690   0.40001   0.00000  Uiso   1.00
H722   H     0.55965   0.65070   0.51105   0.00000  Uiso   1.00
H723   H     0.38924   0.59769   0.35868   0.00000  Uiso   1.00
H724   H     0.58160   0.53662   0.35381   0.00000  Uiso   1.00
H725   H     0.62011   0.71933   0.59708   0.00000  Uiso   1.00
H726   H     0.26079   0.60754   0.27577   0.00000  Uiso   1.00
H727   H     0.66643   0.47876   0.26552   0.00000  Uiso   1.00
O728   O     0.67691   0.78557   0.54265   0.00000  Uiso   1.00
O729   O     0.20551   0.63890   0.12109   0.00000  Uiso   1.00
O730   O     0.73770   0.46994   0.10764   0.00000  Uiso   1.00
N731   N     0.65067   0.75720   0.39478   0.00000  Uiso   1.00
N732   N     0.31473   0.65269   0.09438   0.00000  Uiso   1.00
N733   N     0.69396   0.53228   0.08478   0.00000  Uiso   1.00
N734   N     0.62455   0.72535   0.52641   0.00000  Uiso   1.00
N735   N     0.28860   0.62084   0.22602   0.00000  Uiso   1.00
N736   N     0.66783   0.50043   0.21642   0.00000  Uiso   1.00
