data_job_01304
_audit_creation_date              2018-12-19
_audit_creation_method            'Materials Studio'
_symmetry_space_group_name_H-M    'P1'
_symmetry_Int_Tables_number       1
_symmetry_cell_setting            triclinic
loop_
_symmetry_equiv_pos_as_xyz
  x,y,z
_cell_length_a                    16.7149
_cell_length_b                    16.7149
_cell_length_c                    32.6313
_cell_angle_alpha                 90.0000
_cell_angle_beta                  90.0000
_cell_angle_gamma                 90.0000
loop_
_atom_site_label
_atom_site_type_symbol
_atom_site_fract_x
_atom_site_fract_y
_atom_site_fract_z
_atom_site_U_iso_or_equiv
_atom_site_adp_type
_atom_site_occupancy
C1     C     0.14230   0.52858   0.97491   0.00000  Uiso   1.00
C2     C     0.08687   0.60084   0.97220   0.00000  Uiso   1.00
C3     C     0.02195   0.60852   0.94598   0.00000  Uiso   1.00
C4     C     0.97873   0.67932   0.94818   0.00000  Uiso   1.00
C5     C     0.88948   0.78229   0.93979   0.00000  Uiso   1.00
C6     C     0.22662   0.56041   0.96767   0.00000  Uiso   1.00
C7     C     0.27921   0.53409   0.93765   0.00000  Uiso   1.00
C8     C     0.35364   0.57084   0.93605   0.00000  Uiso   1.00
C9     C     0.48139   0.61100   0.92065   0.00000  Uiso   1.00
C10    C     0.13991   0.50128   0.01948   0.00000  Uiso   1.00
C11    C     0.11962   0.42523   0.03302   0.00000  Uiso   1.00
C12    C     0.12106   0.41220   0.07503   0.00000  Uiso   1.00
C13    C     0.11418   0.36055   0.14007   0.00000  Uiso   1.00
C14    C     0.18097   0.64065   0.02545   0.00000  Uiso   1.00
C15    C     0.10787   0.66172   0.99965   0.00000  Uiso   1.00
C16    C     0.06473   0.73252   0.00190   0.00000  Uiso   1.00
C17    C     0.99976   0.74031   0.97569   0.00000  Uiso   1.00
C18    C     0.24763   0.62129   0.99513   0.00000  Uiso   1.00
C19    C     0.32199   0.65809   0.99357   0.00000  Uiso   1.00
C20    C     0.37468   0.63183   0.96355   0.00000  Uiso   1.00
C21    C     0.16091   0.56216   0.04693   0.00000  Uiso   1.00
C22    C     0.16239   0.54924   0.08894   0.00000  Uiso   1.00
C23    C     0.14210   0.47319   0.10254   0.00000  Uiso   1.00
H24    H     0.12595   0.48118   0.95353   0.00000  Uiso   1.00
H25    H     0.00572   0.56140   0.92473   0.00000  Uiso   1.00
H26    H     0.26295   0.48697   0.91641   0.00000  Uiso   1.00
H27    H     0.10337   0.37814   0.01176   0.00000  Uiso   1.00
H28    H     0.88170   0.67720   0.90490   0.00000  Uiso   1.00
H29    H     0.42408   0.52024   0.88736   0.00000  Uiso   1.00
H30    H     0.08759   0.29074   0.08843   0.00000  Uiso   1.00
H31    H     0.19732   0.68805   0.04682   0.00000  Uiso   1.00
H32    H     0.08100   0.77962   0.02315   0.00000  Uiso   1.00
H33    H     0.33823   0.70519   0.01482   0.00000  Uiso   1.00
H34    H     0.17865   0.59636   0.11017   0.00000  Uiso   1.00
H35    H     0.94280   0.85432   0.98478   0.00000  Uiso   1.00
H36    H     0.48519   0.69735   0.96724   0.00000  Uiso   1.00
H37    H     0.14869   0.46786   0.16830   0.00000  Uiso   1.00
O38    O     0.83446   0.82227   0.92757   0.00000  Uiso   1.00
O39    O     0.54605   0.61634   0.90457   0.00000  Uiso   1.00
O40    O     0.10457   0.31525   0.16836   0.00000  Uiso   1.00
N41    N     0.91204   0.70631   0.92696   0.00000  Uiso   1.00
N42    N     0.41913   0.55957   0.91055   0.00000  Uiso   1.00
N43    N     0.10455   0.34500   0.09853   0.00000  Uiso   1.00
N44    N     0.94491   0.80161   0.96994   0.00000  Uiso   1.00
N45    N     0.45200   0.65487   0.95353   0.00000  Uiso   1.00
N46    N     0.13743   0.44031   0.14151   0.00000  Uiso   1.00
C47    C     0.64230   0.02858   0.47491   0.00000  Uiso   1.00
C48    C     0.58687   0.10084   0.47220   0.00000  Uiso   1.00
C49    C     0.52195   0.10852   0.44598   0.00000  Uiso   1.00
C50    C     0.47873   0.17932   0.44818   0.00000  Uiso   1.00
C51    C     0.38948   0.28229   0.43979   0.00000  Uiso   1.00
C52    C     0.72662   0.06041   0.46767   0.00000  Uiso   1.00
C53    C     0.77921   0.03409   0.43765   0.00000  Uiso   1.00
C54    C     0.85364   0.07084   0.43605   0.00000  Uiso   1.00
C55    C     0.98139   0.11100   0.42065   0.00000  Uiso   1.00
C56    C     0.63991   0.00128   0.51948   0.00000  Uiso   1.00
C57    C     0.61962   0.92523   0.53302   0.00000  Uiso   1.00
C58    C     0.62106   0.91220   0.57503   0.00000  Uiso   1.00
C59    C     0.61418   0.86055   0.64007   0.00000  Uiso   1.00
C60    C     0.68097   0.14065   0.52545   0.00000  Uiso   1.00
C61    C     0.60787   0.16172   0.49965   0.00000  Uiso   1.00
C62    C     0.56473   0.23252   0.50190   0.00000  Uiso   1.00
C63    C     0.49976   0.24031   0.47569   0.00000  Uiso   1.00
C64    C     0.74763   0.12129   0.49513   0.00000  Uiso   1.00
C65    C     0.82199   0.15809   0.49357   0.00000  Uiso   1.00
C66    C     0.87468   0.13183   0.46355   0.00000  Uiso   1.00
C67    C     0.66091   0.06216   0.54693   0.00000  Uiso   1.00
C68    C     0.66239   0.04924   0.58894   0.00000  Uiso   1.00
C69    C     0.64210   0.97319   0.60254   0.00000  Uiso   1.00
H70    H     0.62595   0.98118   0.45353   0.00000  Uiso   1.00
H71    H     0.50572   0.06140   0.42473   0.00000  Uiso   1.00
H72    H     0.76295   0.98697   0.41641   0.00000  Uiso   1.00
H73    H     0.60337   0.87814   0.51176   0.00000  Uiso   1.00
H74    H     0.38170   0.17720   0.40490   0.00000  Uiso   1.00
H75    H     0.92408   0.02024   0.38736   0.00000  Uiso   1.00
H76    H     0.58759   0.79074   0.58843   0.00000  Uiso   1.00
H77    H     0.69732   0.18805   0.54682   0.00000  Uiso   1.00
H78    H     0.58100   0.27962   0.52315   0.00000  Uiso   1.00
H79    H     0.83823   0.20519   0.51482   0.00000  Uiso   1.00
H80    H     0.67865   0.09636   0.61017   0.00000  Uiso   1.00
H81    H     0.44280   0.35432   0.48478   0.00000  Uiso   1.00
H82    H     0.98519   0.19735   0.46724   0.00000  Uiso   1.00
H83    H     0.64869   0.96786   0.66830   0.00000  Uiso   1.00
O84    O     0.33446   0.32227   0.42757   0.00000  Uiso   1.00
O85    O     0.04605   0.11634   0.40457   0.00000  Uiso   1.00
O86    O     0.60457   0.81525   0.66836   0.00000  Uiso   1.00
N87    N     0.41204   0.20631   0.42696   0.00000  Uiso   1.00
N88    N     0.91913   0.05957   0.41055   0.00000  Uiso   1.00
N89    N     0.60455   0.84500   0.59853   0.00000  Uiso   1.00
N90    N     0.44491   0.30161   0.46994   0.00000  Uiso   1.00
N91    N     0.95200   0.15487   0.45353   0.00000  Uiso   1.00
N92    N     0.63743   0.94031   0.64151   0.00000  Uiso   1.00
C93    C     0.85770   0.47142   0.97491   0.00000  Uiso   1.00
C94    C     0.91313   0.39916   0.97220   0.00000  Uiso   1.00
C95    C     0.97805   0.39148   0.94598   0.00000  Uiso   1.00
C96    C     0.02127   0.32068   0.94818   0.00000  Uiso   1.00
C97    C     0.11052   0.21771   0.93979   0.00000  Uiso   1.00
C98    C     0.77338   0.43959   0.96767   0.00000  Uiso   1.00
C99    C     0.72079   0.46591   0.93765   0.00000  Uiso   1.00
C100   C     0.64636   0.42916   0.93605   0.00000  Uiso   1.00
C101   C     0.51861   0.38900   0.92065   0.00000  Uiso   1.00
C102   C     0.86009   0.49872   0.01948   0.00000  Uiso   1.00
C103   C     0.88038   0.57477   0.03302   0.00000  Uiso   1.00
C104   C     0.87894   0.58780   0.07503   0.00000  Uiso   1.00
C105   C     0.88582   0.63945   0.14007   0.00000  Uiso   1.00
C106   C     0.81903   0.35935   0.02545   0.00000  Uiso   1.00
C107   C     0.89213   0.33828   0.99965   0.00000  Uiso   1.00
C108   C     0.93527   0.26748   0.00190   0.00000  Uiso   1.00
C109   C     0.00024   0.25969   0.97569   0.00000  Uiso   1.00
C110   C     0.75237   0.37871   0.99513   0.00000  Uiso   1.00
C111   C     0.67801   0.34191   0.99357   0.00000  Uiso   1.00
C112   C     0.62532   0.36817   0.96355   0.00000  Uiso   1.00
C113   C     0.83909   0.43784   0.04693   0.00000  Uiso   1.00
C114   C     0.83761   0.45076   0.08894   0.00000  Uiso   1.00
C115   C     0.85790   0.52681   0.10254   0.00000  Uiso   1.00
H116   H     0.87405   0.51882   0.95353   0.00000  Uiso   1.00
H117   H     0.99428   0.43860   0.92473   0.00000  Uiso   1.00
H118   H     0.73705   0.51303   0.91641   0.00000  Uiso   1.00
H119   H     0.89663   0.62186   0.01176   0.00000  Uiso   1.00
H120   H     0.11830   0.32280   0.90490   0.00000  Uiso   1.00
H121   H     0.57592   0.47976   0.88736   0.00000  Uiso   1.00
H122   H     0.91241   0.70926   0.08843   0.00000  Uiso   1.00
H123   H     0.80268   0.31195   0.04682   0.00000  Uiso   1.00
H124   H     0.91900   0.22038   0.02315   0.00000  Uiso   1.00
H125   H     0.66177   0.29481   0.01482   0.00000  Uiso   1.00
H126   H     0.82135   0.40364   0.11017   0.00000  Uiso   1.00
H127   H     0.05720   0.14568   0.98478   0.00000  Uiso   1.00
H128   H     0.51481   0.30265   0.96724   0.00000  Uiso   1.00
H129   H     0.85131   0.53214   0.16830   0.00000  Uiso   1.00
O130   O     0.16554   0.17773   0.92757   0.00000  Uiso   1.00
O131   O     0.45395   0.38366   0.90457   0.00000  Uiso   1.00
O132   O     0.89543   0.68475   0.16836   0.00000  Uiso   1.00
N133   N     0.08796   0.29369   0.92696   0.00000  Uiso   1.00
N134   N     0.58087   0.44043   0.91055   0.00000  Uiso   1.00
N135   N     0.89545   0.65500   0.09853   0.00000  Uiso   1.00
N136   N     0.05509   0.19839   0.96994   0.00000  Uiso   1.00
N137   N     0.54800   0.34513   0.95353   0.00000  Uiso   1.00
N138   N     0.86257   0.55969   0.14151   0.00000  Uiso   1.00
C139   C     0.35770   0.97142   0.47491   0.00000  Uiso   1.00
C140   C     0.41313   0.89916   0.47220   0.00000  Uiso   1.00
C141   C     0.47805   0.89148   0.44598   0.00000  Uiso   1.00
C142   C     0.52127   0.82068   0.44818   0.00000  Uiso   1.00
C143   C     0.61052   0.71771   0.43979   0.00000  Uiso   1.00
C144   C     0.27338   0.93959   0.46767   0.00000  Uiso   1.00
C145   C     0.22079   0.96591   0.43765   0.00000  Uiso   1.00
C146   C     0.14636   0.92916   0.43605   0.00000  Uiso   1.00
C147   C     0.01861   0.88900   0.42065   0.00000  Uiso   1.00
C148   C     0.36009   0.99872   0.51948   0.00000  Uiso   1.00
C149   C     0.38038   0.07477   0.53302   0.00000  Uiso   1.00
C150   C     0.37894   0.08780   0.57503   0.00000  Uiso   1.00
C151   C     0.38582   0.13945   0.64007   0.00000  Uiso   1.00
C152   C     0.31903   0.85935   0.52545   0.00000  Uiso   1.00
C153   C     0.39213   0.83828   0.49965   0.00000  Uiso   1.00
C154   C     0.43527   0.76748   0.50190   0.00000  Uiso   1.00
C155   C     0.50024   0.75969   0.47569   0.00000  Uiso   1.00
C156   C     0.25237   0.87871   0.49513   0.00000  Uiso   1.00
C157   C     0.17801   0.84191   0.49357   0.00000  Uiso   1.00
C158   C     0.12532   0.86817   0.46355   0.00000  Uiso   1.00
C159   C     0.33909   0.93784   0.54693   0.00000  Uiso   1.00
C160   C     0.33761   0.95076   0.58894   0.00000  Uiso   1.00
C161   C     0.35790   0.02681   0.60254   0.00000  Uiso   1.00
H162   H     0.37405   0.01882   0.45353   0.00000  Uiso   1.00
H163   H     0.49428   0.93860   0.42473   0.00000  Uiso   1.00
H164   H     0.23705   0.01303   0.41641   0.00000  Uiso   1.00
H165   H     0.39663   0.12186   0.51176   0.00000  Uiso   1.00
H166   H     0.61830   0.82280   0.40490   0.00000  Uiso   1.00
H167   H     0.07592   0.97976   0.38736   0.00000  Uiso   1.00
H168   H     0.41241   0.20926   0.58843   0.00000  Uiso   1.00
H169   H     0.30268   0.81195   0.54682   0.00000  Uiso   1.00
H170   H     0.41900   0.72038   0.52315   0.00000  Uiso   1.00
H171   H     0.16177   0.79481   0.51482   0.00000  Uiso   1.00
H172   H     0.32135   0.90364   0.61017   0.00000  Uiso   1.00
H173   H     0.55720   0.64568   0.48478   0.00000  Uiso   1.00
H174   H     0.01481   0.80265   0.46724   0.00000  Uiso   1.00
H175   H     0.35131   0.03214   0.66830   0.00000  Uiso   1.00
O176   O     0.66554   0.67773   0.42757   0.00000  Uiso   1.00
O177   O     0.95395   0.88366   0.40457   0.00000  Uiso   1.00
O178   O     0.39543   0.18475   0.66836   0.00000  Uiso   1.00
N179   N     0.58796   0.79369   0.42696   0.00000  Uiso   1.00
N180   N     0.08087   0.94043   0.41055   0.00000  Uiso   1.00
N181   N     0.39545   0.15500   0.59853   0.00000  Uiso   1.00
N182   N     0.55509   0.69839   0.46994   0.00000  Uiso   1.00
N183   N     0.04800   0.84513   0.45353   0.00000  Uiso   1.00
N184   N     0.36257   0.05969   0.64151   0.00000  Uiso   1.00
C185   C     0.52858   0.85770   0.02509   0.00000  Uiso   1.00
C186   C     0.60084   0.91313   0.02780   0.00000  Uiso   1.00
C187   C     0.60852   0.97805   0.05402   0.00000  Uiso   1.00
C188   C     0.67932   0.02127   0.05182   0.00000  Uiso   1.00
C189   C     0.78229   0.11052   0.06021   0.00000  Uiso   1.00
C190   C     0.56041   0.77338   0.03233   0.00000  Uiso   1.00
C191   C     0.53409   0.72079   0.06235   0.00000  Uiso   1.00
C192   C     0.57084   0.64636   0.06395   0.00000  Uiso   1.00
C193   C     0.61100   0.51861   0.07935   0.00000  Uiso   1.00
C194   C     0.50128   0.86009   0.98052   0.00000  Uiso   1.00
C195   C     0.42523   0.88038   0.96698   0.00000  Uiso   1.00
C196   C     0.41220   0.87894   0.92497   0.00000  Uiso   1.00
C197   C     0.36055   0.88582   0.85993   0.00000  Uiso   1.00
C198   C     0.64065   0.81903   0.97455   0.00000  Uiso   1.00
C199   C     0.66172   0.89213   0.00035   0.00000  Uiso   1.00
C200   C     0.73252   0.93527   0.99810   0.00000  Uiso   1.00
C201   C     0.74031   0.00024   0.02431   0.00000  Uiso   1.00
C202   C     0.62129   0.75237   0.00487   0.00000  Uiso   1.00
C203   C     0.65809   0.67801   0.00643   0.00000  Uiso   1.00
C204   C     0.63183   0.62532   0.03645   0.00000  Uiso   1.00
C205   C     0.56216   0.83909   0.95307   0.00000  Uiso   1.00
C206   C     0.54924   0.83761   0.91106   0.00000  Uiso   1.00
C207   C     0.47319   0.85790   0.89746   0.00000  Uiso   1.00
H208   H     0.48118   0.87405   0.04647   0.00000  Uiso   1.00
H209   H     0.56140   0.99428   0.07527   0.00000  Uiso   1.00
H210   H     0.48697   0.73705   0.08359   0.00000  Uiso   1.00
H211   H     0.37814   0.89663   0.98824   0.00000  Uiso   1.00
H212   H     0.67720   0.11830   0.09510   0.00000  Uiso   1.00
H213   H     0.52024   0.57592   0.11264   0.00000  Uiso   1.00
H214   H     0.29074   0.91241   0.91157   0.00000  Uiso   1.00
H215   H     0.68805   0.80268   0.95318   0.00000  Uiso   1.00
H216   H     0.77962   0.91900   0.97685   0.00000  Uiso   1.00
H217   H     0.70519   0.66177   0.98518   0.00000  Uiso   1.00
H218   H     0.59636   0.82135   0.88983   0.00000  Uiso   1.00
H219   H     0.85432   0.05720   0.01522   0.00000  Uiso   1.00
H220   H     0.69735   0.51481   0.03276   0.00000  Uiso   1.00
H221   H     0.46786   0.85131   0.83170   0.00000  Uiso   1.00
O222   O     0.82227   0.16554   0.07243   0.00000  Uiso   1.00
O223   O     0.61634   0.45395   0.09543   0.00000  Uiso   1.00
O224   O     0.31525   0.89543   0.83164   0.00000  Uiso   1.00
N225   N     0.70631   0.08796   0.07304   0.00000  Uiso   1.00
N226   N     0.55957   0.58087   0.08945   0.00000  Uiso   1.00
N227   N     0.34500   0.89545   0.90147   0.00000  Uiso   1.00
N228   N     0.80161   0.05509   0.03006   0.00000  Uiso   1.00
N229   N     0.65487   0.54800   0.04647   0.00000  Uiso   1.00
N230   N     0.44031   0.86257   0.85849   0.00000  Uiso   1.00
C231   C     0.02858   0.35770   0.52509   0.00000  Uiso   1.00
C232   C     0.10084   0.41313   0.52780   0.00000  Uiso   1.00
C233   C     0.10852   0.47805   0.55402   0.00000  Uiso   1.00
C234   C     0.17932   0.52127   0.55182   0.00000  Uiso   1.00
C235   C     0.28229   0.61052   0.56021   0.00000  Uiso   1.00
C236   C     0.06041   0.27338   0.53233   0.00000  Uiso   1.00
C237   C     0.03409   0.22079   0.56235   0.00000  Uiso   1.00
C238   C     0.07084   0.14636   0.56395   0.00000  Uiso   1.00
C239   C     0.11100   0.01861   0.57935   0.00000  Uiso   1.00
C240   C     0.00128   0.36009   0.48052   0.00000  Uiso   1.00
C241   C     0.92523   0.38038   0.46698   0.00000  Uiso   1.00
C242   C     0.91220   0.37894   0.42497   0.00000  Uiso   1.00
C243   C     0.86055   0.38582   0.35993   0.00000  Uiso   1.00
C244   C     0.14065   0.31903   0.47455   0.00000  Uiso   1.00
C245   C     0.16172   0.39213   0.50035   0.00000  Uiso   1.00
C246   C     0.23252   0.43527   0.49810   0.00000  Uiso   1.00
C247   C     0.24031   0.50024   0.52431   0.00000  Uiso   1.00
C248   C     0.12129   0.25237   0.50487   0.00000  Uiso   1.00
C249   C     0.15809   0.17801   0.50643   0.00000  Uiso   1.00
C250   C     0.13183   0.12532   0.53645   0.00000  Uiso   1.00
C251   C     0.06216   0.33909   0.45307   0.00000  Uiso   1.00
C252   C     0.04924   0.33761   0.41106   0.00000  Uiso   1.00
C253   C     0.97319   0.35790   0.39746   0.00000  Uiso   1.00
H254   H     0.98118   0.37405   0.54647   0.00000  Uiso   1.00
H255   H     0.06140   0.49428   0.57527   0.00000  Uiso   1.00
H256   H     0.98697   0.23705   0.58359   0.00000  Uiso   1.00
H257   H     0.87814   0.39663   0.48824   0.00000  Uiso   1.00
H258   H     0.17720   0.61830   0.59510   0.00000  Uiso   1.00
H259   H     0.02024   0.07592   0.61264   0.00000  Uiso   1.00
H260   H     0.79074   0.41241   0.41157   0.00000  Uiso   1.00
H261   H     0.18805   0.30268   0.45318   0.00000  Uiso   1.00
H262   H     0.27962   0.41900   0.47685   0.00000  Uiso   1.00
H263   H     0.20519   0.16177   0.48518   0.00000  Uiso   1.00
H264   H     0.09636   0.32135   0.38983   0.00000  Uiso   1.00
H265   H     0.35432   0.55720   0.51522   0.00000  Uiso   1.00
H266   H     0.19735   0.01481   0.53276   0.00000  Uiso   1.00
H267   H     0.96786   0.35131   0.33170   0.00000  Uiso   1.00
O268   O     0.32227   0.66554   0.57243   0.00000  Uiso   1.00
O269   O     0.11634   0.95395   0.59543   0.00000  Uiso   1.00
O270   O     0.81525   0.39543   0.33164   0.00000  Uiso   1.00
N271   N     0.20631   0.58796   0.57304   0.00000  Uiso   1.00
N272   N     0.05957   0.08087   0.58945   0.00000  Uiso   1.00
N273   N     0.84500   0.39545   0.40147   0.00000  Uiso   1.00
N274   N     0.30161   0.55509   0.53006   0.00000  Uiso   1.00
N275   N     0.15487   0.04800   0.54647   0.00000  Uiso   1.00
N276   N     0.94031   0.36257   0.35849   0.00000  Uiso   1.00
C277   C     0.47142   0.14230   0.02509   0.00000  Uiso   1.00
C278   C     0.39916   0.08687   0.02780   0.00000  Uiso   1.00
C279   C     0.39148   0.02195   0.05402   0.00000  Uiso   1.00
C280   C     0.32068   0.97873   0.05182   0.00000  Uiso   1.00
C281   C     0.21771   0.88948   0.06021   0.00000  Uiso   1.00
C282   C     0.43959   0.22662   0.03233   0.00000  Uiso   1.00
C283   C     0.46591   0.27921   0.06235   0.00000  Uiso   1.00
C284   C     0.42916   0.35364   0.06395   0.00000  Uiso   1.00
C285   C     0.38900   0.48139   0.07935   0.00000  Uiso   1.00
C286   C     0.49872   0.13991   0.98052   0.00000  Uiso   1.00
C287   C     0.57477   0.11962   0.96698   0.00000  Uiso   1.00
C288   C     0.58780   0.12106   0.92497   0.00000  Uiso   1.00
C289   C     0.63945   0.11418   0.85993   0.00000  Uiso   1.00
C290   C     0.35935   0.18097   0.97455   0.00000  Uiso   1.00
C291   C     0.33828   0.10787   0.00035   0.00000  Uiso   1.00
C292   C     0.26748   0.06473   0.99810   0.00000  Uiso   1.00
C293   C     0.25969   0.99976   0.02431   0.00000  Uiso   1.00
C294   C     0.37871   0.24763   0.00487   0.00000  Uiso   1.00
C295   C     0.34191   0.32199   0.00643   0.00000  Uiso   1.00
C296   C     0.36817   0.37468   0.03645   0.00000  Uiso   1.00
C297   C     0.43784   0.16091   0.95307   0.00000  Uiso   1.00
C298   C     0.45076   0.16239   0.91106   0.00000  Uiso   1.00
C299   C     0.52681   0.14210   0.89746   0.00000  Uiso   1.00
H300   H     0.51882   0.12595   0.04647   0.00000  Uiso   1.00
H301   H     0.43860   0.00572   0.07527   0.00000  Uiso   1.00
H302   H     0.51303   0.26295   0.08359   0.00000  Uiso   1.00
H303   H     0.62186   0.10337   0.98824   0.00000  Uiso   1.00
H304   H     0.32280   0.88170   0.09510   0.00000  Uiso   1.00
H305   H     0.47976   0.42408   0.11264   0.00000  Uiso   1.00
H306   H     0.70926   0.08759   0.91157   0.00000  Uiso   1.00
H307   H     0.31195   0.19732   0.95318   0.00000  Uiso   1.00
H308   H     0.22038   0.08100   0.97685   0.00000  Uiso   1.00
H309   H     0.29481   0.33823   0.98518   0.00000  Uiso   1.00
H310   H     0.40364   0.17865   0.88983   0.00000  Uiso   1.00
H311   H     0.14568   0.94280   0.01522   0.00000  Uiso   1.00
H312   H     0.30265   0.48519   0.03276   0.00000  Uiso   1.00
H313   H     0.53214   0.14869   0.83170   0.00000  Uiso   1.00
O314   O     0.17773   0.83446   0.07243   0.00000  Uiso   1.00
O315   O     0.38366   0.54605   0.09543   0.00000  Uiso   1.00
O316   O     0.68475   0.10457   0.83164   0.00000  Uiso   1.00
N317   N     0.29369   0.91204   0.07304   0.00000  Uiso   1.00
N318   N     0.44043   0.41913   0.08945   0.00000  Uiso   1.00
N319   N     0.65500   0.10455   0.90147   0.00000  Uiso   1.00
N320   N     0.19839   0.94491   0.03006   0.00000  Uiso   1.00
N321   N     0.34513   0.45200   0.04647   0.00000  Uiso   1.00
N322   N     0.55969   0.13743   0.85849   0.00000  Uiso   1.00
C323   C     0.97142   0.64230   0.52509   0.00000  Uiso   1.00
C324   C     0.89916   0.58687   0.52780   0.00000  Uiso   1.00
C325   C     0.89148   0.52195   0.55402   0.00000  Uiso   1.00
C326   C     0.82068   0.47873   0.55182   0.00000  Uiso   1.00
C327   C     0.71771   0.38948   0.56021   0.00000  Uiso   1.00
C328   C     0.93959   0.72662   0.53233   0.00000  Uiso   1.00
C329   C     0.96591   0.77921   0.56235   0.00000  Uiso   1.00
C330   C     0.92916   0.85364   0.56395   0.00000  Uiso   1.00
C331   C     0.88900   0.98139   0.57935   0.00000  Uiso   1.00
C332   C     0.99872   0.63991   0.48052   0.00000  Uiso   1.00
C333   C     0.07477   0.61962   0.46698   0.00000  Uiso   1.00
C334   C     0.08780   0.62106   0.42497   0.00000  Uiso   1.00
C335   C     0.13945   0.61418   0.35993   0.00000  Uiso   1.00
C336   C     0.85935   0.68097   0.47455   0.00000  Uiso   1.00
C337   C     0.83828   0.60787   0.50035   0.00000  Uiso   1.00
C338   C     0.76748   0.56473   0.49810   0.00000  Uiso   1.00
C339   C     0.75969   0.49976   0.52431   0.00000  Uiso   1.00
C340   C     0.87871   0.74763   0.50487   0.00000  Uiso   1.00
C341   C     0.84191   0.82199   0.50643   0.00000  Uiso   1.00
C342   C     0.86817   0.87468   0.53645   0.00000  Uiso   1.00
C343   C     0.93784   0.66091   0.45307   0.00000  Uiso   1.00
C344   C     0.95076   0.66239   0.41106   0.00000  Uiso   1.00
C345   C     0.02681   0.64210   0.39746   0.00000  Uiso   1.00
H346   H     0.01882   0.62595   0.54647   0.00000  Uiso   1.00
H347   H     0.93860   0.50572   0.57527   0.00000  Uiso   1.00
H348   H     0.01303   0.76295   0.58359   0.00000  Uiso   1.00
H349   H     0.12186   0.60337   0.48824   0.00000  Uiso   1.00
H350   H     0.82280   0.38170   0.59510   0.00000  Uiso   1.00
H351   H     0.97976   0.92408   0.61264   0.00000  Uiso   1.00
H352   H     0.20926   0.58759   0.41157   0.00000  Uiso   1.00
H353   H     0.81195   0.69732   0.45318   0.00000  Uiso   1.00
H354   H     0.72038   0.58100   0.47685   0.00000  Uiso   1.00
H355   H     0.79481   0.83823   0.48518   0.00000  Uiso   1.00
H356   H     0.90364   0.67865   0.38983   0.00000  Uiso   1.00
H357   H     0.64568   0.44280   0.51522   0.00000  Uiso   1.00
H358   H     0.80265   0.98519   0.53276   0.00000  Uiso   1.00
H359   H     0.03214   0.64869   0.33170   0.00000  Uiso   1.00
O360   O     0.67773   0.33446   0.57243   0.00000  Uiso   1.00
O361   O     0.88366   0.04605   0.59543   0.00000  Uiso   1.00
O362   O     0.18475   0.60457   0.33164   0.00000  Uiso   1.00
N363   N     0.79369   0.41204   0.57304   0.00000  Uiso   1.00
N364   N     0.94043   0.91913   0.58945   0.00000  Uiso   1.00
N365   N     0.15500   0.60455   0.40147   0.00000  Uiso   1.00
N366   N     0.69839   0.44491   0.53006   0.00000  Uiso   1.00
N367   N     0.84513   0.95200   0.54647   0.00000  Uiso   1.00
N368   N     0.05969   0.63743   0.35849   0.00000  Uiso   1.00
C369   C     0.35770   0.52858   0.77509   0.00000  Uiso   1.00
C370   C     0.41313   0.60084   0.77780   0.00000  Uiso   1.00
C371   C     0.47805   0.60852   0.80402   0.00000  Uiso   1.00
C372   C     0.52127   0.67932   0.80182   0.00000  Uiso   1.00
C373   C     0.61052   0.78229   0.81021   0.00000  Uiso   1.00
C374   C     0.27338   0.56041   0.78233   0.00000  Uiso   1.00
C375   C     0.22079   0.53409   0.81235   0.00000  Uiso   1.00
C376   C     0.14636   0.57084   0.81395   0.00000  Uiso   1.00
C377   C     0.01861   0.61100   0.82935   0.00000  Uiso   1.00
C378   C     0.36009   0.50128   0.73052   0.00000  Uiso   1.00
C379   C     0.38038   0.42523   0.71698   0.00000  Uiso   1.00
C380   C     0.37894   0.41220   0.67497   0.00000  Uiso   1.00
C381   C     0.38582   0.36055   0.60993   0.00000  Uiso   1.00
C382   C     0.31903   0.64065   0.72455   0.00000  Uiso   1.00
C383   C     0.39213   0.66172   0.75035   0.00000  Uiso   1.00
C384   C     0.43527   0.73252   0.74810   0.00000  Uiso   1.00
C385   C     0.50024   0.74031   0.77431   0.00000  Uiso   1.00
C386   C     0.25237   0.62129   0.75487   0.00000  Uiso   1.00
C387   C     0.17801   0.65809   0.75643   0.00000  Uiso   1.00
C388   C     0.12532   0.63183   0.78645   0.00000  Uiso   1.00
C389   C     0.33909   0.56216   0.70307   0.00000  Uiso   1.00
C390   C     0.33761   0.54924   0.66106   0.00000  Uiso   1.00
C391   C     0.35790   0.47319   0.64746   0.00000  Uiso   1.00
H392   H     0.37405   0.48118   0.79647   0.00000  Uiso   1.00
H393   H     0.49428   0.56140   0.82527   0.00000  Uiso   1.00
H394   H     0.23705   0.48697   0.83359   0.00000  Uiso   1.00
H395   H     0.39663   0.37814   0.73824   0.00000  Uiso   1.00
H396   H     0.61830   0.67720   0.84510   0.00000  Uiso   1.00
H397   H     0.07592   0.52024   0.86264   0.00000  Uiso   1.00
H398   H     0.41241   0.29074   0.66157   0.00000  Uiso   1.00
H399   H     0.30268   0.68805   0.70318   0.00000  Uiso   1.00
H400   H     0.41900   0.77962   0.72685   0.00000  Uiso   1.00
H401   H     0.16177   0.70519   0.73518   0.00000  Uiso   1.00
H402   H     0.32135   0.59636   0.63983   0.00000  Uiso   1.00
H403   H     0.55720   0.85432   0.76522   0.00000  Uiso   1.00
H404   H     0.01481   0.69735   0.78276   0.00000  Uiso   1.00
H405   H     0.35131   0.46786   0.58170   0.00000  Uiso   1.00
O406   O     0.66554   0.82227   0.82243   0.00000  Uiso   1.00
O407   O     0.95395   0.61634   0.84543   0.00000  Uiso   1.00
O408   O     0.39543   0.31525   0.58164   0.00000  Uiso   1.00
N409   N     0.58796   0.70631   0.82304   0.00000  Uiso   1.00
N410   N     0.08087   0.55957   0.83945   0.00000  Uiso   1.00
N411   N     0.39545   0.34500   0.65147   0.00000  Uiso   1.00
N412   N     0.55509   0.80161   0.78006   0.00000  Uiso   1.00
N413   N     0.04800   0.65487   0.79647   0.00000  Uiso   1.00
N414   N     0.36257   0.44031   0.60849   0.00000  Uiso   1.00
C415   C     0.85770   0.02858   0.27509   0.00000  Uiso   1.00
C416   C     0.91313   0.10084   0.27780   0.00000  Uiso   1.00
C417   C     0.97805   0.10852   0.30402   0.00000  Uiso   1.00
C418   C     0.02127   0.17932   0.30182   0.00000  Uiso   1.00
C419   C     0.11052   0.28229   0.31021   0.00000  Uiso   1.00
C420   C     0.77338   0.06041   0.28233   0.00000  Uiso   1.00
C421   C     0.72079   0.03409   0.31235   0.00000  Uiso   1.00
C422   C     0.64636   0.07084   0.31395   0.00000  Uiso   1.00
C423   C     0.51861   0.11100   0.32935   0.00000  Uiso   1.00
C424   C     0.86009   0.00128   0.23052   0.00000  Uiso   1.00
C425   C     0.88038   0.92523   0.21698   0.00000  Uiso   1.00
C426   C     0.87894   0.91220   0.17497   0.00000  Uiso   1.00
C427   C     0.88582   0.86055   0.10993   0.00000  Uiso   1.00
C428   C     0.81903   0.14065   0.22455   0.00000  Uiso   1.00
C429   C     0.89213   0.16172   0.25035   0.00000  Uiso   1.00
C430   C     0.93527   0.23252   0.24810   0.00000  Uiso   1.00
C431   C     0.00024   0.24031   0.27431   0.00000  Uiso   1.00
C432   C     0.75237   0.12129   0.25487   0.00000  Uiso   1.00
C433   C     0.67801   0.15809   0.25643   0.00000  Uiso   1.00
C434   C     0.62532   0.13183   0.28645   0.00000  Uiso   1.00
C435   C     0.83909   0.06216   0.20307   0.00000  Uiso   1.00
C436   C     0.83761   0.04924   0.16106   0.00000  Uiso   1.00
C437   C     0.85790   0.97319   0.14746   0.00000  Uiso   1.00
H438   H     0.87405   0.98118   0.29647   0.00000  Uiso   1.00
H439   H     0.99428   0.06140   0.32527   0.00000  Uiso   1.00
H440   H     0.73705   0.98697   0.33359   0.00000  Uiso   1.00
H441   H     0.89663   0.87814   0.23824   0.00000  Uiso   1.00
H442   H     0.11830   0.17720   0.34510   0.00000  Uiso   1.00
H443   H     0.57592   0.02024   0.36264   0.00000  Uiso   1.00
H444   H     0.91241   0.79074   0.16157   0.00000  Uiso   1.00
H445   H     0.80268   0.18805   0.20318   0.00000  Uiso   1.00
H446   H     0.91900   0.27962   0.22685   0.00000  Uiso   1.00
H447   H     0.66177   0.20519   0.23518   0.00000  Uiso   1.00
H448   H     0.82135   0.09636   0.13983   0.00000  Uiso   1.00
H449   H     0.05720   0.35432   0.26522   0.00000  Uiso   1.00
H450   H     0.51481   0.19735   0.28276   0.00000  Uiso   1.00
H451   H     0.85131   0.96786   0.08170   0.00000  Uiso   1.00
O452   O     0.16554   0.32227   0.32243   0.00000  Uiso   1.00
O453   O     0.45395   0.11634   0.34543   0.00000  Uiso   1.00
O454   O     0.89543   0.81525   0.08164   0.00000  Uiso   1.00
N455   N     0.08796   0.20631   0.32304   0.00000  Uiso   1.00
N456   N     0.58087   0.05957   0.33945   0.00000  Uiso   1.00
N457   N     0.89545   0.84500   0.15147   0.00000  Uiso   1.00
N458   N     0.05509   0.30161   0.28006   0.00000  Uiso   1.00
N459   N     0.54800   0.15487   0.29647   0.00000  Uiso   1.00
N460   N     0.86257   0.94031   0.10849   0.00000  Uiso   1.00
C461   C     0.64230   0.47142   0.77509   0.00000  Uiso   1.00
C462   C     0.58687   0.39916   0.77780   0.00000  Uiso   1.00
C463   C     0.52195   0.39148   0.80402   0.00000  Uiso   1.00
C464   C     0.47873   0.32068   0.80182   0.00000  Uiso   1.00
C465   C     0.38948   0.21771   0.81021   0.00000  Uiso   1.00
C466   C     0.72662   0.43959   0.78233   0.00000  Uiso   1.00
C467   C     0.77921   0.46591   0.81235   0.00000  Uiso   1.00
C468   C     0.85364   0.42916   0.81395   0.00000  Uiso   1.00
C469   C     0.98139   0.38900   0.82935   0.00000  Uiso   1.00
C470   C     0.63991   0.49872   0.73052   0.00000  Uiso   1.00
C471   C     0.61962   0.57477   0.71698   0.00000  Uiso   1.00
C472   C     0.62106   0.58780   0.67497   0.00000  Uiso   1.00
C473   C     0.61418   0.63945   0.60993   0.00000  Uiso   1.00
C474   C     0.68097   0.35935   0.72455   0.00000  Uiso   1.00
C475   C     0.60787   0.33828   0.75035   0.00000  Uiso   1.00
C476   C     0.56473   0.26748   0.74810   0.00000  Uiso   1.00
C477   C     0.49976   0.25969   0.77431   0.00000  Uiso   1.00
C478   C     0.74763   0.37871   0.75487   0.00000  Uiso   1.00
C479   C     0.82199   0.34191   0.75643   0.00000  Uiso   1.00
C480   C     0.87468   0.36817   0.78645   0.00000  Uiso   1.00
C481   C     0.66091   0.43784   0.70307   0.00000  Uiso   1.00
C482   C     0.66239   0.45076   0.66106   0.00000  Uiso   1.00
C483   C     0.64210   0.52681   0.64746   0.00000  Uiso   1.00
H484   H     0.62595   0.51882   0.79647   0.00000  Uiso   1.00
H485   H     0.50572   0.43860   0.82527   0.00000  Uiso   1.00
H486   H     0.76295   0.51303   0.83359   0.00000  Uiso   1.00
H487   H     0.60337   0.62186   0.73824   0.00000  Uiso   1.00
H488   H     0.38170   0.32280   0.84510   0.00000  Uiso   1.00
H489   H     0.92408   0.47976   0.86264   0.00000  Uiso   1.00
H490   H     0.58759   0.70926   0.66157   0.00000  Uiso   1.00
H491   H     0.69732   0.31195   0.70318   0.00000  Uiso   1.00
H492   H     0.58100   0.22038   0.72685   0.00000  Uiso   1.00
H493   H     0.83823   0.29481   0.73518   0.00000  Uiso   1.00
H494   H     0.67865   0.40364   0.63983   0.00000  Uiso   1.00
H495   H     0.44280   0.14568   0.76522   0.00000  Uiso   1.00
H496   H     0.98519   0.30265   0.78276   0.00000  Uiso   1.00
H497   H     0.64869   0.53214   0.58170   0.00000  Uiso   1.00
O498   O     0.33446   0.17773   0.82243   0.00000  Uiso   1.00
O499   O     0.04605   0.38366   0.84543   0.00000  Uiso   1.00
O500   O     0.60457   0.68475   0.58164   0.00000  Uiso   1.00
N501   N     0.41204   0.29369   0.82304   0.00000  Uiso   1.00
N502   N     0.91913   0.44043   0.83945   0.00000  Uiso   1.00
N503   N     0.60455   0.65500   0.65147   0.00000  Uiso   1.00
N504   N     0.44491   0.19839   0.78006   0.00000  Uiso   1.00
N505   N     0.95200   0.34513   0.79647   0.00000  Uiso   1.00
N506   N     0.63743   0.55969   0.60849   0.00000  Uiso   1.00
C507   C     0.14230   0.97142   0.27509   0.00000  Uiso   1.00
C508   C     0.08687   0.89916   0.27780   0.00000  Uiso   1.00
C509   C     0.02195   0.89148   0.30402   0.00000  Uiso   1.00
C510   C     0.97873   0.82068   0.30182   0.00000  Uiso   1.00
C511   C     0.88948   0.71771   0.31021   0.00000  Uiso   1.00
C512   C     0.22662   0.93959   0.28233   0.00000  Uiso   1.00
C513   C     0.27921   0.96591   0.31235   0.00000  Uiso   1.00
C514   C     0.35364   0.92916   0.31395   0.00000  Uiso   1.00
C515   C     0.48139   0.88900   0.32935   0.00000  Uiso   1.00
C516   C     0.13991   0.99872   0.23052   0.00000  Uiso   1.00
C517   C     0.11962   0.07477   0.21698   0.00000  Uiso   1.00
C518   C     0.12106   0.08780   0.17497   0.00000  Uiso   1.00
C519   C     0.11418   0.13945   0.10993   0.00000  Uiso   1.00
C520   C     0.18097   0.85935   0.22455   0.00000  Uiso   1.00
C521   C     0.10787   0.83828   0.25035   0.00000  Uiso   1.00
C522   C     0.06473   0.76748   0.24810   0.00000  Uiso   1.00
C523   C     0.99976   0.75969   0.27431   0.00000  Uiso   1.00
C524   C     0.24763   0.87871   0.25487   0.00000  Uiso   1.00
C525   C     0.32199   0.84191   0.25643   0.00000  Uiso   1.00
C526   C     0.37468   0.86817   0.28645   0.00000  Uiso   1.00
C527   C     0.16091   0.93784   0.20307   0.00000  Uiso   1.00
C528   C     0.16239   0.95076   0.16106   0.00000  Uiso   1.00
C529   C     0.14210   0.02681   0.14746   0.00000  Uiso   1.00
H530   H     0.12595   0.01882   0.29647   0.00000  Uiso   1.00
H531   H     0.00572   0.93860   0.32527   0.00000  Uiso   1.00
H532   H     0.26295   0.01303   0.33359   0.00000  Uiso   1.00
H533   H     0.10337   0.12186   0.23824   0.00000  Uiso   1.00
H534   H     0.88170   0.82280   0.34510   0.00000  Uiso   1.00
H535   H     0.42408   0.97976   0.36264   0.00000  Uiso   1.00
H536   H     0.08759   0.20926   0.16157   0.00000  Uiso   1.00
H537   H     0.19732   0.81195   0.20318   0.00000  Uiso   1.00
H538   H     0.08100   0.72038   0.22685   0.00000  Uiso   1.00
H539   H     0.33823   0.79481   0.23518   0.00000  Uiso   1.00
H540   H     0.17865   0.90364   0.13983   0.00000  Uiso   1.00
H541   H     0.94280   0.64568   0.26522   0.00000  Uiso   1.00
H542   H     0.48519   0.80265   0.28276   0.00000  Uiso   1.00
H543   H     0.14869   0.03214   0.08170   0.00000  Uiso   1.00
O544   O     0.83446   0.67773   0.32243   0.00000  Uiso   1.00
O545   O     0.54605   0.88366   0.34543   0.00000  Uiso   1.00
O546   O     0.10457   0.18475   0.08164   0.00000  Uiso   1.00
N547   N     0.91204   0.79369   0.32304   0.00000  Uiso   1.00
N548   N     0.41913   0.94043   0.33945   0.00000  Uiso   1.00
N549   N     0.10455   0.15500   0.15147   0.00000  Uiso   1.00
N550   N     0.94491   0.69839   0.28006   0.00000  Uiso   1.00
N551   N     0.45200   0.84513   0.29647   0.00000  Uiso   1.00
N552   N     0.13743   0.05969   0.10849   0.00000  Uiso   1.00
C553   C     0.97142   0.85770   0.72491   0.00000  Uiso   1.00
C554   C     0.89916   0.91313   0.72220   0.00000  Uiso   1.00
C555   C     0.89148   0.97805   0.69598   0.00000  Uiso   1.00
C556   C     0.82068   0.02127   0.69818   0.00000  Uiso   1.00
C557   C     0.71771   0.11052   0.68979   0.00000  Uiso   1.00
C558   C     0.93959   0.77338   0.71767   0.00000  Uiso   1.00
C559   C     0.96591   0.72079   0.68765   0.00000  Uiso   1.00
C560   C     0.92916   0.64636   0.68605   0.00000  Uiso   1.00
C561   C     0.88900   0.51861   0.67065   0.00000  Uiso   1.00
C562   C     0.99872   0.86009   0.76948   0.00000  Uiso   1.00
C563   C     0.07477   0.88038   0.78302   0.00000  Uiso   1.00
C564   C     0.08780   0.87894   0.82503   0.00000  Uiso   1.00
C565   C     0.13945   0.88582   0.89007   0.00000  Uiso   1.00
C566   C     0.85935   0.81903   0.77545   0.00000  Uiso   1.00
C567   C     0.83828   0.89213   0.74965   0.00000  Uiso   1.00
C568   C     0.76748   0.93527   0.75190   0.00000  Uiso   1.00
C569   C     0.75969   0.00024   0.72569   0.00000  Uiso   1.00
C570   C     0.87871   0.75237   0.74513   0.00000  Uiso   1.00
C571   C     0.84191   0.67801   0.74357   0.00000  Uiso   1.00
C572   C     0.86817   0.62532   0.71355   0.00000  Uiso   1.00
C573   C     0.93784   0.83909   0.79693   0.00000  Uiso   1.00
C574   C     0.95076   0.83761   0.83894   0.00000  Uiso   1.00
C575   C     0.02681   0.85790   0.85254   0.00000  Uiso   1.00
H576   H     0.01882   0.87405   0.70353   0.00000  Uiso   1.00
H577   H     0.93860   0.99428   0.67473   0.00000  Uiso   1.00
H578   H     0.01303   0.73705   0.66641   0.00000  Uiso   1.00
H579   H     0.12186   0.89663   0.76176   0.00000  Uiso   1.00
H580   H     0.82280   0.11830   0.65490   0.00000  Uiso   1.00
H581   H     0.97976   0.57592   0.63736   0.00000  Uiso   1.00
H582   H     0.20926   0.91241   0.83843   0.00000  Uiso   1.00
H583   H     0.81195   0.80268   0.79682   0.00000  Uiso   1.00
H584   H     0.72038   0.91900   0.77315   0.00000  Uiso   1.00
H585   H     0.79481   0.66177   0.76482   0.00000  Uiso   1.00
H586   H     0.90364   0.82135   0.86017   0.00000  Uiso   1.00
H587   H     0.64568   0.05720   0.73478   0.00000  Uiso   1.00
H588   H     0.80265   0.51481   0.71724   0.00000  Uiso   1.00
H589   H     0.03214   0.85131   0.91830   0.00000  Uiso   1.00
O590   O     0.67773   0.16554   0.67757   0.00000  Uiso   1.00
O591   O     0.88366   0.45395   0.65457   0.00000  Uiso   1.00
O592   O     0.18475   0.89543   0.91836   0.00000  Uiso   1.00
N593   N     0.79369   0.08796   0.67696   0.00000  Uiso   1.00
N594   N     0.94043   0.58087   0.66055   0.00000  Uiso   1.00
N595   N     0.15500   0.89545   0.84853   0.00000  Uiso   1.00
N596   N     0.69839   0.05509   0.71994   0.00000  Uiso   1.00
N597   N     0.84513   0.54800   0.70353   0.00000  Uiso   1.00
N598   N     0.05969   0.86257   0.89151   0.00000  Uiso   1.00
C599   C     0.47142   0.35770   0.22491   0.00000  Uiso   1.00
C600   C     0.39916   0.41313   0.22220   0.00000  Uiso   1.00
C601   C     0.39148   0.47805   0.19598   0.00000  Uiso   1.00
C602   C     0.32068   0.52127   0.19818   0.00000  Uiso   1.00
C603   C     0.21771   0.61052   0.18979   0.00000  Uiso   1.00
C604   C     0.43959   0.27338   0.21767   0.00000  Uiso   1.00
C605   C     0.46591   0.22079   0.18765   0.00000  Uiso   1.00
C606   C     0.42916   0.14636   0.18605   0.00000  Uiso   1.00
C607   C     0.38900   0.01861   0.17065   0.00000  Uiso   1.00
C608   C     0.49872   0.36009   0.26948   0.00000  Uiso   1.00
C609   C     0.57477   0.38038   0.28302   0.00000  Uiso   1.00
C610   C     0.58780   0.37894   0.32503   0.00000  Uiso   1.00
C611   C     0.63945   0.38582   0.39007   0.00000  Uiso   1.00
C612   C     0.35935   0.31903   0.27545   0.00000  Uiso   1.00
C613   C     0.33828   0.39213   0.24965   0.00000  Uiso   1.00
C614   C     0.26748   0.43527   0.25190   0.00000  Uiso   1.00
C615   C     0.25969   0.50024   0.22569   0.00000  Uiso   1.00
C616   C     0.37871   0.25237   0.24513   0.00000  Uiso   1.00
C617   C     0.34191   0.17801   0.24357   0.00000  Uiso   1.00
C618   C     0.36817   0.12532   0.21355   0.00000  Uiso   1.00
C619   C     0.43784   0.33909   0.29693   0.00000  Uiso   1.00
C620   C     0.45076   0.33761   0.33894   0.00000  Uiso   1.00
C621   C     0.52681   0.35790   0.35254   0.00000  Uiso   1.00
H622   H     0.51882   0.37405   0.20353   0.00000  Uiso   1.00
H623   H     0.43860   0.49428   0.17473   0.00000  Uiso   1.00
H624   H     0.51303   0.23705   0.16641   0.00000  Uiso   1.00
H625   H     0.62186   0.39663   0.26176   0.00000  Uiso   1.00
H626   H     0.32280   0.61830   0.15490   0.00000  Uiso   1.00
H627   H     0.47976   0.07592   0.13736   0.00000  Uiso   1.00
H628   H     0.70926   0.41241   0.33843   0.00000  Uiso   1.00
H629   H     0.31195   0.30268   0.29682   0.00000  Uiso   1.00
H630   H     0.22038   0.41900   0.27315   0.00000  Uiso   1.00
H631   H     0.29481   0.16177   0.26482   0.00000  Uiso   1.00
H632   H     0.40364   0.32135   0.36017   0.00000  Uiso   1.00
H633   H     0.14568   0.55720   0.23478   0.00000  Uiso   1.00
H634   H     0.30265   0.01481   0.21724   0.00000  Uiso   1.00
H635   H     0.53214   0.35131   0.41830   0.00000  Uiso   1.00
O636   O     0.17773   0.66554   0.17757   0.00000  Uiso   1.00
O637   O     0.38366   0.95395   0.15457   0.00000  Uiso   1.00
O638   O     0.68475   0.39543   0.41836   0.00000  Uiso   1.00
N639   N     0.29369   0.58796   0.17696   0.00000  Uiso   1.00
N640   N     0.44043   0.08087   0.16055   0.00000  Uiso   1.00
N641   N     0.65500   0.39545   0.34853   0.00000  Uiso   1.00
N642   N     0.19839   0.55509   0.21994   0.00000  Uiso   1.00
N643   N     0.34513   0.04800   0.20353   0.00000  Uiso   1.00
N644   N     0.55969   0.36257   0.39151   0.00000  Uiso   1.00
C645   C     0.02858   0.14230   0.72491   0.00000  Uiso   1.00
C646   C     0.10084   0.08687   0.72220   0.00000  Uiso   1.00
C647   C     0.10852   0.02195   0.69598   0.00000  Uiso   1.00
C648   C     0.17932   0.97873   0.69818   0.00000  Uiso   1.00
C649   C     0.28229   0.88948   0.68979   0.00000  Uiso   1.00
C650   C     0.06041   0.22662   0.71767   0.00000  Uiso   1.00
C651   C     0.03409   0.27921   0.68765   0.00000  Uiso   1.00
C652   C     0.07084   0.35364   0.68605   0.00000  Uiso   1.00
C653   C     0.11100   0.48139   0.67065   0.00000  Uiso   1.00
C654   C     0.00128   0.13991   0.76948   0.00000  Uiso   1.00
C655   C     0.92523   0.11962   0.78302   0.00000  Uiso   1.00
C656   C     0.91220   0.12106   0.82503   0.00000  Uiso   1.00
C657   C     0.86055   0.11418   0.89007   0.00000  Uiso   1.00
C658   C     0.14065   0.18097   0.77545   0.00000  Uiso   1.00
C659   C     0.16172   0.10787   0.74965   0.00000  Uiso   1.00
C660   C     0.23252   0.06473   0.75190   0.00000  Uiso   1.00
C661   C     0.24031   0.99976   0.72569   0.00000  Uiso   1.00
C662   C     0.12129   0.24763   0.74513   0.00000  Uiso   1.00
C663   C     0.15809   0.32199   0.74357   0.00000  Uiso   1.00
C664   C     0.13183   0.37468   0.71355   0.00000  Uiso   1.00
C665   C     0.06216   0.16091   0.79693   0.00000  Uiso   1.00
C666   C     0.04924   0.16239   0.83894   0.00000  Uiso   1.00
C667   C     0.97319   0.14210   0.85254   0.00000  Uiso   1.00
H668   H     0.98118   0.12595   0.70353   0.00000  Uiso   1.00
H669   H     0.06140   0.00572   0.67473   0.00000  Uiso   1.00
H670   H     0.98697   0.26295   0.66641   0.00000  Uiso   1.00
H671   H     0.87814   0.10337   0.76176   0.00000  Uiso   1.00
H672   H     0.17720   0.88170   0.65490   0.00000  Uiso   1.00
H673   H     0.02024   0.42408   0.63736   0.00000  Uiso   1.00
H674   H     0.79074   0.08759   0.83843   0.00000  Uiso   1.00
H675   H     0.18805   0.19732   0.79682   0.00000  Uiso   1.00
H676   H     0.27962   0.08100   0.77315   0.00000  Uiso   1.00
H677   H     0.20519   0.33823   0.76482   0.00000  Uiso   1.00
H678   H     0.09636   0.17865   0.86017   0.00000  Uiso   1.00
H679   H     0.35432   0.94280   0.73478   0.00000  Uiso   1.00
H680   H     0.19735   0.48519   0.71724   0.00000  Uiso   1.00
H681   H     0.96786   0.14869   0.91830   0.00000  Uiso   1.00
O682   O     0.32227   0.83446   0.67757   0.00000  Uiso   1.00
O683   O     0.11634   0.54605   0.65457   0.00000  Uiso   1.00
O684   O     0.81525   0.10457   0.91836   0.00000  Uiso   1.00
N685   N     0.20631   0.91204   0.67696   0.00000  Uiso   1.00
N686   N     0.05957   0.41913   0.66055   0.00000  Uiso   1.00
N687   N     0.84500   0.10455   0.84853   0.00000  Uiso   1.00
N688   N     0.30161   0.94491   0.71994   0.00000  Uiso   1.00
N689   N     0.15487   0.45200   0.70353   0.00000  Uiso   1.00
N690   N     0.94031   0.13743   0.89151   0.00000  Uiso   1.00
C691   C     0.52858   0.64230   0.22491   0.00000  Uiso   1.00
C692   C     0.60084   0.58687   0.22220   0.00000  Uiso   1.00
C693   C     0.60852   0.52195   0.19598   0.00000  Uiso   1.00
C694   C     0.67932   0.47873   0.19818   0.00000  Uiso   1.00
C695   C     0.78229   0.38948   0.18979   0.00000  Uiso   1.00
C696   C     0.56041   0.72662   0.21767   0.00000  Uiso   1.00
C697   C     0.53409   0.77921   0.18765   0.00000  Uiso   1.00
C698   C     0.57084   0.85364   0.18605   0.00000  Uiso   1.00
C699   C     0.61100   0.98139   0.17065   0.00000  Uiso   1.00
C700   C     0.50128   0.63991   0.26948   0.00000  Uiso   1.00
C701   C     0.42523   0.61962   0.28302   0.00000  Uiso   1.00
C702   C     0.41220   0.62106   0.32503   0.00000  Uiso   1.00
C703   C     0.36055   0.61418   0.39007   0.00000  Uiso   1.00
C704   C     0.64065   0.68097   0.27545   0.00000  Uiso   1.00
C705   C     0.66172   0.60787   0.24965   0.00000  Uiso   1.00
C706   C     0.73252   0.56473   0.25190   0.00000  Uiso   1.00
C707   C     0.74031   0.49976   0.22569   0.00000  Uiso   1.00
C708   C     0.62129   0.74763   0.24513   0.00000  Uiso   1.00
C709   C     0.65809   0.82199   0.24357   0.00000  Uiso   1.00
C710   C     0.63183   0.87468   0.21355   0.00000  Uiso   1.00
C711   C     0.56216   0.66091   0.29693   0.00000  Uiso   1.00
C712   C     0.54924   0.66239   0.33894   0.00000  Uiso   1.00
C713   C     0.47319   0.64210   0.35254   0.00000  Uiso   1.00
H714   H     0.48118   0.62595   0.20353   0.00000  Uiso   1.00
H715   H     0.56140   0.50572   0.17473   0.00000  Uiso   1.00
H716   H     0.48697   0.76295   0.16641   0.00000  Uiso   1.00
H717   H     0.37814   0.60337   0.26176   0.00000  Uiso   1.00
H718   H     0.67720   0.38170   0.15490   0.00000  Uiso   1.00
H719   H     0.52024   0.92408   0.13736   0.00000  Uiso   1.00
H720   H     0.29074   0.58759   0.33843   0.00000  Uiso   1.00
H721   H     0.68805   0.69732   0.29682   0.00000  Uiso   1.00
H722   H     0.77962   0.58100   0.27315   0.00000  Uiso   1.00
H723   H     0.70519   0.83823   0.26482   0.00000  Uiso   1.00
H724   H     0.59636   0.67865   0.36017   0.00000  Uiso   1.00
H725   H     0.85432   0.44280   0.23478   0.00000  Uiso   1.00
H726   H     0.69735   0.98519   0.21724   0.00000  Uiso   1.00
H727   H     0.46786   0.64869   0.41830   0.00000  Uiso   1.00
O728   O     0.82227   0.33446   0.17757   0.00000  Uiso   1.00
O729   O     0.61634   0.04605   0.15457   0.00000  Uiso   1.00
O730   O     0.31525   0.60457   0.41836   0.00000  Uiso   1.00
N731   N     0.70631   0.41204   0.17696   0.00000  Uiso   1.00
N732   N     0.55957   0.91913   0.16055   0.00000  Uiso   1.00
N733   N     0.34500   0.60455   0.34853   0.00000  Uiso   1.00
N734   N     0.80161   0.44491   0.21994   0.00000  Uiso   1.00
N735   N     0.65487   0.95200   0.20353   0.00000  Uiso   1.00
N736   N     0.44031   0.63743   0.39151   0.00000  Uiso   1.00
