data_job_03644
_audit_creation_date              2018-12-19
_audit_creation_method            'Materials Studio'
_symmetry_space_group_name_H-M    'P1'
_symmetry_Int_Tables_number       1
_symmetry_cell_setting            triclinic
loop_
_symmetry_equiv_pos_as_xyz
  x,y,z
_cell_length_a                    27.9593
_cell_length_b                    24.2952
_cell_length_c                    19.4187
_cell_angle_alpha                 90.0000
_cell_angle_beta                  90.0000
_cell_angle_gamma                 90.0000
loop_
_atom_site_label
_atom_site_type_symbol
_atom_site_fract_x
_atom_site_fract_y
_atom_site_fract_z
_atom_site_U_iso_or_equiv
_atom_site_adp_type
_atom_site_occupancy
C1     C     0.66901   0.35957   0.27695   0.00000  Uiso   1.00
C2     C     0.65172   0.39852   0.33328   0.00000  Uiso   1.00
C3     C     0.67155   0.44934   0.34908   0.00000  Uiso   1.00
C4     C     0.65056   0.47874   0.40242   0.00000  Uiso   1.00
C5     C     0.62972   0.54236   0.48440   0.00000  Uiso   1.00
C6     C     0.67970   0.30500   0.31257   0.00000  Uiso   1.00
C7     C     0.72304   0.27719   0.31096   0.00000  Uiso   1.00
C8     C     0.72559   0.22786   0.34687   0.00000  Uiso   1.00
C9     C     0.74817   0.14627   0.39666   0.00000  Uiso   1.00
C10    C     0.62591   0.34904   0.23067   0.00000  Uiso   1.00
C11    C     0.62404   0.35824   0.16019   0.00000  Uiso   1.00
C12    C     0.58131   0.34597   0.12714   0.00000  Uiso   1.00
C13    C     0.52038   0.33275   0.04977   0.00000  Uiso   1.00
C14    C     0.59647   0.32141   0.34359   0.00000  Uiso   1.00
C15    C     0.61232   0.37779   0.36947   0.00000  Uiso   1.00
C16    C     0.59129   0.40712   0.42280   0.00000  Uiso   1.00
C17    C     0.61109   0.45797   0.43868   0.00000  Uiso   1.00
C18    C     0.64030   0.28427   0.34877   0.00000  Uiso   1.00
C19    C     0.64278   0.23497   0.38469   0.00000  Uiso   1.00
C20    C     0.68612   0.20709   0.38313   0.00000  Uiso   1.00
C21    C     0.58651   0.32831   0.26687   0.00000  Uiso   1.00
C22    C     0.54378   0.31602   0.23392   0.00000  Uiso   1.00
C23    C     0.54184   0.32520   0.16340   0.00000  Uiso   1.00
H24    H     0.69969   0.37570   0.24877   0.00000  Uiso   1.00
H25    H     0.70205   0.46536   0.32106   0.00000  Uiso   1.00
H26    H     0.75352   0.29324   0.28294   0.00000  Uiso   1.00
H27    H     0.65454   0.37428   0.13220   0.00000  Uiso   1.00
H28    H     0.68730   0.55562   0.41718   0.00000  Uiso   1.00
H29    H     0.79583   0.19267   0.33678   0.00000  Uiso   1.00
H30    H     0.58710   0.36355   0.01891   0.00000  Uiso   1.00
H31    H     0.56580   0.30527   0.37177   0.00000  Uiso   1.00
H32    H     0.56080   0.39107   0.45080   0.00000  Uiso   1.00
H33    H     0.61228   0.21894   0.41269   0.00000  Uiso   1.00
H34    H     0.51330   0.29998   0.26194   0.00000  Uiso   1.00
H35    H     0.57266   0.49532   0.52249   0.00000  Uiso   1.00
H36    H     0.68119   0.13237   0.44209   0.00000  Uiso   1.00
H37    H     0.47246   0.30325   0.12422   0.00000  Uiso   1.00
O38    O     0.62912   0.58317   0.51962   0.00000  Uiso   1.00
O39    O     0.77151   0.10699   0.41413   0.00000  Uiso   1.00
O40    O     0.49766   0.33119   0.99710   0.00000  Uiso   1.00
N41    N     0.66100   0.52966   0.43111   0.00000  Uiso   1.00
N42    N     0.76247   0.19033   0.35595   0.00000  Uiso   1.00
N43    N     0.56733   0.35007   0.05877   0.00000  Uiso   1.00
N44    N     0.59931   0.49721   0.48777   0.00000  Uiso   1.00
N45    N     0.70078   0.15788   0.41262   0.00000  Uiso   1.00
N46    N     0.50564   0.31763   0.11543   0.00000  Uiso   1.00
C47    C     0.83186   0.36449   0.70359   0.00000  Uiso   1.00
C48    C     0.84871   0.40359   0.64715   0.00000  Uiso   1.00
C49    C     0.82848   0.45422   0.63146   0.00000  Uiso   1.00
C50    C     0.84911   0.48380   0.57798   0.00000  Uiso   1.00
C51    C     0.86927   0.54760   0.49587   0.00000  Uiso   1.00
C52    C     0.82145   0.30981   0.66804   0.00000  Uiso   1.00
C53    C     0.77831   0.28160   0.66992   0.00000  Uiso   1.00
C54    C     0.77600   0.23225   0.63403   0.00000  Uiso   1.00
C55    C     0.75385   0.15044   0.58439   0.00000  Uiso   1.00
C56    C     0.87516   0.35436   0.74961   0.00000  Uiso   1.00
C57    C     0.87718   0.36359   0.82008   0.00000  Uiso   1.00
C58    C     0.92008   0.35172   0.85287   0.00000  Uiso   1.00
C59    C     0.98132   0.33908   0.92988   0.00000  Uiso   1.00
C60    C     0.90447   0.32699   0.63652   0.00000  Uiso   1.00
C61    C     0.88815   0.38322   0.61072   0.00000  Uiso   1.00
C62    C     0.90882   0.41273   0.55726   0.00000  Uiso   1.00
C63    C     0.88863   0.46340   0.54149   0.00000  Uiso   1.00
C64    C     0.86089   0.28945   0.63161   0.00000  Uiso   1.00
C65    C     0.85865   0.24012   0.59572   0.00000  Uiso   1.00
C66    C     0.81551   0.21184   0.59754   0.00000  Uiso   1.00
C67    C     0.91460   0.33399   0.71318   0.00000  Uiso   1.00
C68    C     0.95751   0.32210   0.74587   0.00000  Uiso   1.00
C69    C     0.95959   0.33131   0.81638   0.00000  Uiso   1.00
H70    H     0.80115   0.38034   0.73194   0.00000  Uiso   1.00
H71    H     0.79796   0.46996   0.65966   0.00000  Uiso   1.00
H72    H     0.74780   0.29737   0.69812   0.00000  Uiso   1.00
H73    H     0.84665   0.37935   0.84825   0.00000  Uiso   1.00
H74    H     0.81180   0.56034   0.56343   0.00000  Uiso   1.00
H75    H     0.70604   0.19641   0.64455   0.00000  Uiso   1.00
H76    H     0.91449   0.36927   0.96113   0.00000  Uiso   1.00
H77    H     0.93517   0.31113   0.60816   0.00000  Uiso   1.00
H78    H     0.93934   0.39696   0.52908   0.00000  Uiso   1.00
H79    H     0.88917   0.22437   0.56754   0.00000  Uiso   1.00
H80    H     0.98803   0.30634   0.71767   0.00000  Uiso   1.00
H81    H     0.92655   0.50108   0.45745   0.00000  Uiso   1.00
H82    H     0.82079   0.13715   0.53856   0.00000  Uiso   1.00
H83    H     0.02923   0.31001   0.85514   0.00000  Uiso   1.00
O84    O     0.86949   0.58841   0.46064   0.00000  Uiso   1.00
O85    O     0.73073   0.11095   0.56707   0.00000  Uiso   1.00
O86    O     0.00421   0.33774   0.98241   0.00000  Uiso   1.00
N87    N     0.83824   0.53462   0.54935   0.00000  Uiso   1.00
N88    N     0.73936   0.19437   0.62518   0.00000  Uiso   1.00
N89    N     0.93423   0.35596   0.92116   0.00000  Uiso   1.00
N90    N     0.89999   0.50273   0.49232   0.00000  Uiso   1.00
N91    N     0.80110   0.16249   0.56815   0.00000  Uiso   1.00
N92    N     0.99598   0.32408   0.86413   0.00000  Uiso   1.00
C93    C     0.83099   0.64043   0.77695   0.00000  Uiso   1.00
C94    C     0.84828   0.60148   0.83328   0.00000  Uiso   1.00
C95    C     0.82845   0.55066   0.84908   0.00000  Uiso   1.00
C96    C     0.84944   0.52126   0.90242   0.00000  Uiso   1.00
C97    C     0.87028   0.45764   0.98440   0.00000  Uiso   1.00
C98    C     0.82030   0.69500   0.81257   0.00000  Uiso   1.00
C99    C     0.77696   0.72281   0.81096   0.00000  Uiso   1.00
C100   C     0.77441   0.77214   0.84687   0.00000  Uiso   1.00
C101   C     0.75183   0.85373   0.89666   0.00000  Uiso   1.00
C102   C     0.87409   0.65096   0.73067   0.00000  Uiso   1.00
C103   C     0.87596   0.64176   0.66019   0.00000  Uiso   1.00
C104   C     0.91869   0.65403   0.62714   0.00000  Uiso   1.00
C105   C     0.97962   0.66725   0.54977   0.00000  Uiso   1.00
C106   C     0.90353   0.67859   0.84359   0.00000  Uiso   1.00
C107   C     0.88768   0.62221   0.86947   0.00000  Uiso   1.00
C108   C     0.90871   0.59288   0.92280   0.00000  Uiso   1.00
C109   C     0.88891   0.54203   0.93868   0.00000  Uiso   1.00
C110   C     0.85970   0.71573   0.84877   0.00000  Uiso   1.00
C111   C     0.85722   0.76503   0.88469   0.00000  Uiso   1.00
C112   C     0.81388   0.79291   0.88313   0.00000  Uiso   1.00
C113   C     0.91349   0.67169   0.76687   0.00000  Uiso   1.00
C114   C     0.95622   0.68398   0.73392   0.00000  Uiso   1.00
C115   C     0.95816   0.67480   0.66340   0.00000  Uiso   1.00
H116   H     0.80031   0.62430   0.74877   0.00000  Uiso   1.00
H117   H     0.79795   0.53464   0.82106   0.00000  Uiso   1.00
H118   H     0.74648   0.70676   0.78294   0.00000  Uiso   1.00
H119   H     0.84546   0.62572   0.63220   0.00000  Uiso   1.00
H120   H     0.81270   0.44438   0.91718   0.00000  Uiso   1.00
H121   H     0.70417   0.80733   0.83678   0.00000  Uiso   1.00
H122   H     0.91290   0.63645   0.51891   0.00000  Uiso   1.00
H123   H     0.93420   0.69473   0.87177   0.00000  Uiso   1.00
H124   H     0.93920   0.60893   0.95080   0.00000  Uiso   1.00
H125   H     0.88772   0.78106   0.91269   0.00000  Uiso   1.00
H126   H     0.98670   0.70002   0.76194   0.00000  Uiso   1.00
H127   H     0.92734   0.50468   0.02249   0.00000  Uiso   1.00
H128   H     0.81881   0.86763   0.94209   0.00000  Uiso   1.00
H129   H     0.02754   0.69675   0.62422   0.00000  Uiso   1.00
O130   O     0.87088   0.41683   0.01962   0.00000  Uiso   1.00
O131   O     0.72849   0.89301   0.91413   0.00000  Uiso   1.00
O132   O     0.00234   0.66881   0.49710   0.00000  Uiso   1.00
N133   N     0.83900   0.47034   0.93111   0.00000  Uiso   1.00
N134   N     0.73753   0.80967   0.85595   0.00000  Uiso   1.00
N135   N     0.93267   0.64993   0.55877   0.00000  Uiso   1.00
N136   N     0.90069   0.50279   0.98777   0.00000  Uiso   1.00
N137   N     0.79922   0.84212   0.91262   0.00000  Uiso   1.00
N138   N     0.99436   0.68237   0.61543   0.00000  Uiso   1.00
C139   C     0.66814   0.63551   0.20359   0.00000  Uiso   1.00
C140   C     0.65129   0.59641   0.14715   0.00000  Uiso   1.00
C141   C     0.67152   0.54578   0.13146   0.00000  Uiso   1.00
C142   C     0.65089   0.51620   0.07798   0.00000  Uiso   1.00
C143   C     0.63073   0.45240   0.99587   0.00000  Uiso   1.00
C144   C     0.67855   0.69019   0.16804   0.00000  Uiso   1.00
C145   C     0.72169   0.71840   0.16992   0.00000  Uiso   1.00
C146   C     0.72400   0.76775   0.13403   0.00000  Uiso   1.00
C147   C     0.74615   0.84956   0.08439   0.00000  Uiso   1.00
C148   C     0.62484   0.64564   0.24961   0.00000  Uiso   1.00
C149   C     0.62282   0.63641   0.32008   0.00000  Uiso   1.00
C150   C     0.57992   0.64828   0.35287   0.00000  Uiso   1.00
C151   C     0.51868   0.66092   0.42988   0.00000  Uiso   1.00
C152   C     0.59553   0.67301   0.13652   0.00000  Uiso   1.00
C153   C     0.61185   0.61678   0.11072   0.00000  Uiso   1.00
C154   C     0.59118   0.58727   0.05726   0.00000  Uiso   1.00
C155   C     0.61137   0.53660   0.04149   0.00000  Uiso   1.00
C156   C     0.63911   0.71055   0.13161   0.00000  Uiso   1.00
C157   C     0.64135   0.75988   0.09572   0.00000  Uiso   1.00
C158   C     0.68449   0.78816   0.09754   0.00000  Uiso   1.00
C159   C     0.58540   0.66601   0.21318   0.00000  Uiso   1.00
C160   C     0.54249   0.67790   0.24587   0.00000  Uiso   1.00
C161   C     0.54041   0.66869   0.31638   0.00000  Uiso   1.00
H162   H     0.69885   0.61966   0.23194   0.00000  Uiso   1.00
H163   H     0.70204   0.53004   0.15966   0.00000  Uiso   1.00
H164   H     0.75220   0.70263   0.19812   0.00000  Uiso   1.00
H165   H     0.65335   0.62065   0.34825   0.00000  Uiso   1.00
H166   H     0.68820   0.43966   0.06343   0.00000  Uiso   1.00
H167   H     0.79396   0.80359   0.14455   0.00000  Uiso   1.00
H168   H     0.58551   0.63073   0.46113   0.00000  Uiso   1.00
H169   H     0.56483   0.68887   0.10816   0.00000  Uiso   1.00
H170   H     0.56066   0.60304   0.02908   0.00000  Uiso   1.00
H171   H     0.61083   0.77563   0.06754   0.00000  Uiso   1.00
H172   H     0.51197   0.69366   0.21767   0.00000  Uiso   1.00
H173   H     0.57345   0.49892   0.95745   0.00000  Uiso   1.00
H174   H     0.67921   0.86285   0.03856   0.00000  Uiso   1.00
H175   H     0.47077   0.68999   0.35514   0.00000  Uiso   1.00
O176   O     0.63051   0.41159   0.96064   0.00000  Uiso   1.00
O177   O     0.76927   0.88905   0.06707   0.00000  Uiso   1.00
O178   O     0.49579   0.66226   0.48241   0.00000  Uiso   1.00
N179   N     0.66176   0.46538   0.04935   0.00000  Uiso   1.00
N180   N     0.76064   0.80563   0.12518   0.00000  Uiso   1.00
N181   N     0.56577   0.64404   0.42116   0.00000  Uiso   1.00
N182   N     0.60001   0.49727   0.99232   0.00000  Uiso   1.00
N183   N     0.69890   0.83751   0.06815   0.00000  Uiso   1.00
N184   N     0.50402   0.67592   0.36413   0.00000  Uiso   1.00
C185   C     0.33099   0.85957   0.22305   0.00000  Uiso   1.00
C186   C     0.34828   0.89852   0.16672   0.00000  Uiso   1.00
C187   C     0.32845   0.94934   0.15092   0.00000  Uiso   1.00
C188   C     0.34944   0.97874   0.09758   0.00000  Uiso   1.00
C189   C     0.37028   0.04236   0.01560   0.00000  Uiso   1.00
C190   C     0.32030   0.80500   0.18743   0.00000  Uiso   1.00
C191   C     0.27696   0.77719   0.18904   0.00000  Uiso   1.00
C192   C     0.27441   0.72786   0.15313   0.00000  Uiso   1.00
C193   C     0.25183   0.64627   0.10334   0.00000  Uiso   1.00
C194   C     0.37409   0.84904   0.26933   0.00000  Uiso   1.00
C195   C     0.37596   0.85824   0.33981   0.00000  Uiso   1.00
C196   C     0.41869   0.84597   0.37286   0.00000  Uiso   1.00
C197   C     0.47962   0.83275   0.45023   0.00000  Uiso   1.00
C198   C     0.40353   0.82141   0.15641   0.00000  Uiso   1.00
C199   C     0.38768   0.87779   0.13053   0.00000  Uiso   1.00
C200   C     0.40871   0.90712   0.07720   0.00000  Uiso   1.00
C201   C     0.38891   0.95797   0.06132   0.00000  Uiso   1.00
C202   C     0.35970   0.78427   0.15123   0.00000  Uiso   1.00
C203   C     0.35722   0.73497   0.11531   0.00000  Uiso   1.00
C204   C     0.31388   0.70709   0.11687   0.00000  Uiso   1.00
C205   C     0.41349   0.82831   0.23313   0.00000  Uiso   1.00
C206   C     0.45622   0.81602   0.26608   0.00000  Uiso   1.00
C207   C     0.45816   0.82520   0.33660   0.00000  Uiso   1.00
H208   H     0.30031   0.87570   0.25123   0.00000  Uiso   1.00
H209   H     0.29795   0.96536   0.17894   0.00000  Uiso   1.00
H210   H     0.24648   0.79324   0.21706   0.00000  Uiso   1.00
H211   H     0.34546   0.87428   0.36780   0.00000  Uiso   1.00
H212   H     0.31270   0.05562   0.08282   0.00000  Uiso   1.00
H213   H     0.20417   0.69267   0.16322   0.00000  Uiso   1.00
H214   H     0.41290   0.86355   0.48109   0.00000  Uiso   1.00
H215   H     0.43420   0.80527   0.12823   0.00000  Uiso   1.00
H216   H     0.43920   0.89107   0.04920   0.00000  Uiso   1.00
H217   H     0.38772   0.71894   0.08731   0.00000  Uiso   1.00
H218   H     0.48670   0.79998   0.23806   0.00000  Uiso   1.00
H219   H     0.42734   0.99532   0.97751   0.00000  Uiso   1.00
H220   H     0.31881   0.63237   0.05791   0.00000  Uiso   1.00
H221   H     0.52754   0.80325   0.37578   0.00000  Uiso   1.00
O222   O     0.37088   0.08317   0.98038   0.00000  Uiso   1.00
O223   O     0.22849   0.60699   0.08587   0.00000  Uiso   1.00
O224   O     0.50234   0.83119   0.50290   0.00000  Uiso   1.00
N225   N     0.33900   0.02966   0.06889   0.00000  Uiso   1.00
N226   N     0.23753   0.69033   0.14405   0.00000  Uiso   1.00
N227   N     0.43267   0.85007   0.44123   0.00000  Uiso   1.00
N228   N     0.40069   0.99721   0.01223   0.00000  Uiso   1.00
N229   N     0.29922   0.65788   0.08738   0.00000  Uiso   1.00
N230   N     0.49436   0.81763   0.38457   0.00000  Uiso   1.00
C231   C     0.16814   0.86449   0.79641   0.00000  Uiso   1.00
C232   C     0.15129   0.90359   0.85285   0.00000  Uiso   1.00
C233   C     0.17152   0.95422   0.86854   0.00000  Uiso   1.00
C234   C     0.15089   0.98380   0.92202   0.00000  Uiso   1.00
C235   C     0.13073   0.04760   0.00413   0.00000  Uiso   1.00
C236   C     0.17855   0.80981   0.83196   0.00000  Uiso   1.00
C237   C     0.22169   0.78160   0.83008   0.00000  Uiso   1.00
C238   C     0.22400   0.73225   0.86597   0.00000  Uiso   1.00
C239   C     0.24615   0.65044   0.91561   0.00000  Uiso   1.00
C240   C     0.12484   0.85436   0.75039   0.00000  Uiso   1.00
C241   C     0.12282   0.86359   0.67992   0.00000  Uiso   1.00
C242   C     0.07992   0.85172   0.64713   0.00000  Uiso   1.00
C243   C     0.01868   0.83908   0.57012   0.00000  Uiso   1.00
C244   C     0.09553   0.82699   0.86348   0.00000  Uiso   1.00
C245   C     0.11185   0.88322   0.88928   0.00000  Uiso   1.00
C246   C     0.09118   0.91273   0.94274   0.00000  Uiso   1.00
C247   C     0.11137   0.96340   0.95851   0.00000  Uiso   1.00
C248   C     0.13911   0.78945   0.86839   0.00000  Uiso   1.00
C249   C     0.14135   0.74012   0.90428   0.00000  Uiso   1.00
C250   C     0.18449   0.71184   0.90246   0.00000  Uiso   1.00
C251   C     0.08540   0.83399   0.78682   0.00000  Uiso   1.00
C252   C     0.04249   0.82210   0.75413   0.00000  Uiso   1.00
C253   C     0.04041   0.83131   0.68362   0.00000  Uiso   1.00
H254   H     0.19885   0.88034   0.76806   0.00000  Uiso   1.00
H255   H     0.20204   0.96996   0.84034   0.00000  Uiso   1.00
H256   H     0.25220   0.79737   0.80188   0.00000  Uiso   1.00
H257   H     0.15335   0.87935   0.65175   0.00000  Uiso   1.00
H258   H     0.18820   0.06034   0.93657   0.00000  Uiso   1.00
H259   H     0.29396   0.69641   0.85545   0.00000  Uiso   1.00
H260   H     0.08551   0.86927   0.53887   0.00000  Uiso   1.00
H261   H     0.06483   0.81113   0.89184   0.00000  Uiso   1.00
H262   H     0.06066   0.89696   0.97092   0.00000  Uiso   1.00
H263   H     0.11083   0.72437   0.93246   0.00000  Uiso   1.00
H264   H     0.01197   0.80634   0.78233   0.00000  Uiso   1.00
H265   H     0.07345   0.00108   0.04255   0.00000  Uiso   1.00
H266   H     0.17921   0.63715   0.96144   0.00000  Uiso   1.00
H267   H     0.97077   0.81001   0.64486   0.00000  Uiso   1.00
O268   O     0.13051   0.08841   0.03936   0.00000  Uiso   1.00
O269   O     0.26927   0.61095   0.93293   0.00000  Uiso   1.00
O270   O     0.99579   0.83774   0.51759   0.00000  Uiso   1.00
N271   N     0.16176   0.03462   0.95065   0.00000  Uiso   1.00
N272   N     0.26064   0.69437   0.87482   0.00000  Uiso   1.00
N273   N     0.06577   0.85596   0.57884   0.00000  Uiso   1.00
N274   N     0.10001   0.00273   0.00768   0.00000  Uiso   1.00
N275   N     0.19890   0.66249   0.93185   0.00000  Uiso   1.00
N276   N     0.00402   0.82408   0.63587   0.00000  Uiso   1.00
C277   C     0.16901   0.14043   0.72305   0.00000  Uiso   1.00
C278   C     0.15172   0.10148   0.66672   0.00000  Uiso   1.00
C279   C     0.17155   0.05066   0.65092   0.00000  Uiso   1.00
C280   C     0.15056   0.02126   0.59758   0.00000  Uiso   1.00
C281   C     0.12972   0.95764   0.51560   0.00000  Uiso   1.00
C282   C     0.17970   0.19500   0.68743   0.00000  Uiso   1.00
C283   C     0.22304   0.22281   0.68904   0.00000  Uiso   1.00
C284   C     0.22559   0.27214   0.65313   0.00000  Uiso   1.00
C285   C     0.24817   0.35373   0.60334   0.00000  Uiso   1.00
C286   C     0.12591   0.15096   0.76933   0.00000  Uiso   1.00
C287   C     0.12404   0.14176   0.83981   0.00000  Uiso   1.00
C288   C     0.08131   0.15403   0.87286   0.00000  Uiso   1.00
C289   C     0.02038   0.16725   0.95023   0.00000  Uiso   1.00
C290   C     0.09647   0.17859   0.65641   0.00000  Uiso   1.00
C291   C     0.11232   0.12221   0.63053   0.00000  Uiso   1.00
C292   C     0.09129   0.09288   0.57720   0.00000  Uiso   1.00
C293   C     0.11109   0.04203   0.56132   0.00000  Uiso   1.00
C294   C     0.14030   0.21573   0.65123   0.00000  Uiso   1.00
C295   C     0.14278   0.26503   0.61531   0.00000  Uiso   1.00
C296   C     0.18612   0.29291   0.61687   0.00000  Uiso   1.00
C297   C     0.08651   0.17169   0.73313   0.00000  Uiso   1.00
C298   C     0.04378   0.18398   0.76608   0.00000  Uiso   1.00
C299   C     0.04184   0.17480   0.83660   0.00000  Uiso   1.00
H300   H     0.19969   0.12430   0.75123   0.00000  Uiso   1.00
H301   H     0.20205   0.03464   0.67894   0.00000  Uiso   1.00
H302   H     0.25352   0.20676   0.71706   0.00000  Uiso   1.00
H303   H     0.15454   0.12572   0.86780   0.00000  Uiso   1.00
H304   H     0.18730   0.94438   0.58282   0.00000  Uiso   1.00
H305   H     0.29583   0.30733   0.66322   0.00000  Uiso   1.00
H306   H     0.08710   0.13645   0.98109   0.00000  Uiso   1.00
H307   H     0.06580   0.19473   0.62823   0.00000  Uiso   1.00
H308   H     0.06080   0.10893   0.54920   0.00000  Uiso   1.00
H309   H     0.11228   0.28106   0.58731   0.00000  Uiso   1.00
H310   H     0.01330   0.20002   0.73806   0.00000  Uiso   1.00
H311   H     0.07266   0.00468   0.47751   0.00000  Uiso   1.00
H312   H     0.18119   0.36763   0.55791   0.00000  Uiso   1.00
H313   H     0.97246   0.19675   0.87578   0.00000  Uiso   1.00
O314   O     0.12912   0.91683   0.48038   0.00000  Uiso   1.00
O315   O     0.27151   0.39301   0.58587   0.00000  Uiso   1.00
O316   O     0.99766   0.16881   0.00290   0.00000  Uiso   1.00
N317   N     0.16100   0.97034   0.56889   0.00000  Uiso   1.00
N318   N     0.26247   0.30967   0.64405   0.00000  Uiso   1.00
N319   N     0.06733   0.14993   0.94123   0.00000  Uiso   1.00
N320   N     0.09931   0.00279   0.51223   0.00000  Uiso   1.00
N321   N     0.20078   0.34212   0.58738   0.00000  Uiso   1.00
N322   N     0.00564   0.18237   0.88457   0.00000  Uiso   1.00
C323   C     0.33186   0.13551   0.29641   0.00000  Uiso   1.00
C324   C     0.34871   0.09641   0.35285   0.00000  Uiso   1.00
C325   C     0.32848   0.04578   0.36854   0.00000  Uiso   1.00
C326   C     0.34911   0.01620   0.42202   0.00000  Uiso   1.00
C327   C     0.36927   0.95240   0.50413   0.00000  Uiso   1.00
C328   C     0.32145   0.19019   0.33196   0.00000  Uiso   1.00
C329   C     0.27831   0.21840   0.33008   0.00000  Uiso   1.00
C330   C     0.27600   0.26775   0.36597   0.00000  Uiso   1.00
C331   C     0.25385   0.34956   0.41561   0.00000  Uiso   1.00
C332   C     0.37516   0.14564   0.25039   0.00000  Uiso   1.00
C333   C     0.37718   0.13641   0.17992   0.00000  Uiso   1.00
C334   C     0.42008   0.14828   0.14713   0.00000  Uiso   1.00
C335   C     0.48132   0.16092   0.07012   0.00000  Uiso   1.00
C336   C     0.40447   0.17301   0.36348   0.00000  Uiso   1.00
C337   C     0.38815   0.11678   0.38928   0.00000  Uiso   1.00
C338   C     0.40882   0.08727   0.44274   0.00000  Uiso   1.00
C339   C     0.38863   0.03660   0.45851   0.00000  Uiso   1.00
C340   C     0.36089   0.21055   0.36839   0.00000  Uiso   1.00
C341   C     0.35865   0.25988   0.40428   0.00000  Uiso   1.00
C342   C     0.31551   0.28816   0.40246   0.00000  Uiso   1.00
C343   C     0.41460   0.16601   0.28682   0.00000  Uiso   1.00
C344   C     0.45751   0.17790   0.25413   0.00000  Uiso   1.00
C345   C     0.45959   0.16869   0.18362   0.00000  Uiso   1.00
H346   H     0.30115   0.11966   0.26806   0.00000  Uiso   1.00
H347   H     0.29796   0.03004   0.34034   0.00000  Uiso   1.00
H348   H     0.24780   0.20263   0.30188   0.00000  Uiso   1.00
H349   H     0.34665   0.12065   0.15175   0.00000  Uiso   1.00
H350   H     0.31180   0.93966   0.43657   0.00000  Uiso   1.00
H351   H     0.20604   0.30359   0.35545   0.00000  Uiso   1.00
H352   H     0.41449   0.13073   0.03887   0.00000  Uiso   1.00
H353   H     0.43517   0.18887   0.39184   0.00000  Uiso   1.00
H354   H     0.43934   0.10304   0.47092   0.00000  Uiso   1.00
H355   H     0.38917   0.27563   0.43246   0.00000  Uiso   1.00
H356   H     0.48803   0.19366   0.28233   0.00000  Uiso   1.00
H357   H     0.42655   0.99892   0.54255   0.00000  Uiso   1.00
H358   H     0.32079   0.36285   0.46144   0.00000  Uiso   1.00
H359   H     0.52923   0.18999   0.14486   0.00000  Uiso   1.00
O360   O     0.36949   0.91159   0.53936   0.00000  Uiso   1.00
O361   O     0.23073   0.38905   0.43293   0.00000  Uiso   1.00
O362   O     0.50421   0.16226   0.01759   0.00000  Uiso   1.00
N363   N     0.33824   0.96538   0.45065   0.00000  Uiso   1.00
N364   N     0.23936   0.30563   0.37482   0.00000  Uiso   1.00
N365   N     0.43423   0.14404   0.07884   0.00000  Uiso   1.00
N366   N     0.39999   0.99727   0.50768   0.00000  Uiso   1.00
N367   N     0.30110   0.33751   0.43185   0.00000  Uiso   1.00
N368   N     0.49598   0.17592   0.13587   0.00000  Uiso   1.00
C369   C     0.33099   0.64043   0.72305   0.00000  Uiso   1.00
C370   C     0.34828   0.60148   0.66672   0.00000  Uiso   1.00
C371   C     0.32845   0.55066   0.65092   0.00000  Uiso   1.00
C372   C     0.34944   0.52126   0.59758   0.00000  Uiso   1.00
C373   C     0.37028   0.45764   0.51560   0.00000  Uiso   1.00
C374   C     0.32030   0.69500   0.68743   0.00000  Uiso   1.00
C375   C     0.27696   0.72281   0.68904   0.00000  Uiso   1.00
C376   C     0.27441   0.77214   0.65313   0.00000  Uiso   1.00
C377   C     0.25183   0.85373   0.60334   0.00000  Uiso   1.00
C378   C     0.37409   0.65096   0.76933   0.00000  Uiso   1.00
C379   C     0.37596   0.64176   0.83981   0.00000  Uiso   1.00
C380   C     0.41869   0.65403   0.87286   0.00000  Uiso   1.00
C381   C     0.47962   0.66725   0.95023   0.00000  Uiso   1.00
C382   C     0.40353   0.67859   0.65641   0.00000  Uiso   1.00
C383   C     0.38768   0.62221   0.63053   0.00000  Uiso   1.00
C384   C     0.40871   0.59288   0.57720   0.00000  Uiso   1.00
C385   C     0.38891   0.54203   0.56132   0.00000  Uiso   1.00
C386   C     0.35970   0.71573   0.65123   0.00000  Uiso   1.00
C387   C     0.35722   0.76503   0.61531   0.00000  Uiso   1.00
C388   C     0.31388   0.79291   0.61687   0.00000  Uiso   1.00
C389   C     0.41349   0.67169   0.73313   0.00000  Uiso   1.00
C390   C     0.45622   0.68398   0.76608   0.00000  Uiso   1.00
C391   C     0.45816   0.67480   0.83660   0.00000  Uiso   1.00
H392   H     0.30031   0.62430   0.75123   0.00000  Uiso   1.00
H393   H     0.29795   0.53464   0.67894   0.00000  Uiso   1.00
H394   H     0.24648   0.70676   0.71706   0.00000  Uiso   1.00
H395   H     0.34546   0.62572   0.86780   0.00000  Uiso   1.00
H396   H     0.31270   0.44438   0.58282   0.00000  Uiso   1.00
H397   H     0.20417   0.80733   0.66322   0.00000  Uiso   1.00
H398   H     0.41290   0.63645   0.98109   0.00000  Uiso   1.00
H399   H     0.43420   0.69473   0.62823   0.00000  Uiso   1.00
H400   H     0.43920   0.60893   0.54920   0.00000  Uiso   1.00
H401   H     0.38772   0.78106   0.58731   0.00000  Uiso   1.00
H402   H     0.48670   0.70002   0.73806   0.00000  Uiso   1.00
H403   H     0.42734   0.50468   0.47751   0.00000  Uiso   1.00
H404   H     0.31881   0.86763   0.55791   0.00000  Uiso   1.00
H405   H     0.52754   0.69675   0.87578   0.00000  Uiso   1.00
O406   O     0.37088   0.41683   0.48038   0.00000  Uiso   1.00
O407   O     0.22849   0.89301   0.58587   0.00000  Uiso   1.00
O408   O     0.50234   0.66881   0.00290   0.00000  Uiso   1.00
N409   N     0.33900   0.47034   0.56889   0.00000  Uiso   1.00
N410   N     0.23753   0.80967   0.64405   0.00000  Uiso   1.00
N411   N     0.43267   0.64993   0.94123   0.00000  Uiso   1.00
N412   N     0.40069   0.50279   0.51223   0.00000  Uiso   1.00
N413   N     0.29922   0.84212   0.58738   0.00000  Uiso   1.00
N414   N     0.49436   0.68237   0.88457   0.00000  Uiso   1.00
C415   C     0.16814   0.63551   0.29641   0.00000  Uiso   1.00
C416   C     0.15129   0.59641   0.35285   0.00000  Uiso   1.00
C417   C     0.17152   0.54578   0.36854   0.00000  Uiso   1.00
C418   C     0.15089   0.51620   0.42202   0.00000  Uiso   1.00
C419   C     0.13073   0.45240   0.50413   0.00000  Uiso   1.00
C420   C     0.17855   0.69019   0.33196   0.00000  Uiso   1.00
C421   C     0.22169   0.71840   0.33008   0.00000  Uiso   1.00
C422   C     0.22400   0.76775   0.36597   0.00000  Uiso   1.00
C423   C     0.24615   0.84956   0.41561   0.00000  Uiso   1.00
C424   C     0.12484   0.64564   0.25039   0.00000  Uiso   1.00
C425   C     0.12282   0.63641   0.17992   0.00000  Uiso   1.00
C426   C     0.07992   0.64828   0.14713   0.00000  Uiso   1.00
C427   C     0.01868   0.66092   0.07012   0.00000  Uiso   1.00
C428   C     0.09553   0.67301   0.36348   0.00000  Uiso   1.00
C429   C     0.11185   0.61678   0.38928   0.00000  Uiso   1.00
C430   C     0.09118   0.58727   0.44274   0.00000  Uiso   1.00
C431   C     0.11137   0.53660   0.45851   0.00000  Uiso   1.00
C432   C     0.13911   0.71055   0.36839   0.00000  Uiso   1.00
C433   C     0.14135   0.75988   0.40428   0.00000  Uiso   1.00
C434   C     0.18449   0.78816   0.40246   0.00000  Uiso   1.00
C435   C     0.08540   0.66601   0.28682   0.00000  Uiso   1.00
C436   C     0.04249   0.67790   0.25413   0.00000  Uiso   1.00
C437   C     0.04041   0.66869   0.18362   0.00000  Uiso   1.00
H438   H     0.19885   0.61966   0.26806   0.00000  Uiso   1.00
H439   H     0.20204   0.53004   0.34034   0.00000  Uiso   1.00
H440   H     0.25220   0.70263   0.30188   0.00000  Uiso   1.00
H441   H     0.15335   0.62065   0.15175   0.00000  Uiso   1.00
H442   H     0.18820   0.43966   0.43657   0.00000  Uiso   1.00
H443   H     0.29396   0.80359   0.35545   0.00000  Uiso   1.00
H444   H     0.08551   0.63073   0.03887   0.00000  Uiso   1.00
H445   H     0.06483   0.68887   0.39184   0.00000  Uiso   1.00
H446   H     0.06066   0.60304   0.47092   0.00000  Uiso   1.00
H447   H     0.11083   0.77563   0.43246   0.00000  Uiso   1.00
H448   H     0.01197   0.69366   0.28233   0.00000  Uiso   1.00
H449   H     0.07345   0.49892   0.54255   0.00000  Uiso   1.00
H450   H     0.17921   0.86285   0.46144   0.00000  Uiso   1.00
H451   H     0.97077   0.68999   0.14486   0.00000  Uiso   1.00
O452   O     0.13051   0.41159   0.53936   0.00000  Uiso   1.00
O453   O     0.26927   0.88905   0.43293   0.00000  Uiso   1.00
O454   O     0.99579   0.66226   0.01759   0.00000  Uiso   1.00
N455   N     0.16176   0.46538   0.45065   0.00000  Uiso   1.00
N456   N     0.26064   0.80563   0.37482   0.00000  Uiso   1.00
N457   N     0.06577   0.64404   0.07884   0.00000  Uiso   1.00
N458   N     0.10001   0.49727   0.50768   0.00000  Uiso   1.00
N459   N     0.19890   0.83751   0.43185   0.00000  Uiso   1.00
N460   N     0.00402   0.67592   0.13587   0.00000  Uiso   1.00
C461   C     0.16901   0.35957   0.22305   0.00000  Uiso   1.00
C462   C     0.15172   0.39852   0.16672   0.00000  Uiso   1.00
C463   C     0.17155   0.44934   0.15092   0.00000  Uiso   1.00
C464   C     0.15056   0.47874   0.09758   0.00000  Uiso   1.00
C465   C     0.12972   0.54236   0.01560   0.00000  Uiso   1.00
C466   C     0.17970   0.30500   0.18743   0.00000  Uiso   1.00
C467   C     0.22304   0.27719   0.18904   0.00000  Uiso   1.00
C468   C     0.22559   0.22786   0.15313   0.00000  Uiso   1.00
C469   C     0.24817   0.14627   0.10334   0.00000  Uiso   1.00
C470   C     0.12591   0.34904   0.26933   0.00000  Uiso   1.00
C471   C     0.12404   0.35824   0.33981   0.00000  Uiso   1.00
C472   C     0.08131   0.34597   0.37286   0.00000  Uiso   1.00
C473   C     0.02038   0.33275   0.45023   0.00000  Uiso   1.00
C474   C     0.09647   0.32141   0.15641   0.00000  Uiso   1.00
C475   C     0.11232   0.37779   0.13053   0.00000  Uiso   1.00
C476   C     0.09129   0.40712   0.07720   0.00000  Uiso   1.00
C477   C     0.11109   0.45797   0.06132   0.00000  Uiso   1.00
C478   C     0.14030   0.28427   0.15123   0.00000  Uiso   1.00
C479   C     0.14278   0.23497   0.11531   0.00000  Uiso   1.00
C480   C     0.18612   0.20709   0.11687   0.00000  Uiso   1.00
C481   C     0.08651   0.32831   0.23313   0.00000  Uiso   1.00
C482   C     0.04378   0.31602   0.26608   0.00000  Uiso   1.00
C483   C     0.04184   0.32520   0.33660   0.00000  Uiso   1.00
H484   H     0.19969   0.37570   0.25123   0.00000  Uiso   1.00
H485   H     0.20205   0.46536   0.17894   0.00000  Uiso   1.00
H486   H     0.25352   0.29324   0.21706   0.00000  Uiso   1.00
H487   H     0.15454   0.37428   0.36780   0.00000  Uiso   1.00
H488   H     0.18730   0.55562   0.08282   0.00000  Uiso   1.00
H489   H     0.29583   0.19267   0.16322   0.00000  Uiso   1.00
H490   H     0.08710   0.36355   0.48109   0.00000  Uiso   1.00
H491   H     0.06580   0.30527   0.12823   0.00000  Uiso   1.00
H492   H     0.06080   0.39107   0.04920   0.00000  Uiso   1.00
H493   H     0.11228   0.21894   0.08731   0.00000  Uiso   1.00
H494   H     0.01330   0.29998   0.23806   0.00000  Uiso   1.00
H495   H     0.07266   0.49532   0.97751   0.00000  Uiso   1.00
H496   H     0.18119   0.13237   0.05791   0.00000  Uiso   1.00
H497   H     0.97246   0.30325   0.37578   0.00000  Uiso   1.00
O498   O     0.12912   0.58317   0.98038   0.00000  Uiso   1.00
O499   O     0.27151   0.10699   0.08587   0.00000  Uiso   1.00
O500   O     0.99766   0.33119   0.50290   0.00000  Uiso   1.00
N501   N     0.16100   0.52966   0.06889   0.00000  Uiso   1.00
N502   N     0.26247   0.19033   0.14405   0.00000  Uiso   1.00
N503   N     0.06733   0.35007   0.44123   0.00000  Uiso   1.00
N504   N     0.09931   0.49721   0.01223   0.00000  Uiso   1.00
N505   N     0.20078   0.15788   0.08738   0.00000  Uiso   1.00
N506   N     0.00564   0.31763   0.38457   0.00000  Uiso   1.00
C507   C     0.33186   0.36449   0.79641   0.00000  Uiso   1.00
C508   C     0.34871   0.40359   0.85285   0.00000  Uiso   1.00
C509   C     0.32848   0.45422   0.86854   0.00000  Uiso   1.00
C510   C     0.34911   0.48380   0.92202   0.00000  Uiso   1.00
C511   C     0.36927   0.54760   0.00413   0.00000  Uiso   1.00
C512   C     0.32145   0.30981   0.83196   0.00000  Uiso   1.00
C513   C     0.27831   0.28160   0.83008   0.00000  Uiso   1.00
C514   C     0.27600   0.23225   0.86597   0.00000  Uiso   1.00
C515   C     0.25385   0.15044   0.91561   0.00000  Uiso   1.00
C516   C     0.37516   0.35436   0.75039   0.00000  Uiso   1.00
C517   C     0.37718   0.36359   0.67992   0.00000  Uiso   1.00
C518   C     0.42008   0.35172   0.64713   0.00000  Uiso   1.00
C519   C     0.48132   0.33908   0.57012   0.00000  Uiso   1.00
C520   C     0.40447   0.32699   0.86348   0.00000  Uiso   1.00
C521   C     0.38815   0.38322   0.88928   0.00000  Uiso   1.00
C522   C     0.40882   0.41273   0.94274   0.00000  Uiso   1.00
C523   C     0.38863   0.46340   0.95851   0.00000  Uiso   1.00
C524   C     0.36089   0.28945   0.86839   0.00000  Uiso   1.00
C525   C     0.35865   0.24012   0.90428   0.00000  Uiso   1.00
C526   C     0.31551   0.21184   0.90246   0.00000  Uiso   1.00
C527   C     0.41460   0.33399   0.78682   0.00000  Uiso   1.00
C528   C     0.45751   0.32210   0.75413   0.00000  Uiso   1.00
C529   C     0.45959   0.33131   0.68362   0.00000  Uiso   1.00
H530   H     0.30115   0.38034   0.76806   0.00000  Uiso   1.00
H531   H     0.29796   0.46996   0.84034   0.00000  Uiso   1.00
H532   H     0.24780   0.29737   0.80188   0.00000  Uiso   1.00
H533   H     0.34665   0.37935   0.65175   0.00000  Uiso   1.00
H534   H     0.31180   0.56034   0.93657   0.00000  Uiso   1.00
H535   H     0.20604   0.19641   0.85545   0.00000  Uiso   1.00
H536   H     0.41449   0.36927   0.53887   0.00000  Uiso   1.00
H537   H     0.43517   0.31113   0.89184   0.00000  Uiso   1.00
H538   H     0.43934   0.39696   0.97092   0.00000  Uiso   1.00
H539   H     0.38917   0.22437   0.93246   0.00000  Uiso   1.00
H540   H     0.48803   0.30634   0.78233   0.00000  Uiso   1.00
H541   H     0.42655   0.50108   0.04255   0.00000  Uiso   1.00
H542   H     0.32079   0.13715   0.96144   0.00000  Uiso   1.00
H543   H     0.52923   0.31001   0.64486   0.00000  Uiso   1.00
O544   O     0.36949   0.58841   0.03936   0.00000  Uiso   1.00
O545   O     0.23073   0.11095   0.93293   0.00000  Uiso   1.00
O546   O     0.50421   0.33774   0.51759   0.00000  Uiso   1.00
N547   N     0.33824   0.53462   0.95065   0.00000  Uiso   1.00
N548   N     0.23936   0.19437   0.87482   0.00000  Uiso   1.00
N549   N     0.43423   0.35596   0.57884   0.00000  Uiso   1.00
N550   N     0.39999   0.50273   0.00768   0.00000  Uiso   1.00
N551   N     0.30110   0.16249   0.93185   0.00000  Uiso   1.00
N552   N     0.49598   0.32408   0.63587   0.00000  Uiso   1.00
C553   C     0.66901   0.14043   0.77695   0.00000  Uiso   1.00
C554   C     0.65172   0.10148   0.83328   0.00000  Uiso   1.00
C555   C     0.67155   0.05066   0.84908   0.00000  Uiso   1.00
C556   C     0.65056   0.02126   0.90242   0.00000  Uiso   1.00
C557   C     0.62972   0.95764   0.98440   0.00000  Uiso   1.00
C558   C     0.67970   0.19500   0.81257   0.00000  Uiso   1.00
C559   C     0.72304   0.22281   0.81096   0.00000  Uiso   1.00
C560   C     0.72559   0.27214   0.84687   0.00000  Uiso   1.00
C561   C     0.74817   0.35373   0.89666   0.00000  Uiso   1.00
C562   C     0.62591   0.15096   0.73067   0.00000  Uiso   1.00
C563   C     0.62404   0.14176   0.66019   0.00000  Uiso   1.00
C564   C     0.58131   0.15403   0.62714   0.00000  Uiso   1.00
C565   C     0.52038   0.16725   0.54977   0.00000  Uiso   1.00
C566   C     0.59647   0.17859   0.84359   0.00000  Uiso   1.00
C567   C     0.61232   0.12221   0.86947   0.00000  Uiso   1.00
C568   C     0.59129   0.09288   0.92280   0.00000  Uiso   1.00
C569   C     0.61109   0.04203   0.93868   0.00000  Uiso   1.00
C570   C     0.64030   0.21573   0.84877   0.00000  Uiso   1.00
C571   C     0.64278   0.26503   0.88469   0.00000  Uiso   1.00
C572   C     0.68612   0.29291   0.88313   0.00000  Uiso   1.00
C573   C     0.58651   0.17169   0.76687   0.00000  Uiso   1.00
C574   C     0.54378   0.18398   0.73392   0.00000  Uiso   1.00
C575   C     0.54184   0.17480   0.66340   0.00000  Uiso   1.00
H576   H     0.69969   0.12430   0.74877   0.00000  Uiso   1.00
H577   H     0.70205   0.03464   0.82106   0.00000  Uiso   1.00
H578   H     0.75352   0.20676   0.78294   0.00000  Uiso   1.00
H579   H     0.65454   0.12572   0.63220   0.00000  Uiso   1.00
H580   H     0.68730   0.94438   0.91718   0.00000  Uiso   1.00
H581   H     0.79583   0.30733   0.83678   0.00000  Uiso   1.00
H582   H     0.58710   0.13645   0.51891   0.00000  Uiso   1.00
H583   H     0.56580   0.19473   0.87177   0.00000  Uiso   1.00
H584   H     0.56080   0.10893   0.95080   0.00000  Uiso   1.00
H585   H     0.61228   0.28106   0.91269   0.00000  Uiso   1.00
H586   H     0.51330   0.20002   0.76194   0.00000  Uiso   1.00
H587   H     0.57266   0.00468   0.02249   0.00000  Uiso   1.00
H588   H     0.68119   0.36763   0.94209   0.00000  Uiso   1.00
H589   H     0.47246   0.19675   0.62422   0.00000  Uiso   1.00
O590   O     0.62912   0.91683   0.01962   0.00000  Uiso   1.00
O591   O     0.77151   0.39301   0.91413   0.00000  Uiso   1.00
O592   O     0.49766   0.16881   0.49710   0.00000  Uiso   1.00
N593   N     0.66100   0.97034   0.93111   0.00000  Uiso   1.00
N594   N     0.76247   0.30967   0.85595   0.00000  Uiso   1.00
N595   N     0.56733   0.14993   0.55877   0.00000  Uiso   1.00
N596   N     0.59931   0.00279   0.98777   0.00000  Uiso   1.00
N597   N     0.70078   0.34212   0.91262   0.00000  Uiso   1.00
N598   N     0.50564   0.18237   0.61543   0.00000  Uiso   1.00
C599   C     0.83186   0.13551   0.20359   0.00000  Uiso   1.00
C600   C     0.84871   0.09641   0.14715   0.00000  Uiso   1.00
C601   C     0.82848   0.04578   0.13146   0.00000  Uiso   1.00
C602   C     0.84911   0.01620   0.07798   0.00000  Uiso   1.00
C603   C     0.86927   0.95240   0.99587   0.00000  Uiso   1.00
C604   C     0.82145   0.19019   0.16804   0.00000  Uiso   1.00
C605   C     0.77831   0.21840   0.16992   0.00000  Uiso   1.00
C606   C     0.77600   0.26775   0.13403   0.00000  Uiso   1.00
C607   C     0.75385   0.34956   0.08439   0.00000  Uiso   1.00
C608   C     0.87516   0.14564   0.24961   0.00000  Uiso   1.00
C609   C     0.87718   0.13641   0.32008   0.00000  Uiso   1.00
C610   C     0.92008   0.14828   0.35287   0.00000  Uiso   1.00
C611   C     0.98132   0.16092   0.42988   0.00000  Uiso   1.00
C612   C     0.90447   0.17301   0.13652   0.00000  Uiso   1.00
C613   C     0.88815   0.11678   0.11072   0.00000  Uiso   1.00
C614   C     0.90882   0.08727   0.05726   0.00000  Uiso   1.00
C615   C     0.88863   0.03660   0.04149   0.00000  Uiso   1.00
C616   C     0.86089   0.21055   0.13161   0.00000  Uiso   1.00
C617   C     0.85865   0.25988   0.09572   0.00000  Uiso   1.00
C618   C     0.81551   0.28816   0.09754   0.00000  Uiso   1.00
C619   C     0.91460   0.16601   0.21318   0.00000  Uiso   1.00
C620   C     0.95751   0.17790   0.24587   0.00000  Uiso   1.00
C621   C     0.95959   0.16869   0.31638   0.00000  Uiso   1.00
H622   H     0.80115   0.11966   0.23194   0.00000  Uiso   1.00
H623   H     0.79796   0.03004   0.15966   0.00000  Uiso   1.00
H624   H     0.74780   0.20263   0.19812   0.00000  Uiso   1.00
H625   H     0.84665   0.12065   0.34825   0.00000  Uiso   1.00
H626   H     0.81180   0.93966   0.06343   0.00000  Uiso   1.00
H627   H     0.70604   0.30359   0.14455   0.00000  Uiso   1.00
H628   H     0.91449   0.13073   0.46113   0.00000  Uiso   1.00
H629   H     0.93517   0.18887   0.10816   0.00000  Uiso   1.00
H630   H     0.93934   0.10304   0.02908   0.00000  Uiso   1.00
H631   H     0.88917   0.27563   0.06754   0.00000  Uiso   1.00
H632   H     0.98803   0.19366   0.21767   0.00000  Uiso   1.00
H633   H     0.92655   0.99892   0.95745   0.00000  Uiso   1.00
H634   H     0.82079   0.36285   0.03856   0.00000  Uiso   1.00
H635   H     0.02923   0.18999   0.35514   0.00000  Uiso   1.00
O636   O     0.86949   0.91159   0.96064   0.00000  Uiso   1.00
O637   O     0.73073   0.38905   0.06707   0.00000  Uiso   1.00
O638   O     0.00421   0.16226   0.48241   0.00000  Uiso   1.00
N639   N     0.83824   0.96538   0.04935   0.00000  Uiso   1.00
N640   N     0.73936   0.30563   0.12518   0.00000  Uiso   1.00
N641   N     0.93423   0.14404   0.42116   0.00000  Uiso   1.00
N642   N     0.89999   0.99727   0.99232   0.00000  Uiso   1.00
N643   N     0.80110   0.33751   0.06815   0.00000  Uiso   1.00
N644   N     0.99598   0.17592   0.36413   0.00000  Uiso   1.00
C645   C     0.83099   0.85957   0.27695   0.00000  Uiso   1.00
C646   C     0.84828   0.89852   0.33328   0.00000  Uiso   1.00
C647   C     0.82845   0.94934   0.34908   0.00000  Uiso   1.00
C648   C     0.84944   0.97874   0.40242   0.00000  Uiso   1.00
C649   C     0.87028   0.04236   0.48440   0.00000  Uiso   1.00
C650   C     0.82030   0.80500   0.31257   0.00000  Uiso   1.00
C651   C     0.77696   0.77719   0.31096   0.00000  Uiso   1.00
C652   C     0.77441   0.72786   0.34687   0.00000  Uiso   1.00
C653   C     0.75183   0.64627   0.39666   0.00000  Uiso   1.00
C654   C     0.87409   0.84904   0.23067   0.00000  Uiso   1.00
C655   C     0.87596   0.85824   0.16019   0.00000  Uiso   1.00
C656   C     0.91869   0.84597   0.12714   0.00000  Uiso   1.00
C657   C     0.97962   0.83275   0.04977   0.00000  Uiso   1.00
C658   C     0.90353   0.82141   0.34359   0.00000  Uiso   1.00
C659   C     0.88768   0.87779   0.36947   0.00000  Uiso   1.00
C660   C     0.90871   0.90712   0.42280   0.00000  Uiso   1.00
C661   C     0.88891   0.95797   0.43868   0.00000  Uiso   1.00
C662   C     0.85970   0.78427   0.34877   0.00000  Uiso   1.00
C663   C     0.85722   0.73497   0.38469   0.00000  Uiso   1.00
C664   C     0.81388   0.70709   0.38313   0.00000  Uiso   1.00
C665   C     0.91349   0.82831   0.26687   0.00000  Uiso   1.00
C666   C     0.95622   0.81602   0.23392   0.00000  Uiso   1.00
C667   C     0.95816   0.82520   0.16340   0.00000  Uiso   1.00
H668   H     0.80031   0.87570   0.24877   0.00000  Uiso   1.00
H669   H     0.79795   0.96536   0.32106   0.00000  Uiso   1.00
H670   H     0.74648   0.79324   0.28294   0.00000  Uiso   1.00
H671   H     0.84546   0.87428   0.13220   0.00000  Uiso   1.00
H672   H     0.81270   0.05562   0.41718   0.00000  Uiso   1.00
H673   H     0.70417   0.69267   0.33678   0.00000  Uiso   1.00
H674   H     0.91290   0.86355   0.01891   0.00000  Uiso   1.00
H675   H     0.93420   0.80527   0.37177   0.00000  Uiso   1.00
H676   H     0.93920   0.89107   0.45080   0.00000  Uiso   1.00
H677   H     0.88772   0.71894   0.41269   0.00000  Uiso   1.00
H678   H     0.98670   0.79998   0.26194   0.00000  Uiso   1.00
H679   H     0.92734   0.99532   0.52249   0.00000  Uiso   1.00
H680   H     0.81881   0.63237   0.44209   0.00000  Uiso   1.00
H681   H     0.02754   0.80325   0.12422   0.00000  Uiso   1.00
O682   O     0.87088   0.08317   0.51962   0.00000  Uiso   1.00
O683   O     0.72849   0.60699   0.41413   0.00000  Uiso   1.00
O684   O     0.00234   0.83119   0.99710   0.00000  Uiso   1.00
N685   N     0.83900   0.02966   0.43111   0.00000  Uiso   1.00
N686   N     0.73753   0.69033   0.35595   0.00000  Uiso   1.00
N687   N     0.93267   0.85007   0.05877   0.00000  Uiso   1.00
N688   N     0.90069   0.99721   0.48777   0.00000  Uiso   1.00
N689   N     0.79922   0.65788   0.41262   0.00000  Uiso   1.00
N690   N     0.99436   0.81763   0.11543   0.00000  Uiso   1.00
C691   C     0.66814   0.86449   0.70359   0.00000  Uiso   1.00
C692   C     0.65129   0.90359   0.64715   0.00000  Uiso   1.00
C693   C     0.67152   0.95422   0.63146   0.00000  Uiso   1.00
C694   C     0.65089   0.98380   0.57798   0.00000  Uiso   1.00
C695   C     0.63073   0.04760   0.49587   0.00000  Uiso   1.00
C696   C     0.67855   0.80981   0.66804   0.00000  Uiso   1.00
C697   C     0.72169   0.78160   0.66992   0.00000  Uiso   1.00
C698   C     0.72400   0.73225   0.63403   0.00000  Uiso   1.00
C699   C     0.74615   0.65044   0.58439   0.00000  Uiso   1.00
C700   C     0.62484   0.85436   0.74961   0.00000  Uiso   1.00
C701   C     0.62282   0.86359   0.82008   0.00000  Uiso   1.00
C702   C     0.57992   0.85172   0.85287   0.00000  Uiso   1.00
C703   C     0.51868   0.83908   0.92988   0.00000  Uiso   1.00
C704   C     0.59553   0.82699   0.63652   0.00000  Uiso   1.00
C705   C     0.61185   0.88322   0.61072   0.00000  Uiso   1.00
C706   C     0.59118   0.91273   0.55726   0.00000  Uiso   1.00
C707   C     0.61137   0.96340   0.54149   0.00000  Uiso   1.00
C708   C     0.63911   0.78945   0.63161   0.00000  Uiso   1.00
C709   C     0.64135   0.74012   0.59572   0.00000  Uiso   1.00
C710   C     0.68449   0.71184   0.59754   0.00000  Uiso   1.00
C711   C     0.58540   0.83399   0.71318   0.00000  Uiso   1.00
C712   C     0.54249   0.82210   0.74587   0.00000  Uiso   1.00
C713   C     0.54041   0.83131   0.81638   0.00000  Uiso   1.00
H714   H     0.69885   0.88034   0.73194   0.00000  Uiso   1.00
H715   H     0.70204   0.96996   0.65966   0.00000  Uiso   1.00
H716   H     0.75220   0.79737   0.69812   0.00000  Uiso   1.00
H717   H     0.65335   0.87935   0.84825   0.00000  Uiso   1.00
H718   H     0.68820   0.06034   0.56343   0.00000  Uiso   1.00
H719   H     0.79396   0.69641   0.64455   0.00000  Uiso   1.00
H720   H     0.58551   0.86927   0.96113   0.00000  Uiso   1.00
H721   H     0.56483   0.81113   0.60816   0.00000  Uiso   1.00
H722   H     0.56066   0.89696   0.52908   0.00000  Uiso   1.00
H723   H     0.61083   0.72437   0.56754   0.00000  Uiso   1.00
H724   H     0.51197   0.80634   0.71767   0.00000  Uiso   1.00
H725   H     0.57345   0.00108   0.45745   0.00000  Uiso   1.00
H726   H     0.67921   0.63715   0.53856   0.00000  Uiso   1.00
H727   H     0.47077   0.81001   0.85514   0.00000  Uiso   1.00
O728   O     0.63051   0.08841   0.46064   0.00000  Uiso   1.00
O729   O     0.76927   0.61095   0.56707   0.00000  Uiso   1.00
O730   O     0.49579   0.83774   0.98241   0.00000  Uiso   1.00
N731   N     0.66176   0.03462   0.54935   0.00000  Uiso   1.00
N732   N     0.76064   0.69437   0.62518   0.00000  Uiso   1.00
N733   N     0.56577   0.85596   0.92116   0.00000  Uiso   1.00
N734   N     0.60001   0.00273   0.49232   0.00000  Uiso   1.00
N735   N     0.69890   0.66249   0.56815   0.00000  Uiso   1.00
N736   N     0.50402   0.82408   0.86413   0.00000  Uiso   1.00
