data_job_00771
_audit_creation_date              2018-12-19
_audit_creation_method            'Materials Studio'
_symmetry_space_group_name_H-M    'P1'
_symmetry_Int_Tables_number       1
_symmetry_cell_setting            triclinic
loop_
_symmetry_equiv_pos_as_xyz
  x,y,z
_cell_length_a                    64.1775
_cell_length_b                    64.1775
_cell_length_c                    7.0628
_cell_angle_alpha                 90.0000
_cell_angle_beta                  90.0000
_cell_angle_gamma                 90.0000
loop_
_atom_site_label
_atom_site_type_symbol
_atom_site_fract_x
_atom_site_fract_y
_atom_site_fract_z
_atom_site_U_iso_or_equiv
_atom_site_adp_type
_atom_site_occupancy
C1     C     0.25308   0.89484   0.09140   0.00000  Uiso   1.00
C2     C     0.27040   0.88390   0.20073   0.00000  Uiso   1.00
C3     C     0.28794   0.87469   0.12186   0.00000  Uiso   1.00
C4     C     0.30196   0.86547   0.24592   0.00000  Uiso   1.00
C5     C     0.32937   0.84846   0.38589   0.00000  Uiso   1.00
C6     C     0.23291   0.88388   0.14685   0.00000  Uiso   1.00
C7     C     0.21891   0.87465   0.02268   0.00000  Uiso   1.00
C8     C     0.20137   0.86542   0.10139   0.00000  Uiso   1.00
C9     C     0.17056   0.84839   0.15769   0.00000  Uiso   1.00
C10    C     0.25164   0.91676   0.17371   0.00000  Uiso   1.00
C11    C     0.25338   0.93519   0.07211   0.00000  Uiso   1.00
C12    C     0.25161   0.95364   0.17342   0.00000  Uiso   1.00
C13    C     0.24987   0.98768   0.27142   0.00000  Uiso   1.00
C14    C     0.24681   0.89485   0.45197   0.00000  Uiso   1.00
C15    C     0.26699   0.88390   0.39658   0.00000  Uiso   1.00
C16    C     0.28099   0.87469   0.52079   0.00000  Uiso   1.00
C17    C     0.29854   0.86547   0.44212   0.00000  Uiso   1.00
C18    C     0.22950   0.88388   0.34269   0.00000  Uiso   1.00
C19    C     0.21197   0.87466   0.42160   0.00000  Uiso   1.00
C20    C     0.19796   0.86542   0.29759   0.00000  Uiso   1.00
C21    C     0.24823   0.91677   0.36956   0.00000  Uiso   1.00
C22    C     0.24644   0.93520   0.47104   0.00000  Uiso   1.00
C23    C     0.24819   0.95365   0.36962   0.00000  Uiso   1.00
H24    H     0.25574   0.89484   0.93893   0.00000  Uiso   1.00
H25    H     0.29057   0.87468   0.97029   0.00000  Uiso   1.00
H26    H     0.22156   0.87465   0.87113   0.00000  Uiso   1.00
H27    H     0.25602   0.93518   0.92056   0.00000  Uiso   1.00
H28    H     0.32768   0.85233   0.09143   0.00000  Uiso   1.00
H29    H     0.18216   0.85227   0.88233   0.00000  Uiso   1.00
H30    H     0.25484   0.97991   0.98655   0.00000  Uiso   1.00
H31    H     0.24415   0.89485   0.60445   0.00000  Uiso   1.00
H32    H     0.27835   0.87470   0.67234   0.00000  Uiso   1.00
H33    H     0.20934   0.87467   0.57317   0.00000  Uiso   1.00
H34    H     0.24380   0.93519   0.62260   0.00000  Uiso   1.00
H35    H     0.31776   0.85234   0.66124   0.00000  Uiso   1.00
H36    H     0.17224   0.85228   0.45213   0.00000  Uiso   1.00
H37    H     0.24492   0.97992   0.55636   0.00000  Uiso   1.00
O38    O     0.34542   0.83907   0.40898   0.00000  Uiso   1.00
O39    O     0.15450   0.83900   0.13464   0.00000  Uiso   1.00
O40    O     0.24986   0.00645   0.27138   0.00000  Uiso   1.00
N41    N     0.32065   0.85511   0.21622   0.00000  Uiso   1.00
N42    N     0.18460   0.85504   0.02072   0.00000  Uiso   1.00
N43    N     0.25255   0.97437   0.11816   0.00000  Uiso   1.00
N44    N     0.31532   0.85511   0.52283   0.00000  Uiso   1.00
N45    N     0.17927   0.85505   0.32733   0.00000  Uiso   1.00
N46    N     0.24721   0.97438   0.42477   0.00000  Uiso   1.00
C47    C     0.75308   0.39484   0.59140   0.00000  Uiso   1.00
C48    C     0.77040   0.38390   0.70073   0.00000  Uiso   1.00
C49    C     0.78794   0.37469   0.62186   0.00000  Uiso   1.00
C50    C     0.80196   0.36547   0.74592   0.00000  Uiso   1.00
C51    C     0.82937   0.34846   0.88589   0.00000  Uiso   1.00
C52    C     0.73291   0.38388   0.64685   0.00000  Uiso   1.00
C53    C     0.71891   0.37465   0.52268   0.00000  Uiso   1.00
C54    C     0.70137   0.36542   0.60139   0.00000  Uiso   1.00
C55    C     0.67056   0.34839   0.65769   0.00000  Uiso   1.00
C56    C     0.75164   0.41676   0.67371   0.00000  Uiso   1.00
C57    C     0.75338   0.43519   0.57211   0.00000  Uiso   1.00
C58    C     0.75161   0.45364   0.67342   0.00000  Uiso   1.00
C59    C     0.74987   0.48768   0.77142   0.00000  Uiso   1.00
C60    C     0.74681   0.39485   0.95197   0.00000  Uiso   1.00
C61    C     0.76699   0.38390   0.89658   0.00000  Uiso   1.00
C62    C     0.78099   0.37469   0.02079   0.00000  Uiso   1.00
C63    C     0.79854   0.36547   0.94212   0.00000  Uiso   1.00
C64    C     0.72950   0.38388   0.84269   0.00000  Uiso   1.00
C65    C     0.71197   0.37466   0.92160   0.00000  Uiso   1.00
C66    C     0.69796   0.36542   0.79759   0.00000  Uiso   1.00
C67    C     0.74823   0.41677   0.86956   0.00000  Uiso   1.00
C68    C     0.74644   0.43520   0.97104   0.00000  Uiso   1.00
C69    C     0.74819   0.45365   0.86962   0.00000  Uiso   1.00
H70    H     0.75574   0.39484   0.43893   0.00000  Uiso   1.00
H71    H     0.79057   0.37468   0.47029   0.00000  Uiso   1.00
H72    H     0.72156   0.37465   0.37113   0.00000  Uiso   1.00
H73    H     0.75602   0.43518   0.42056   0.00000  Uiso   1.00
H74    H     0.82768   0.35233   0.59143   0.00000  Uiso   1.00
H75    H     0.68216   0.35227   0.38233   0.00000  Uiso   1.00
H76    H     0.75484   0.47991   0.48655   0.00000  Uiso   1.00
H77    H     0.74415   0.39485   0.10445   0.00000  Uiso   1.00
H78    H     0.77835   0.37470   0.17234   0.00000  Uiso   1.00
H79    H     0.70934   0.37467   0.07317   0.00000  Uiso   1.00
H80    H     0.74380   0.43519   0.12260   0.00000  Uiso   1.00
H81    H     0.81776   0.35234   0.16124   0.00000  Uiso   1.00
H82    H     0.67224   0.35228   0.95213   0.00000  Uiso   1.00
H83    H     0.74492   0.47992   0.05636   0.00000  Uiso   1.00
O84    O     0.84542   0.33907   0.90898   0.00000  Uiso   1.00
O85    O     0.65450   0.33900   0.63464   0.00000  Uiso   1.00
O86    O     0.74986   0.50645   0.77138   0.00000  Uiso   1.00
N87    N     0.82065   0.35511   0.71622   0.00000  Uiso   1.00
N88    N     0.68460   0.35504   0.52072   0.00000  Uiso   1.00
N89    N     0.75255   0.47437   0.61816   0.00000  Uiso   1.00
N90    N     0.81532   0.35511   0.02283   0.00000  Uiso   1.00
N91    N     0.67927   0.35505   0.82733   0.00000  Uiso   1.00
N92    N     0.74721   0.47438   0.92477   0.00000  Uiso   1.00
C93    C     0.24692   0.60516   0.59140   0.00000  Uiso   1.00
C94    C     0.22960   0.61610   0.70073   0.00000  Uiso   1.00
C95    C     0.21206   0.62531   0.62186   0.00000  Uiso   1.00
C96    C     0.19804   0.63453   0.74592   0.00000  Uiso   1.00
C97    C     0.17063   0.65154   0.88589   0.00000  Uiso   1.00
C98    C     0.26709   0.61612   0.64685   0.00000  Uiso   1.00
C99    C     0.28109   0.62535   0.52268   0.00000  Uiso   1.00
C100   C     0.29863   0.63458   0.60139   0.00000  Uiso   1.00
C101   C     0.32944   0.65161   0.65769   0.00000  Uiso   1.00
C102   C     0.24836   0.58324   0.67371   0.00000  Uiso   1.00
C103   C     0.24662   0.56481   0.57211   0.00000  Uiso   1.00
C104   C     0.24839   0.54636   0.67342   0.00000  Uiso   1.00
C105   C     0.25013   0.51232   0.77142   0.00000  Uiso   1.00
C106   C     0.25319   0.60515   0.95197   0.00000  Uiso   1.00
C107   C     0.23301   0.61610   0.89658   0.00000  Uiso   1.00
C108   C     0.21901   0.62531   0.02079   0.00000  Uiso   1.00
C109   C     0.20146   0.63453   0.94212   0.00000  Uiso   1.00
C110   C     0.27050   0.61612   0.84269   0.00000  Uiso   1.00
C111   C     0.28803   0.62534   0.92160   0.00000  Uiso   1.00
C112   C     0.30204   0.63458   0.79759   0.00000  Uiso   1.00
C113   C     0.25177   0.58323   0.86956   0.00000  Uiso   1.00
C114   C     0.25356   0.56480   0.97104   0.00000  Uiso   1.00
C115   C     0.25181   0.54635   0.86962   0.00000  Uiso   1.00
H116   H     0.24426   0.60516   0.43893   0.00000  Uiso   1.00
H117   H     0.20943   0.62532   0.47029   0.00000  Uiso   1.00
H118   H     0.27844   0.62535   0.37113   0.00000  Uiso   1.00
H119   H     0.24398   0.56482   0.42056   0.00000  Uiso   1.00
H120   H     0.17232   0.64767   0.59143   0.00000  Uiso   1.00
H121   H     0.31784   0.64773   0.38233   0.00000  Uiso   1.00
H122   H     0.24516   0.52009   0.48655   0.00000  Uiso   1.00
H123   H     0.25585   0.60515   0.10445   0.00000  Uiso   1.00
H124   H     0.22165   0.62530   0.17234   0.00000  Uiso   1.00
H125   H     0.29066   0.62533   0.07317   0.00000  Uiso   1.00
H126   H     0.25620   0.56481   0.12260   0.00000  Uiso   1.00
H127   H     0.18224   0.64766   0.16124   0.00000  Uiso   1.00
H128   H     0.32776   0.64772   0.95213   0.00000  Uiso   1.00
H129   H     0.25508   0.52008   0.05636   0.00000  Uiso   1.00
O130   O     0.15458   0.66093   0.90898   0.00000  Uiso   1.00
O131   O     0.34550   0.66100   0.63464   0.00000  Uiso   1.00
O132   O     0.25014   0.49355   0.77138   0.00000  Uiso   1.00
N133   N     0.17935   0.64489   0.71622   0.00000  Uiso   1.00
N134   N     0.31540   0.64496   0.52072   0.00000  Uiso   1.00
N135   N     0.24745   0.52563   0.61816   0.00000  Uiso   1.00
N136   N     0.18468   0.64489   0.02283   0.00000  Uiso   1.00
N137   N     0.32073   0.64495   0.82733   0.00000  Uiso   1.00
N138   N     0.25279   0.52562   0.92477   0.00000  Uiso   1.00
C139   C     0.74692   0.10516   0.09140   0.00000  Uiso   1.00
C140   C     0.72960   0.11610   0.20073   0.00000  Uiso   1.00
C141   C     0.71206   0.12531   0.12186   0.00000  Uiso   1.00
C142   C     0.69804   0.13453   0.24592   0.00000  Uiso   1.00
C143   C     0.67063   0.15154   0.38589   0.00000  Uiso   1.00
C144   C     0.76709   0.11612   0.14685   0.00000  Uiso   1.00
C145   C     0.78109   0.12535   0.02268   0.00000  Uiso   1.00
C146   C     0.79863   0.13458   0.10139   0.00000  Uiso   1.00
C147   C     0.82944   0.15161   0.15769   0.00000  Uiso   1.00
C148   C     0.74836   0.08324   0.17371   0.00000  Uiso   1.00
C149   C     0.74662   0.06481   0.07211   0.00000  Uiso   1.00
C150   C     0.74839   0.04636   0.17342   0.00000  Uiso   1.00
C151   C     0.75013   0.01232   0.27142   0.00000  Uiso   1.00
C152   C     0.75319   0.10515   0.45197   0.00000  Uiso   1.00
C153   C     0.73301   0.11610   0.39658   0.00000  Uiso   1.00
C154   C     0.71901   0.12531   0.52079   0.00000  Uiso   1.00
C155   C     0.70146   0.13453   0.44212   0.00000  Uiso   1.00
C156   C     0.77050   0.11612   0.34269   0.00000  Uiso   1.00
C157   C     0.78803   0.12534   0.42160   0.00000  Uiso   1.00
C158   C     0.80204   0.13458   0.29759   0.00000  Uiso   1.00
C159   C     0.75177   0.08323   0.36956   0.00000  Uiso   1.00
C160   C     0.75356   0.06480   0.47104   0.00000  Uiso   1.00
C161   C     0.75181   0.04635   0.36962   0.00000  Uiso   1.00
H162   H     0.74426   0.10516   0.93893   0.00000  Uiso   1.00
H163   H     0.70943   0.12532   0.97029   0.00000  Uiso   1.00
H164   H     0.77844   0.12535   0.87113   0.00000  Uiso   1.00
H165   H     0.74398   0.06482   0.92056   0.00000  Uiso   1.00
H166   H     0.67232   0.14767   0.09143   0.00000  Uiso   1.00
H167   H     0.81784   0.14773   0.88233   0.00000  Uiso   1.00
H168   H     0.74516   0.02009   0.98655   0.00000  Uiso   1.00
H169   H     0.75585   0.10515   0.60445   0.00000  Uiso   1.00
H170   H     0.72165   0.12530   0.67234   0.00000  Uiso   1.00
H171   H     0.79066   0.12533   0.57317   0.00000  Uiso   1.00
H172   H     0.75620   0.06481   0.62260   0.00000  Uiso   1.00
H173   H     0.68224   0.14766   0.66124   0.00000  Uiso   1.00
H174   H     0.82776   0.14772   0.45213   0.00000  Uiso   1.00
H175   H     0.75508   0.02008   0.55636   0.00000  Uiso   1.00
O176   O     0.65458   0.16093   0.40898   0.00000  Uiso   1.00
O177   O     0.84550   0.16100   0.13464   0.00000  Uiso   1.00
O178   O     0.75014   0.99355   0.27138   0.00000  Uiso   1.00
N179   N     0.67935   0.14489   0.21622   0.00000  Uiso   1.00
N180   N     0.81540   0.14496   0.02072   0.00000  Uiso   1.00
N181   N     0.74745   0.02563   0.11816   0.00000  Uiso   1.00
N182   N     0.68468   0.14489   0.52283   0.00000  Uiso   1.00
N183   N     0.82073   0.14495   0.32733   0.00000  Uiso   1.00
N184   N     0.75279   0.02562   0.42477   0.00000  Uiso   1.00
C185   C     0.10516   0.75308   0.34140   0.00000  Uiso   1.00
C186   C     0.11610   0.77040   0.45073   0.00000  Uiso   1.00
C187   C     0.12531   0.78794   0.37186   0.00000  Uiso   1.00
C188   C     0.13453   0.80196   0.49592   0.00000  Uiso   1.00
C189   C     0.15154   0.82937   0.63589   0.00000  Uiso   1.00
C190   C     0.11612   0.73291   0.39685   0.00000  Uiso   1.00
C191   C     0.12535   0.71891   0.27268   0.00000  Uiso   1.00
C192   C     0.13458   0.70137   0.35139   0.00000  Uiso   1.00
C193   C     0.15161   0.67056   0.40769   0.00000  Uiso   1.00
C194   C     0.08324   0.75164   0.42371   0.00000  Uiso   1.00
C195   C     0.06481   0.75338   0.32211   0.00000  Uiso   1.00
C196   C     0.04636   0.75161   0.42342   0.00000  Uiso   1.00
C197   C     0.01232   0.74987   0.52142   0.00000  Uiso   1.00
C198   C     0.10515   0.74681   0.70197   0.00000  Uiso   1.00
C199   C     0.11610   0.76699   0.64658   0.00000  Uiso   1.00
C200   C     0.12531   0.78099   0.77079   0.00000  Uiso   1.00
C201   C     0.13453   0.79854   0.69212   0.00000  Uiso   1.00
C202   C     0.11612   0.72950   0.59269   0.00000  Uiso   1.00
C203   C     0.12534   0.71197   0.67160   0.00000  Uiso   1.00
C204   C     0.13458   0.69796   0.54759   0.00000  Uiso   1.00
C205   C     0.08323   0.74823   0.61956   0.00000  Uiso   1.00
C206   C     0.06480   0.74644   0.72104   0.00000  Uiso   1.00
C207   C     0.04635   0.74819   0.61962   0.00000  Uiso   1.00
H208   H     0.10516   0.75574   0.18893   0.00000  Uiso   1.00
H209   H     0.12532   0.79057   0.22029   0.00000  Uiso   1.00
H210   H     0.12535   0.72156   0.12113   0.00000  Uiso   1.00
H211   H     0.06482   0.75602   0.17056   0.00000  Uiso   1.00
H212   H     0.14767   0.82768   0.34143   0.00000  Uiso   1.00
H213   H     0.14773   0.68216   0.13233   0.00000  Uiso   1.00
H214   H     0.02009   0.75484   0.23655   0.00000  Uiso   1.00
H215   H     0.10515   0.74415   0.85445   0.00000  Uiso   1.00
H216   H     0.12530   0.77835   0.92234   0.00000  Uiso   1.00
H217   H     0.12533   0.70934   0.82317   0.00000  Uiso   1.00
H218   H     0.06481   0.74380   0.87260   0.00000  Uiso   1.00
H219   H     0.14766   0.81776   0.91124   0.00000  Uiso   1.00
H220   H     0.14772   0.67224   0.70213   0.00000  Uiso   1.00
H221   H     0.02008   0.74492   0.80636   0.00000  Uiso   1.00
O222   O     0.16093   0.84542   0.65898   0.00000  Uiso   1.00
O223   O     0.16100   0.65450   0.38464   0.00000  Uiso   1.00
O224   O     0.99355   0.74986   0.52138   0.00000  Uiso   1.00
N225   N     0.14489   0.82065   0.46622   0.00000  Uiso   1.00
N226   N     0.14496   0.68460   0.27072   0.00000  Uiso   1.00
N227   N     0.02563   0.75255   0.36816   0.00000  Uiso   1.00
N228   N     0.14489   0.81532   0.77283   0.00000  Uiso   1.00
N229   N     0.14495   0.67927   0.57733   0.00000  Uiso   1.00
N230   N     0.02562   0.74721   0.67477   0.00000  Uiso   1.00
C231   C     0.60516   0.25308   0.84140   0.00000  Uiso   1.00
C232   C     0.61610   0.27040   0.95073   0.00000  Uiso   1.00
C233   C     0.62531   0.28794   0.87186   0.00000  Uiso   1.00
C234   C     0.63453   0.30196   0.99592   0.00000  Uiso   1.00
C235   C     0.65154   0.32937   0.13589   0.00000  Uiso   1.00
C236   C     0.61612   0.23291   0.89685   0.00000  Uiso   1.00
C237   C     0.62535   0.21891   0.77268   0.00000  Uiso   1.00
C238   C     0.63458   0.20137   0.85139   0.00000  Uiso   1.00
C239   C     0.65161   0.17056   0.90769   0.00000  Uiso   1.00
C240   C     0.58324   0.25164   0.92371   0.00000  Uiso   1.00
C241   C     0.56481   0.25338   0.82211   0.00000  Uiso   1.00
C242   C     0.54636   0.25161   0.92342   0.00000  Uiso   1.00
C243   C     0.51232   0.24987   0.02142   0.00000  Uiso   1.00
C244   C     0.60515   0.24681   0.20197   0.00000  Uiso   1.00
C245   C     0.61610   0.26699   0.14658   0.00000  Uiso   1.00
C246   C     0.62531   0.28099   0.27079   0.00000  Uiso   1.00
C247   C     0.63453   0.29854   0.19212   0.00000  Uiso   1.00
C248   C     0.61612   0.22950   0.09269   0.00000  Uiso   1.00
C249   C     0.62534   0.21197   0.17160   0.00000  Uiso   1.00
C250   C     0.63458   0.19796   0.04759   0.00000  Uiso   1.00
C251   C     0.58323   0.24823   0.11956   0.00000  Uiso   1.00
C252   C     0.56480   0.24644   0.22104   0.00000  Uiso   1.00
C253   C     0.54635   0.24819   0.11962   0.00000  Uiso   1.00
H254   H     0.60516   0.25574   0.68893   0.00000  Uiso   1.00
H255   H     0.62532   0.29057   0.72029   0.00000  Uiso   1.00
H256   H     0.62535   0.22156   0.62113   0.00000  Uiso   1.00
H257   H     0.56482   0.25602   0.67056   0.00000  Uiso   1.00
H258   H     0.64767   0.32768   0.84143   0.00000  Uiso   1.00
H259   H     0.64773   0.18216   0.63233   0.00000  Uiso   1.00
H260   H     0.52009   0.25484   0.73655   0.00000  Uiso   1.00
H261   H     0.60515   0.24415   0.35445   0.00000  Uiso   1.00
H262   H     0.62530   0.27835   0.42234   0.00000  Uiso   1.00
H263   H     0.62533   0.20934   0.32317   0.00000  Uiso   1.00
H264   H     0.56481   0.24380   0.37260   0.00000  Uiso   1.00
H265   H     0.64766   0.31776   0.41124   0.00000  Uiso   1.00
H266   H     0.64772   0.17224   0.20213   0.00000  Uiso   1.00
H267   H     0.52008   0.24492   0.30636   0.00000  Uiso   1.00
O268   O     0.66093   0.34542   0.15898   0.00000  Uiso   1.00
O269   O     0.66100   0.15450   0.88464   0.00000  Uiso   1.00
O270   O     0.49355   0.24986   0.02138   0.00000  Uiso   1.00
N271   N     0.64489   0.32065   0.96622   0.00000  Uiso   1.00
N272   N     0.64496   0.18460   0.77072   0.00000  Uiso   1.00
N273   N     0.52563   0.25255   0.86816   0.00000  Uiso   1.00
N274   N     0.64489   0.31532   0.27283   0.00000  Uiso   1.00
N275   N     0.64495   0.17927   0.07733   0.00000  Uiso   1.00
N276   N     0.52562   0.24721   0.17477   0.00000  Uiso   1.00
C277   C     0.39484   0.74692   0.84140   0.00000  Uiso   1.00
C278   C     0.38390   0.72960   0.95073   0.00000  Uiso   1.00
C279   C     0.37469   0.71206   0.87186   0.00000  Uiso   1.00
C280   C     0.36547   0.69804   0.99592   0.00000  Uiso   1.00
C281   C     0.34846   0.67063   0.13589   0.00000  Uiso   1.00
C282   C     0.38388   0.76709   0.89685   0.00000  Uiso   1.00
C283   C     0.37465   0.78109   0.77268   0.00000  Uiso   1.00
C284   C     0.36542   0.79863   0.85139   0.00000  Uiso   1.00
C285   C     0.34839   0.82944   0.90769   0.00000  Uiso   1.00
C286   C     0.41676   0.74836   0.92371   0.00000  Uiso   1.00
C287   C     0.43519   0.74662   0.82211   0.00000  Uiso   1.00
C288   C     0.45364   0.74839   0.92342   0.00000  Uiso   1.00
C289   C     0.48768   0.75013   0.02142   0.00000  Uiso   1.00
C290   C     0.39485   0.75319   0.20197   0.00000  Uiso   1.00
C291   C     0.38390   0.73301   0.14658   0.00000  Uiso   1.00
C292   C     0.37469   0.71901   0.27079   0.00000  Uiso   1.00
C293   C     0.36547   0.70146   0.19212   0.00000  Uiso   1.00
C294   C     0.38388   0.77050   0.09269   0.00000  Uiso   1.00
C295   C     0.37466   0.78803   0.17160   0.00000  Uiso   1.00
C296   C     0.36542   0.80204   0.04759   0.00000  Uiso   1.00
C297   C     0.41677   0.75177   0.11956   0.00000  Uiso   1.00
C298   C     0.43520   0.75356   0.22104   0.00000  Uiso   1.00
C299   C     0.45365   0.75181   0.11962   0.00000  Uiso   1.00
H300   H     0.39484   0.74426   0.68893   0.00000  Uiso   1.00
H301   H     0.37468   0.70943   0.72029   0.00000  Uiso   1.00
H302   H     0.37465   0.77844   0.62113   0.00000  Uiso   1.00
H303   H     0.43518   0.74398   0.67056   0.00000  Uiso   1.00
H304   H     0.35233   0.67232   0.84143   0.00000  Uiso   1.00
H305   H     0.35227   0.81784   0.63233   0.00000  Uiso   1.00
H306   H     0.47991   0.74516   0.73655   0.00000  Uiso   1.00
H307   H     0.39485   0.75585   0.35445   0.00000  Uiso   1.00
H308   H     0.37470   0.72165   0.42234   0.00000  Uiso   1.00
H309   H     0.37467   0.79066   0.32317   0.00000  Uiso   1.00
H310   H     0.43519   0.75620   0.37260   0.00000  Uiso   1.00
H311   H     0.35234   0.68224   0.41124   0.00000  Uiso   1.00
H312   H     0.35228   0.82776   0.20213   0.00000  Uiso   1.00
H313   H     0.47992   0.75508   0.30636   0.00000  Uiso   1.00
O314   O     0.33907   0.65458   0.15898   0.00000  Uiso   1.00
O315   O     0.33900   0.84550   0.88464   0.00000  Uiso   1.00
O316   O     0.50645   0.75014   0.02138   0.00000  Uiso   1.00
N317   N     0.35511   0.67935   0.96622   0.00000  Uiso   1.00
N318   N     0.35504   0.81540   0.77072   0.00000  Uiso   1.00
N319   N     0.47437   0.74745   0.86816   0.00000  Uiso   1.00
N320   N     0.35511   0.68468   0.27283   0.00000  Uiso   1.00
N321   N     0.35505   0.82073   0.07733   0.00000  Uiso   1.00
N322   N     0.47438   0.75279   0.17477   0.00000  Uiso   1.00
C323   C     0.89484   0.24692   0.34140   0.00000  Uiso   1.00
C324   C     0.88390   0.22960   0.45073   0.00000  Uiso   1.00
C325   C     0.87469   0.21206   0.37186   0.00000  Uiso   1.00
C326   C     0.86547   0.19804   0.49592   0.00000  Uiso   1.00
C327   C     0.84846   0.17063   0.63589   0.00000  Uiso   1.00
C328   C     0.88388   0.26709   0.39685   0.00000  Uiso   1.00
C329   C     0.87465   0.28109   0.27268   0.00000  Uiso   1.00
C330   C     0.86542   0.29863   0.35139   0.00000  Uiso   1.00
C331   C     0.84839   0.32944   0.40769   0.00000  Uiso   1.00
C332   C     0.91676   0.24836   0.42371   0.00000  Uiso   1.00
C333   C     0.93519   0.24662   0.32211   0.00000  Uiso   1.00
C334   C     0.95364   0.24839   0.42342   0.00000  Uiso   1.00
C335   C     0.98768   0.25013   0.52142   0.00000  Uiso   1.00
C336   C     0.89485   0.25319   0.70197   0.00000  Uiso   1.00
C337   C     0.88390   0.23301   0.64658   0.00000  Uiso   1.00
C338   C     0.87469   0.21901   0.77079   0.00000  Uiso   1.00
C339   C     0.86547   0.20146   0.69212   0.00000  Uiso   1.00
C340   C     0.88388   0.27050   0.59269   0.00000  Uiso   1.00
C341   C     0.87466   0.28803   0.67160   0.00000  Uiso   1.00
C342   C     0.86542   0.30204   0.54759   0.00000  Uiso   1.00
C343   C     0.91677   0.25177   0.61956   0.00000  Uiso   1.00
C344   C     0.93520   0.25356   0.72104   0.00000  Uiso   1.00
C345   C     0.95365   0.25181   0.61962   0.00000  Uiso   1.00
H346   H     0.89484   0.24426   0.18893   0.00000  Uiso   1.00
H347   H     0.87468   0.20943   0.22029   0.00000  Uiso   1.00
H348   H     0.87465   0.27844   0.12113   0.00000  Uiso   1.00
H349   H     0.93518   0.24398   0.17056   0.00000  Uiso   1.00
H350   H     0.85233   0.17232   0.34143   0.00000  Uiso   1.00
H351   H     0.85227   0.31784   0.13233   0.00000  Uiso   1.00
H352   H     0.97991   0.24516   0.23655   0.00000  Uiso   1.00
H353   H     0.89485   0.25585   0.85445   0.00000  Uiso   1.00
H354   H     0.87470   0.22165   0.92234   0.00000  Uiso   1.00
H355   H     0.87467   0.29066   0.82317   0.00000  Uiso   1.00
H356   H     0.93519   0.25620   0.87260   0.00000  Uiso   1.00
H357   H     0.85234   0.18224   0.91124   0.00000  Uiso   1.00
H358   H     0.85228   0.32776   0.70213   0.00000  Uiso   1.00
H359   H     0.97992   0.25508   0.80636   0.00000  Uiso   1.00
O360   O     0.83907   0.15458   0.65898   0.00000  Uiso   1.00
O361   O     0.83900   0.34550   0.38464   0.00000  Uiso   1.00
O362   O     0.00645   0.25014   0.52138   0.00000  Uiso   1.00
N363   N     0.85511   0.17935   0.46622   0.00000  Uiso   1.00
N364   N     0.85504   0.31540   0.27072   0.00000  Uiso   1.00
N365   N     0.97437   0.24745   0.36816   0.00000  Uiso   1.00
N366   N     0.85511   0.18468   0.77283   0.00000  Uiso   1.00
N367   N     0.85505   0.32073   0.57733   0.00000  Uiso   1.00
N368   N     0.97438   0.25279   0.67477   0.00000  Uiso   1.00
C369   C     0.25308   0.10516   0.59140   0.00000  Uiso   1.00
C370   C     0.27040   0.11610   0.70073   0.00000  Uiso   1.00
C371   C     0.28794   0.12531   0.62186   0.00000  Uiso   1.00
C372   C     0.30196   0.13453   0.74592   0.00000  Uiso   1.00
C373   C     0.32937   0.15154   0.88589   0.00000  Uiso   1.00
C374   C     0.23291   0.11612   0.64685   0.00000  Uiso   1.00
C375   C     0.21891   0.12535   0.52268   0.00000  Uiso   1.00
C376   C     0.20137   0.13458   0.60139   0.00000  Uiso   1.00
C377   C     0.17056   0.15161   0.65769   0.00000  Uiso   1.00
C378   C     0.25164   0.08324   0.67371   0.00000  Uiso   1.00
C379   C     0.25338   0.06481   0.57211   0.00000  Uiso   1.00
C380   C     0.25161   0.04636   0.67342   0.00000  Uiso   1.00
C381   C     0.24987   0.01232   0.77142   0.00000  Uiso   1.00
C382   C     0.24681   0.10515   0.95197   0.00000  Uiso   1.00
C383   C     0.26699   0.11610   0.89658   0.00000  Uiso   1.00
C384   C     0.28099   0.12531   0.02079   0.00000  Uiso   1.00
C385   C     0.29854   0.13453   0.94212   0.00000  Uiso   1.00
C386   C     0.22950   0.11612   0.84269   0.00000  Uiso   1.00
C387   C     0.21197   0.12534   0.92160   0.00000  Uiso   1.00
C388   C     0.19796   0.13458   0.79759   0.00000  Uiso   1.00
C389   C     0.24823   0.08323   0.86956   0.00000  Uiso   1.00
C390   C     0.24644   0.06480   0.97104   0.00000  Uiso   1.00
C391   C     0.24819   0.04635   0.86962   0.00000  Uiso   1.00
H392   H     0.25574   0.10516   0.43893   0.00000  Uiso   1.00
H393   H     0.29057   0.12532   0.47029   0.00000  Uiso   1.00
H394   H     0.22156   0.12535   0.37113   0.00000  Uiso   1.00
H395   H     0.25602   0.06482   0.42056   0.00000  Uiso   1.00
H396   H     0.32768   0.14767   0.59143   0.00000  Uiso   1.00
H397   H     0.18216   0.14773   0.38233   0.00000  Uiso   1.00
H398   H     0.25484   0.02009   0.48655   0.00000  Uiso   1.00
H399   H     0.24415   0.10515   0.10445   0.00000  Uiso   1.00
H400   H     0.27835   0.12530   0.17234   0.00000  Uiso   1.00
H401   H     0.20934   0.12533   0.07317   0.00000  Uiso   1.00
H402   H     0.24380   0.06481   0.12260   0.00000  Uiso   1.00
H403   H     0.31776   0.14766   0.16124   0.00000  Uiso   1.00
H404   H     0.17224   0.14772   0.95213   0.00000  Uiso   1.00
H405   H     0.24492   0.02008   0.05636   0.00000  Uiso   1.00
O406   O     0.34542   0.16093   0.90898   0.00000  Uiso   1.00
O407   O     0.15450   0.16100   0.63464   0.00000  Uiso   1.00
O408   O     0.24986   0.99355   0.77138   0.00000  Uiso   1.00
N409   N     0.32065   0.14489   0.71622   0.00000  Uiso   1.00
N410   N     0.18460   0.14496   0.52072   0.00000  Uiso   1.00
N411   N     0.25255   0.02563   0.61816   0.00000  Uiso   1.00
N412   N     0.31532   0.14489   0.02283   0.00000  Uiso   1.00
N413   N     0.17927   0.14495   0.82733   0.00000  Uiso   1.00
N414   N     0.24721   0.02562   0.92477   0.00000  Uiso   1.00
C415   C     0.75308   0.60516   0.09140   0.00000  Uiso   1.00
C416   C     0.77040   0.61610   0.20073   0.00000  Uiso   1.00
C417   C     0.78794   0.62531   0.12186   0.00000  Uiso   1.00
C418   C     0.80196   0.63453   0.24592   0.00000  Uiso   1.00
C419   C     0.82937   0.65154   0.38589   0.00000  Uiso   1.00
C420   C     0.73291   0.61612   0.14685   0.00000  Uiso   1.00
C421   C     0.71891   0.62535   0.02268   0.00000  Uiso   1.00
C422   C     0.70137   0.63458   0.10139   0.00000  Uiso   1.00
C423   C     0.67056   0.65161   0.15769   0.00000  Uiso   1.00
C424   C     0.75164   0.58324   0.17371   0.00000  Uiso   1.00
C425   C     0.75338   0.56481   0.07211   0.00000  Uiso   1.00
C426   C     0.75161   0.54636   0.17342   0.00000  Uiso   1.00
C427   C     0.74987   0.51232   0.27142   0.00000  Uiso   1.00
C428   C     0.74681   0.60515   0.45197   0.00000  Uiso   1.00
C429   C     0.76699   0.61610   0.39658   0.00000  Uiso   1.00
C430   C     0.78099   0.62531   0.52079   0.00000  Uiso   1.00
C431   C     0.79854   0.63453   0.44212   0.00000  Uiso   1.00
C432   C     0.72950   0.61612   0.34269   0.00000  Uiso   1.00
C433   C     0.71197   0.62534   0.42160   0.00000  Uiso   1.00
C434   C     0.69796   0.63458   0.29759   0.00000  Uiso   1.00
C435   C     0.74823   0.58323   0.36956   0.00000  Uiso   1.00
C436   C     0.74644   0.56480   0.47104   0.00000  Uiso   1.00
C437   C     0.74819   0.54635   0.36962   0.00000  Uiso   1.00
H438   H     0.75574   0.60516   0.93893   0.00000  Uiso   1.00
H439   H     0.79057   0.62532   0.97029   0.00000  Uiso   1.00
H440   H     0.72156   0.62535   0.87113   0.00000  Uiso   1.00
H441   H     0.75602   0.56482   0.92056   0.00000  Uiso   1.00
H442   H     0.82768   0.64767   0.09143   0.00000  Uiso   1.00
H443   H     0.68216   0.64773   0.88233   0.00000  Uiso   1.00
H444   H     0.75484   0.52009   0.98655   0.00000  Uiso   1.00
H445   H     0.74415   0.60515   0.60445   0.00000  Uiso   1.00
H446   H     0.77835   0.62530   0.67234   0.00000  Uiso   1.00
H447   H     0.70934   0.62533   0.57317   0.00000  Uiso   1.00
H448   H     0.74380   0.56481   0.62260   0.00000  Uiso   1.00
H449   H     0.81776   0.64766   0.66124   0.00000  Uiso   1.00
H450   H     0.67224   0.64772   0.45213   0.00000  Uiso   1.00
H451   H     0.74492   0.52008   0.55636   0.00000  Uiso   1.00
O452   O     0.84542   0.66093   0.40898   0.00000  Uiso   1.00
O453   O     0.65450   0.66100   0.13464   0.00000  Uiso   1.00
O454   O     0.74986   0.49355   0.27138   0.00000  Uiso   1.00
N455   N     0.82065   0.64489   0.21622   0.00000  Uiso   1.00
N456   N     0.68460   0.64496   0.02072   0.00000  Uiso   1.00
N457   N     0.75255   0.52563   0.11816   0.00000  Uiso   1.00
N458   N     0.81532   0.64489   0.52283   0.00000  Uiso   1.00
N459   N     0.67927   0.64495   0.32733   0.00000  Uiso   1.00
N460   N     0.74721   0.52562   0.42477   0.00000  Uiso   1.00
C461   C     0.24692   0.39484   0.09140   0.00000  Uiso   1.00
C462   C     0.22960   0.38390   0.20073   0.00000  Uiso   1.00
C463   C     0.21206   0.37469   0.12186   0.00000  Uiso   1.00
C464   C     0.19804   0.36547   0.24592   0.00000  Uiso   1.00
C465   C     0.17063   0.34846   0.38589   0.00000  Uiso   1.00
C466   C     0.26709   0.38388   0.14685   0.00000  Uiso   1.00
C467   C     0.28109   0.37465   0.02268   0.00000  Uiso   1.00
C468   C     0.29863   0.36542   0.10139   0.00000  Uiso   1.00
C469   C     0.32944   0.34839   0.15769   0.00000  Uiso   1.00
C470   C     0.24836   0.41676   0.17371   0.00000  Uiso   1.00
C471   C     0.24662   0.43519   0.07211   0.00000  Uiso   1.00
C472   C     0.24839   0.45364   0.17342   0.00000  Uiso   1.00
C473   C     0.25013   0.48768   0.27142   0.00000  Uiso   1.00
C474   C     0.25319   0.39485   0.45197   0.00000  Uiso   1.00
C475   C     0.23301   0.38390   0.39658   0.00000  Uiso   1.00
C476   C     0.21901   0.37469   0.52079   0.00000  Uiso   1.00
C477   C     0.20146   0.36547   0.44212   0.00000  Uiso   1.00
C478   C     0.27050   0.38388   0.34269   0.00000  Uiso   1.00
C479   C     0.28803   0.37466   0.42160   0.00000  Uiso   1.00
C480   C     0.30204   0.36542   0.29759   0.00000  Uiso   1.00
C481   C     0.25177   0.41677   0.36956   0.00000  Uiso   1.00
C482   C     0.25356   0.43520   0.47104   0.00000  Uiso   1.00
C483   C     0.25181   0.45365   0.36962   0.00000  Uiso   1.00
H484   H     0.24426   0.39484   0.93893   0.00000  Uiso   1.00
H485   H     0.20943   0.37468   0.97029   0.00000  Uiso   1.00
H486   H     0.27844   0.37465   0.87113   0.00000  Uiso   1.00
H487   H     0.24398   0.43518   0.92056   0.00000  Uiso   1.00
H488   H     0.17232   0.35233   0.09143   0.00000  Uiso   1.00
H489   H     0.31784   0.35227   0.88233   0.00000  Uiso   1.00
H490   H     0.24516   0.47991   0.98655   0.00000  Uiso   1.00
H491   H     0.25585   0.39485   0.60445   0.00000  Uiso   1.00
H492   H     0.22165   0.37470   0.67234   0.00000  Uiso   1.00
H493   H     0.29066   0.37467   0.57317   0.00000  Uiso   1.00
H494   H     0.25620   0.43519   0.62260   0.00000  Uiso   1.00
H495   H     0.18224   0.35234   0.66124   0.00000  Uiso   1.00
H496   H     0.32776   0.35228   0.45213   0.00000  Uiso   1.00
H497   H     0.25508   0.47992   0.55636   0.00000  Uiso   1.00
O498   O     0.15458   0.33907   0.40898   0.00000  Uiso   1.00
O499   O     0.34550   0.33900   0.13464   0.00000  Uiso   1.00
O500   O     0.25014   0.50645   0.27138   0.00000  Uiso   1.00
N501   N     0.17935   0.35511   0.21622   0.00000  Uiso   1.00
N502   N     0.31540   0.35504   0.02072   0.00000  Uiso   1.00
N503   N     0.24745   0.47437   0.11816   0.00000  Uiso   1.00
N504   N     0.18468   0.35511   0.52283   0.00000  Uiso   1.00
N505   N     0.32073   0.35505   0.32733   0.00000  Uiso   1.00
N506   N     0.25279   0.47438   0.42477   0.00000  Uiso   1.00
C507   C     0.74692   0.89484   0.59140   0.00000  Uiso   1.00
C508   C     0.72960   0.88390   0.70073   0.00000  Uiso   1.00
C509   C     0.71206   0.87469   0.62186   0.00000  Uiso   1.00
C510   C     0.69804   0.86547   0.74592   0.00000  Uiso   1.00
C511   C     0.67063   0.84846   0.88589   0.00000  Uiso   1.00
C512   C     0.76709   0.88388   0.64685   0.00000  Uiso   1.00
C513   C     0.78109   0.87465   0.52268   0.00000  Uiso   1.00
C514   C     0.79863   0.86542   0.60139   0.00000  Uiso   1.00
C515   C     0.82944   0.84839   0.65769   0.00000  Uiso   1.00
C516   C     0.74836   0.91676   0.67371   0.00000  Uiso   1.00
C517   C     0.74662   0.93519   0.57211   0.00000  Uiso   1.00
C518   C     0.74839   0.95364   0.67342   0.00000  Uiso   1.00
C519   C     0.75013   0.98768   0.77142   0.00000  Uiso   1.00
C520   C     0.75319   0.89485   0.95197   0.00000  Uiso   1.00
C521   C     0.73301   0.88390   0.89658   0.00000  Uiso   1.00
C522   C     0.71901   0.87469   0.02079   0.00000  Uiso   1.00
C523   C     0.70146   0.86547   0.94212   0.00000  Uiso   1.00
C524   C     0.77050   0.88388   0.84269   0.00000  Uiso   1.00
C525   C     0.78803   0.87466   0.92160   0.00000  Uiso   1.00
C526   C     0.80204   0.86542   0.79759   0.00000  Uiso   1.00
C527   C     0.75177   0.91677   0.86956   0.00000  Uiso   1.00
C528   C     0.75356   0.93520   0.97104   0.00000  Uiso   1.00
C529   C     0.75181   0.95365   0.86962   0.00000  Uiso   1.00
H530   H     0.74426   0.89484   0.43893   0.00000  Uiso   1.00
H531   H     0.70943   0.87468   0.47029   0.00000  Uiso   1.00
H532   H     0.77844   0.87465   0.37113   0.00000  Uiso   1.00
H533   H     0.74398   0.93518   0.42056   0.00000  Uiso   1.00
H534   H     0.67232   0.85233   0.59143   0.00000  Uiso   1.00
H535   H     0.81784   0.85227   0.38233   0.00000  Uiso   1.00
H536   H     0.74516   0.97991   0.48655   0.00000  Uiso   1.00
H537   H     0.75585   0.89485   0.10445   0.00000  Uiso   1.00
H538   H     0.72165   0.87470   0.17234   0.00000  Uiso   1.00
H539   H     0.79066   0.87467   0.07317   0.00000  Uiso   1.00
H540   H     0.75620   0.93519   0.12260   0.00000  Uiso   1.00
H541   H     0.68224   0.85234   0.16124   0.00000  Uiso   1.00
H542   H     0.82776   0.85228   0.95213   0.00000  Uiso   1.00
H543   H     0.75508   0.97992   0.05636   0.00000  Uiso   1.00
O544   O     0.65458   0.83907   0.90898   0.00000  Uiso   1.00
O545   O     0.84550   0.83900   0.63464   0.00000  Uiso   1.00
O546   O     0.75014   0.00645   0.77138   0.00000  Uiso   1.00
N547   N     0.67935   0.85511   0.71622   0.00000  Uiso   1.00
N548   N     0.81540   0.85504   0.52072   0.00000  Uiso   1.00
N549   N     0.74745   0.97437   0.61816   0.00000  Uiso   1.00
N550   N     0.68468   0.85511   0.02283   0.00000  Uiso   1.00
N551   N     0.82073   0.85505   0.82733   0.00000  Uiso   1.00
N552   N     0.75279   0.97438   0.92477   0.00000  Uiso   1.00
C553   C     0.10516   0.24692   0.84140   0.00000  Uiso   1.00
C554   C     0.11610   0.22960   0.95073   0.00000  Uiso   1.00
C555   C     0.12531   0.21206   0.87186   0.00000  Uiso   1.00
C556   C     0.13453   0.19804   0.99592   0.00000  Uiso   1.00
C557   C     0.15154   0.17063   0.13589   0.00000  Uiso   1.00
C558   C     0.11612   0.26709   0.89685   0.00000  Uiso   1.00
C559   C     0.12535   0.28109   0.77268   0.00000  Uiso   1.00
C560   C     0.13458   0.29863   0.85139   0.00000  Uiso   1.00
C561   C     0.15161   0.32944   0.90769   0.00000  Uiso   1.00
C562   C     0.08324   0.24836   0.92371   0.00000  Uiso   1.00
C563   C     0.06481   0.24662   0.82211   0.00000  Uiso   1.00
C564   C     0.04636   0.24839   0.92342   0.00000  Uiso   1.00
C565   C     0.01232   0.25013   0.02142   0.00000  Uiso   1.00
C566   C     0.10515   0.25319   0.20197   0.00000  Uiso   1.00
C567   C     0.11610   0.23301   0.14658   0.00000  Uiso   1.00
C568   C     0.12531   0.21901   0.27079   0.00000  Uiso   1.00
C569   C     0.13453   0.20146   0.19212   0.00000  Uiso   1.00
C570   C     0.11612   0.27050   0.09269   0.00000  Uiso   1.00
C571   C     0.12534   0.28803   0.17160   0.00000  Uiso   1.00
C572   C     0.13458   0.30204   0.04759   0.00000  Uiso   1.00
C573   C     0.08323   0.25177   0.11956   0.00000  Uiso   1.00
C574   C     0.06480   0.25356   0.22104   0.00000  Uiso   1.00
C575   C     0.04635   0.25181   0.11962   0.00000  Uiso   1.00
H576   H     0.10516   0.24426   0.68893   0.00000  Uiso   1.00
H577   H     0.12532   0.20943   0.72029   0.00000  Uiso   1.00
H578   H     0.12535   0.27844   0.62113   0.00000  Uiso   1.00
H579   H     0.06482   0.24398   0.67056   0.00000  Uiso   1.00
H580   H     0.14767   0.17232   0.84143   0.00000  Uiso   1.00
H581   H     0.14773   0.31784   0.63233   0.00000  Uiso   1.00
H582   H     0.02009   0.24516   0.73655   0.00000  Uiso   1.00
H583   H     0.10515   0.25585   0.35445   0.00000  Uiso   1.00
H584   H     0.12530   0.22165   0.42234   0.00000  Uiso   1.00
H585   H     0.12533   0.29066   0.32317   0.00000  Uiso   1.00
H586   H     0.06481   0.25620   0.37260   0.00000  Uiso   1.00
H587   H     0.14766   0.18224   0.41124   0.00000  Uiso   1.00
H588   H     0.14772   0.32776   0.20213   0.00000  Uiso   1.00
H589   H     0.02008   0.25508   0.30636   0.00000  Uiso   1.00
O590   O     0.16093   0.15458   0.15898   0.00000  Uiso   1.00
O591   O     0.16100   0.34550   0.88464   0.00000  Uiso   1.00
O592   O     0.99355   0.25014   0.02138   0.00000  Uiso   1.00
N593   N     0.14489   0.17935   0.96622   0.00000  Uiso   1.00
N594   N     0.14496   0.31540   0.77072   0.00000  Uiso   1.00
N595   N     0.02563   0.24745   0.86816   0.00000  Uiso   1.00
N596   N     0.14489   0.18468   0.27283   0.00000  Uiso   1.00
N597   N     0.14495   0.32073   0.07733   0.00000  Uiso   1.00
N598   N     0.02562   0.25279   0.17477   0.00000  Uiso   1.00
C599   C     0.60516   0.74692   0.34140   0.00000  Uiso   1.00
C600   C     0.61610   0.72960   0.45073   0.00000  Uiso   1.00
C601   C     0.62531   0.71206   0.37186   0.00000  Uiso   1.00
C602   C     0.63453   0.69804   0.49592   0.00000  Uiso   1.00
C603   C     0.65154   0.67063   0.63589   0.00000  Uiso   1.00
C604   C     0.61612   0.76709   0.39685   0.00000  Uiso   1.00
C605   C     0.62535   0.78109   0.27268   0.00000  Uiso   1.00
C606   C     0.63458   0.79863   0.35139   0.00000  Uiso   1.00
C607   C     0.65161   0.82944   0.40769   0.00000  Uiso   1.00
C608   C     0.58324   0.74836   0.42371   0.00000  Uiso   1.00
C609   C     0.56481   0.74662   0.32211   0.00000  Uiso   1.00
C610   C     0.54636   0.74839   0.42342   0.00000  Uiso   1.00
C611   C     0.51232   0.75013   0.52142   0.00000  Uiso   1.00
C612   C     0.60515   0.75319   0.70197   0.00000  Uiso   1.00
C613   C     0.61610   0.73301   0.64658   0.00000  Uiso   1.00
C614   C     0.62531   0.71901   0.77079   0.00000  Uiso   1.00
C615   C     0.63453   0.70146   0.69212   0.00000  Uiso   1.00
C616   C     0.61612   0.77050   0.59269   0.00000  Uiso   1.00
C617   C     0.62534   0.78803   0.67160   0.00000  Uiso   1.00
C618   C     0.63458   0.80204   0.54759   0.00000  Uiso   1.00
C619   C     0.58323   0.75177   0.61956   0.00000  Uiso   1.00
C620   C     0.56480   0.75356   0.72104   0.00000  Uiso   1.00
C621   C     0.54635   0.75181   0.61962   0.00000  Uiso   1.00
H622   H     0.60516   0.74426   0.18893   0.00000  Uiso   1.00
H623   H     0.62532   0.70943   0.22029   0.00000  Uiso   1.00
H624   H     0.62535   0.77844   0.12113   0.00000  Uiso   1.00
H625   H     0.56482   0.74398   0.17056   0.00000  Uiso   1.00
H626   H     0.64767   0.67232   0.34143   0.00000  Uiso   1.00
H627   H     0.64773   0.81784   0.13233   0.00000  Uiso   1.00
H628   H     0.52009   0.74516   0.23655   0.00000  Uiso   1.00
H629   H     0.60515   0.75585   0.85445   0.00000  Uiso   1.00
H630   H     0.62530   0.72165   0.92234   0.00000  Uiso   1.00
H631   H     0.62533   0.79066   0.82317   0.00000  Uiso   1.00
H632   H     0.56481   0.75620   0.87260   0.00000  Uiso   1.00
H633   H     0.64766   0.68224   0.91124   0.00000  Uiso   1.00
H634   H     0.64772   0.82776   0.70213   0.00000  Uiso   1.00
H635   H     0.52008   0.75508   0.80636   0.00000  Uiso   1.00
O636   O     0.66093   0.65458   0.65898   0.00000  Uiso   1.00
O637   O     0.66100   0.84550   0.38464   0.00000  Uiso   1.00
O638   O     0.49355   0.75014   0.52138   0.00000  Uiso   1.00
N639   N     0.64489   0.67935   0.46622   0.00000  Uiso   1.00
N640   N     0.64496   0.81540   0.27072   0.00000  Uiso   1.00
N641   N     0.52563   0.74745   0.36816   0.00000  Uiso   1.00
N642   N     0.64489   0.68468   0.77283   0.00000  Uiso   1.00
N643   N     0.64495   0.82073   0.57733   0.00000  Uiso   1.00
N644   N     0.52562   0.75279   0.67477   0.00000  Uiso   1.00
C645   C     0.39484   0.25308   0.34140   0.00000  Uiso   1.00
C646   C     0.38390   0.27040   0.45073   0.00000  Uiso   1.00
C647   C     0.37469   0.28794   0.37186   0.00000  Uiso   1.00
C648   C     0.36547   0.30196   0.49592   0.00000  Uiso   1.00
C649   C     0.34846   0.32937   0.63589   0.00000  Uiso   1.00
C650   C     0.38388   0.23291   0.39685   0.00000  Uiso   1.00
C651   C     0.37465   0.21891   0.27268   0.00000  Uiso   1.00
C652   C     0.36542   0.20137   0.35139   0.00000  Uiso   1.00
C653   C     0.34839   0.17056   0.40769   0.00000  Uiso   1.00
C654   C     0.41676   0.25164   0.42371   0.00000  Uiso   1.00
C655   C     0.43519   0.25338   0.32211   0.00000  Uiso   1.00
C656   C     0.45364   0.25161   0.42342   0.00000  Uiso   1.00
C657   C     0.48768   0.24987   0.52142   0.00000  Uiso   1.00
C658   C     0.39485   0.24681   0.70197   0.00000  Uiso   1.00
C659   C     0.38390   0.26699   0.64658   0.00000  Uiso   1.00
C660   C     0.37469   0.28099   0.77079   0.00000  Uiso   1.00
C661   C     0.36547   0.29854   0.69212   0.00000  Uiso   1.00
C662   C     0.38388   0.22950   0.59269   0.00000  Uiso   1.00
C663   C     0.37466   0.21197   0.67160   0.00000  Uiso   1.00
C664   C     0.36542   0.19796   0.54759   0.00000  Uiso   1.00
C665   C     0.41677   0.24823   0.61956   0.00000  Uiso   1.00
C666   C     0.43520   0.24644   0.72104   0.00000  Uiso   1.00
C667   C     0.45365   0.24819   0.61962   0.00000  Uiso   1.00
H668   H     0.39484   0.25574   0.18893   0.00000  Uiso   1.00
H669   H     0.37468   0.29057   0.22029   0.00000  Uiso   1.00
H670   H     0.37465   0.22156   0.12113   0.00000  Uiso   1.00
H671   H     0.43518   0.25602   0.17056   0.00000  Uiso   1.00
H672   H     0.35233   0.32768   0.34143   0.00000  Uiso   1.00
H673   H     0.35227   0.18216   0.13233   0.00000  Uiso   1.00
H674   H     0.47991   0.25484   0.23655   0.00000  Uiso   1.00
H675   H     0.39485   0.24415   0.85445   0.00000  Uiso   1.00
H676   H     0.37470   0.27835   0.92234   0.00000  Uiso   1.00
H677   H     0.37467   0.20934   0.82317   0.00000  Uiso   1.00
H678   H     0.43519   0.24380   0.87260   0.00000  Uiso   1.00
H679   H     0.35234   0.31776   0.91124   0.00000  Uiso   1.00
H680   H     0.35228   0.17224   0.70213   0.00000  Uiso   1.00
H681   H     0.47992   0.24492   0.80636   0.00000  Uiso   1.00
O682   O     0.33907   0.34542   0.65898   0.00000  Uiso   1.00
O683   O     0.33900   0.15450   0.38464   0.00000  Uiso   1.00
O684   O     0.50645   0.24986   0.52138   0.00000  Uiso   1.00
N685   N     0.35511   0.32065   0.46622   0.00000  Uiso   1.00
N686   N     0.35504   0.18460   0.27072   0.00000  Uiso   1.00
N687   N     0.47437   0.25255   0.36816   0.00000  Uiso   1.00
N688   N     0.35511   0.31532   0.77283   0.00000  Uiso   1.00
N689   N     0.35505   0.17927   0.57733   0.00000  Uiso   1.00
N690   N     0.47438   0.24721   0.67477   0.00000  Uiso   1.00
C691   C     0.89484   0.75308   0.84140   0.00000  Uiso   1.00
C692   C     0.88390   0.77040   0.95073   0.00000  Uiso   1.00
C693   C     0.87469   0.78794   0.87186   0.00000  Uiso   1.00
C694   C     0.86547   0.80196   0.99592   0.00000  Uiso   1.00
C695   C     0.84846   0.82937   0.13589   0.00000  Uiso   1.00
C696   C     0.88388   0.73291   0.89685   0.00000  Uiso   1.00
C697   C     0.87465   0.71891   0.77268   0.00000  Uiso   1.00
C698   C     0.86542   0.70137   0.85139   0.00000  Uiso   1.00
C699   C     0.84839   0.67056   0.90769   0.00000  Uiso   1.00
C700   C     0.91676   0.75164   0.92371   0.00000  Uiso   1.00
C701   C     0.93519   0.75338   0.82211   0.00000  Uiso   1.00
C702   C     0.95364   0.75161   0.92342   0.00000  Uiso   1.00
C703   C     0.98768   0.74987   0.02142   0.00000  Uiso   1.00
C704   C     0.89485   0.74681   0.20197   0.00000  Uiso   1.00
C705   C     0.88390   0.76699   0.14658   0.00000  Uiso   1.00
C706   C     0.87469   0.78099   0.27079   0.00000  Uiso   1.00
C707   C     0.86547   0.79854   0.19212   0.00000  Uiso   1.00
C708   C     0.88388   0.72950   0.09269   0.00000  Uiso   1.00
C709   C     0.87466   0.71197   0.17160   0.00000  Uiso   1.00
C710   C     0.86542   0.69796   0.04759   0.00000  Uiso   1.00
C711   C     0.91677   0.74823   0.11956   0.00000  Uiso   1.00
C712   C     0.93520   0.74644   0.22104   0.00000  Uiso   1.00
C713   C     0.95365   0.74819   0.11962   0.00000  Uiso   1.00
H714   H     0.89484   0.75574   0.68893   0.00000  Uiso   1.00
H715   H     0.87468   0.79057   0.72029   0.00000  Uiso   1.00
H716   H     0.87465   0.72156   0.62113   0.00000  Uiso   1.00
H717   H     0.93518   0.75602   0.67056   0.00000  Uiso   1.00
H718   H     0.85233   0.82768   0.84143   0.00000  Uiso   1.00
H719   H     0.85227   0.68216   0.63233   0.00000  Uiso   1.00
H720   H     0.97991   0.75484   0.73655   0.00000  Uiso   1.00
H721   H     0.89485   0.74415   0.35445   0.00000  Uiso   1.00
H722   H     0.87470   0.77835   0.42234   0.00000  Uiso   1.00
H723   H     0.87467   0.70934   0.32317   0.00000  Uiso   1.00
H724   H     0.93519   0.74380   0.37260   0.00000  Uiso   1.00
H725   H     0.85234   0.81776   0.41124   0.00000  Uiso   1.00
H726   H     0.85228   0.67224   0.20213   0.00000  Uiso   1.00
H727   H     0.97992   0.74492   0.30636   0.00000  Uiso   1.00
O728   O     0.83907   0.84542   0.15898   0.00000  Uiso   1.00
O729   O     0.83900   0.65450   0.88464   0.00000  Uiso   1.00
O730   O     0.00645   0.74986   0.02138   0.00000  Uiso   1.00
N731   N     0.85511   0.82065   0.96622   0.00000  Uiso   1.00
N732   N     0.85504   0.68460   0.77072   0.00000  Uiso   1.00
N733   N     0.97437   0.75255   0.86816   0.00000  Uiso   1.00
N734   N     0.85511   0.81532   0.27283   0.00000  Uiso   1.00
N735   N     0.85505   0.67927   0.07733   0.00000  Uiso   1.00
N736   N     0.97438   0.74721   0.17477   0.00000  Uiso   1.00
