data_job_03195
_audit_creation_date              2018-12-19
_audit_creation_method            'Materials Studio'
_symmetry_space_group_name_H-M    'P1'
_symmetry_Int_Tables_number       1
_symmetry_cell_setting            triclinic
loop_
_symmetry_equiv_pos_as_xyz
  x,y,z
_cell_length_a                    18.8910
_cell_length_b                    18.8910
_cell_length_c                    41.5919
_cell_angle_alpha                 90.0000
_cell_angle_beta                  90.0000
_cell_angle_gamma                 90.0000
loop_
_atom_site_label
_atom_site_type_symbol
_atom_site_fract_x
_atom_site_fract_y
_atom_site_fract_z
_atom_site_U_iso_or_equiv
_atom_site_adp_type
_atom_site_occupancy
C1     C     0.74910   0.68901   0.71959   0.00000  Uiso   1.00
C2     C     0.79981   0.75045   0.72550   0.00000  Uiso   1.00
C3     C     0.78404   0.82167   0.72155   0.00000  Uiso   1.00
C4     C     0.83769   0.86973   0.72819   0.00000  Uiso   1.00
C5     C     0.90625   0.96854   0.73580   0.00000  Uiso   1.00
C6     C     0.78556   0.64098   0.69522   0.00000  Uiso   1.00
C7     C     0.75782   0.62016   0.66580   0.00000  Uiso   1.00
C8     C     0.79947   0.57606   0.64696   0.00000  Uiso   1.00
C9     C     0.84590   0.50488   0.60756   0.00000  Uiso   1.00
C10    C     0.74641   0.64729   0.75095   0.00000  Uiso   1.00
C11    C     0.68575   0.63175   0.76840   0.00000  Uiso   1.00
C12    C     0.69444   0.59294   0.79648   0.00000  Uiso   1.00
C13    C     0.68009   0.53156   0.84361   0.00000  Uiso   1.00
C14    C     0.87240   0.64771   0.73842   0.00000  Uiso   1.00
C15    C     0.86678   0.72801   0.73573   0.00000  Uiso   1.00
C16    C     0.92046   0.77598   0.74238   0.00000  Uiso   1.00
C17    C     0.90478   0.84726   0.73844   0.00000  Uiso   1.00
C18    C     0.85253   0.61855   0.70544   0.00000  Uiso   1.00
C19    C     0.89424   0.57447   0.68664   0.00000  Uiso   1.00
C20    C     0.86657   0.55358   0.65720   0.00000  Uiso   1.00
C21    C     0.81339   0.62486   0.76118   0.00000  Uiso   1.00
C22    C     0.82217   0.58606   0.78923   0.00000  Uiso   1.00
C23    C     0.76154   0.57047   0.80672   0.00000  Uiso   1.00
H24    H     0.69696   0.70647   0.71163   0.00000  Uiso   1.00
H25    H     0.73221   0.83901   0.71363   0.00000  Uiso   1.00
H26    H     0.70599   0.63752   0.65790   0.00000  Uiso   1.00
H27    H     0.63393   0.64912   0.76048   0.00000  Uiso   1.00
H28    H     0.80084   0.97606   0.72035   0.00000  Uiso   1.00
H29    H     0.74554   0.55119   0.60284   0.00000  Uiso   1.00
H30    H     0.59359   0.57564   0.81915   0.00000  Uiso   1.00
H31    H     0.92454   0.63024   0.74638   0.00000  Uiso   1.00
H32    H     0.97229   0.75860   0.75030   0.00000  Uiso   1.00
H33    H     0.94606   0.55711   0.69456   0.00000  Uiso   1.00
H34    H     0.87401   0.56871   0.79714   0.00000  Uiso   1.00
H35    H     0.99569   0.91080   0.75011   0.00000  Uiso   1.00
H36    H     0.94039   0.48593   0.63259   0.00000  Uiso   1.00
H37    H     0.78845   0.51038   0.84891   0.00000  Uiso   1.00
O38    O     0.92558   0.02924   0.73716   0.00000  Uiso   1.00
O39    O     0.85301   0.47182   0.58300   0.00000  Uiso   1.00
O40    O     0.65367   0.50391   0.86679   0.00000  Uiso   1.00
N41    N     0.84014   0.94309   0.72682   0.00000  Uiso   1.00
N42    N     0.78844   0.54587   0.61695   0.00000  Uiso   1.00
N43    N     0.64639   0.56871   0.81918   0.00000  Uiso   1.00
N44    N     0.94499   0.90797   0.74284   0.00000  Uiso   1.00
N45    N     0.89329   0.51075   0.63297   0.00000  Uiso   1.00
N46    N     0.75124   0.53360   0.83520   0.00000  Uiso   1.00
C47    C     0.24910   0.18901   0.21959   0.00000  Uiso   1.00
C48    C     0.29981   0.25045   0.22550   0.00000  Uiso   1.00
C49    C     0.28404   0.32167   0.22155   0.00000  Uiso   1.00
C50    C     0.33769   0.36973   0.22819   0.00000  Uiso   1.00
C51    C     0.40625   0.46854   0.23580   0.00000  Uiso   1.00
C52    C     0.28556   0.14098   0.19522   0.00000  Uiso   1.00
C53    C     0.25782   0.12016   0.16580   0.00000  Uiso   1.00
C54    C     0.29947   0.07606   0.14696   0.00000  Uiso   1.00
C55    C     0.34590   0.00488   0.10756   0.00000  Uiso   1.00
C56    C     0.24641   0.14729   0.25095   0.00000  Uiso   1.00
C57    C     0.18575   0.13175   0.26840   0.00000  Uiso   1.00
C58    C     0.19444   0.09294   0.29648   0.00000  Uiso   1.00
C59    C     0.18009   0.03156   0.34361   0.00000  Uiso   1.00
C60    C     0.37240   0.14771   0.23842   0.00000  Uiso   1.00
C61    C     0.36678   0.22801   0.23573   0.00000  Uiso   1.00
C62    C     0.42046   0.27598   0.24238   0.00000  Uiso   1.00
C63    C     0.40478   0.34726   0.23844   0.00000  Uiso   1.00
C64    C     0.35253   0.11855   0.20544   0.00000  Uiso   1.00
C65    C     0.39424   0.07447   0.18664   0.00000  Uiso   1.00
C66    C     0.36657   0.05358   0.15720   0.00000  Uiso   1.00
C67    C     0.31339   0.12486   0.26118   0.00000  Uiso   1.00
C68    C     0.32217   0.08606   0.28923   0.00000  Uiso   1.00
C69    C     0.26154   0.07047   0.30672   0.00000  Uiso   1.00
H70    H     0.19696   0.20647   0.21163   0.00000  Uiso   1.00
H71    H     0.23221   0.33901   0.21363   0.00000  Uiso   1.00
H72    H     0.20599   0.13752   0.15790   0.00000  Uiso   1.00
H73    H     0.13393   0.14912   0.26048   0.00000  Uiso   1.00
H74    H     0.30084   0.47606   0.22035   0.00000  Uiso   1.00
H75    H     0.24554   0.05119   0.10284   0.00000  Uiso   1.00
H76    H     0.09359   0.07564   0.31915   0.00000  Uiso   1.00
H77    H     0.42454   0.13024   0.24638   0.00000  Uiso   1.00
H78    H     0.47229   0.25860   0.25030   0.00000  Uiso   1.00
H79    H     0.44606   0.05711   0.19456   0.00000  Uiso   1.00
H80    H     0.37401   0.06871   0.29714   0.00000  Uiso   1.00
H81    H     0.49569   0.41080   0.25011   0.00000  Uiso   1.00
H82    H     0.44039   0.98593   0.13259   0.00000  Uiso   1.00
H83    H     0.28845   0.01038   0.34891   0.00000  Uiso   1.00
O84    O     0.42558   0.52924   0.23716   0.00000  Uiso   1.00
O85    O     0.35301   0.97182   0.08300   0.00000  Uiso   1.00
O86    O     0.15367   0.00391   0.36679   0.00000  Uiso   1.00
N87    N     0.34014   0.44309   0.22682   0.00000  Uiso   1.00
N88    N     0.28844   0.04587   0.11695   0.00000  Uiso   1.00
N89    N     0.14639   0.06871   0.31918   0.00000  Uiso   1.00
N90    N     0.44499   0.40797   0.24284   0.00000  Uiso   1.00
N91    N     0.39329   0.01075   0.13297   0.00000  Uiso   1.00
N92    N     0.25124   0.03360   0.33520   0.00000  Uiso   1.00
C93    C     0.25090   0.31099   0.71959   0.00000  Uiso   1.00
C94    C     0.20019   0.24955   0.72550   0.00000  Uiso   1.00
C95    C     0.21596   0.17833   0.72155   0.00000  Uiso   1.00
C96    C     0.16231   0.13027   0.72819   0.00000  Uiso   1.00
C97    C     0.09375   0.03146   0.73580   0.00000  Uiso   1.00
C98    C     0.21444   0.35902   0.69522   0.00000  Uiso   1.00
C99    C     0.24218   0.37984   0.66580   0.00000  Uiso   1.00
C100   C     0.20053   0.42394   0.64696   0.00000  Uiso   1.00
C101   C     0.15410   0.49512   0.60756   0.00000  Uiso   1.00
C102   C     0.25359   0.35271   0.75095   0.00000  Uiso   1.00
C103   C     0.31425   0.36825   0.76840   0.00000  Uiso   1.00
C104   C     0.30556   0.40706   0.79648   0.00000  Uiso   1.00
C105   C     0.31991   0.46844   0.84361   0.00000  Uiso   1.00
C106   C     0.12760   0.35229   0.73842   0.00000  Uiso   1.00
C107   C     0.13322   0.27199   0.73573   0.00000  Uiso   1.00
C108   C     0.07954   0.22402   0.74238   0.00000  Uiso   1.00
C109   C     0.09522   0.15274   0.73844   0.00000  Uiso   1.00
C110   C     0.14747   0.38145   0.70544   0.00000  Uiso   1.00
C111   C     0.10576   0.42553   0.68664   0.00000  Uiso   1.00
C112   C     0.13343   0.44642   0.65720   0.00000  Uiso   1.00
C113   C     0.18661   0.37514   0.76118   0.00000  Uiso   1.00
C114   C     0.17783   0.41394   0.78923   0.00000  Uiso   1.00
C115   C     0.23846   0.42953   0.80672   0.00000  Uiso   1.00
H116   H     0.30304   0.29353   0.71163   0.00000  Uiso   1.00
H117   H     0.26779   0.16099   0.71363   0.00000  Uiso   1.00
H118   H     0.29401   0.36248   0.65790   0.00000  Uiso   1.00
H119   H     0.36607   0.35088   0.76048   0.00000  Uiso   1.00
H120   H     0.19916   0.02394   0.72035   0.00000  Uiso   1.00
H121   H     0.25446   0.44881   0.60284   0.00000  Uiso   1.00
H122   H     0.40641   0.42436   0.81915   0.00000  Uiso   1.00
H123   H     0.07546   0.36976   0.74638   0.00000  Uiso   1.00
H124   H     0.02771   0.24140   0.75030   0.00000  Uiso   1.00
H125   H     0.05394   0.44289   0.69456   0.00000  Uiso   1.00
H126   H     0.12599   0.43129   0.79714   0.00000  Uiso   1.00
H127   H     0.00431   0.08920   0.75011   0.00000  Uiso   1.00
H128   H     0.05961   0.51407   0.63259   0.00000  Uiso   1.00
H129   H     0.21155   0.48962   0.84891   0.00000  Uiso   1.00
O130   O     0.07442   0.97076   0.73716   0.00000  Uiso   1.00
O131   O     0.14699   0.52818   0.58300   0.00000  Uiso   1.00
O132   O     0.34633   0.49609   0.86679   0.00000  Uiso   1.00
N133   N     0.15986   0.05691   0.72682   0.00000  Uiso   1.00
N134   N     0.21156   0.45413   0.61695   0.00000  Uiso   1.00
N135   N     0.35361   0.43129   0.81918   0.00000  Uiso   1.00
N136   N     0.05501   0.09203   0.74284   0.00000  Uiso   1.00
N137   N     0.10671   0.48925   0.63297   0.00000  Uiso   1.00
N138   N     0.24876   0.46640   0.83520   0.00000  Uiso   1.00
C139   C     0.75090   0.81099   0.21959   0.00000  Uiso   1.00
C140   C     0.70019   0.74955   0.22550   0.00000  Uiso   1.00
C141   C     0.71596   0.67833   0.22155   0.00000  Uiso   1.00
C142   C     0.66231   0.63027   0.22819   0.00000  Uiso   1.00
C143   C     0.59375   0.53146   0.23580   0.00000  Uiso   1.00
C144   C     0.71444   0.85902   0.19522   0.00000  Uiso   1.00
C145   C     0.74218   0.87984   0.16580   0.00000  Uiso   1.00
C146   C     0.70053   0.92394   0.14696   0.00000  Uiso   1.00
C147   C     0.65410   0.99512   0.10756   0.00000  Uiso   1.00
C148   C     0.75359   0.85271   0.25095   0.00000  Uiso   1.00
C149   C     0.81425   0.86825   0.26840   0.00000  Uiso   1.00
C150   C     0.80556   0.90706   0.29648   0.00000  Uiso   1.00
C151   C     0.81991   0.96844   0.34361   0.00000  Uiso   1.00
C152   C     0.62760   0.85229   0.23842   0.00000  Uiso   1.00
C153   C     0.63322   0.77199   0.23573   0.00000  Uiso   1.00
C154   C     0.57954   0.72402   0.24238   0.00000  Uiso   1.00
C155   C     0.59522   0.65274   0.23844   0.00000  Uiso   1.00
C156   C     0.64747   0.88145   0.20544   0.00000  Uiso   1.00
C157   C     0.60576   0.92553   0.18664   0.00000  Uiso   1.00
C158   C     0.63343   0.94642   0.15720   0.00000  Uiso   1.00
C159   C     0.68661   0.87514   0.26118   0.00000  Uiso   1.00
C160   C     0.67783   0.91394   0.28923   0.00000  Uiso   1.00
C161   C     0.73846   0.92953   0.30672   0.00000  Uiso   1.00
H162   H     0.80304   0.79353   0.21163   0.00000  Uiso   1.00
H163   H     0.76779   0.66099   0.21363   0.00000  Uiso   1.00
H164   H     0.79401   0.86248   0.15790   0.00000  Uiso   1.00
H165   H     0.86607   0.85088   0.26048   0.00000  Uiso   1.00
H166   H     0.69916   0.52394   0.22035   0.00000  Uiso   1.00
H167   H     0.75446   0.94881   0.10284   0.00000  Uiso   1.00
H168   H     0.90641   0.92436   0.31915   0.00000  Uiso   1.00
H169   H     0.57546   0.86976   0.24638   0.00000  Uiso   1.00
H170   H     0.52771   0.74140   0.25030   0.00000  Uiso   1.00
H171   H     0.55394   0.94289   0.19456   0.00000  Uiso   1.00
H172   H     0.62599   0.93129   0.29714   0.00000  Uiso   1.00
H173   H     0.50431   0.58920   0.25011   0.00000  Uiso   1.00
H174   H     0.55961   0.01407   0.13259   0.00000  Uiso   1.00
H175   H     0.71155   0.98962   0.34891   0.00000  Uiso   1.00
O176   O     0.57442   0.47076   0.23716   0.00000  Uiso   1.00
O177   O     0.64699   0.02818   0.08300   0.00000  Uiso   1.00
O178   O     0.84633   0.99609   0.36679   0.00000  Uiso   1.00
N179   N     0.65986   0.55691   0.22682   0.00000  Uiso   1.00
N180   N     0.71156   0.95413   0.11695   0.00000  Uiso   1.00
N181   N     0.85361   0.93129   0.31918   0.00000  Uiso   1.00
N182   N     0.55501   0.59203   0.24284   0.00000  Uiso   1.00
N183   N     0.60671   0.98925   0.13297   0.00000  Uiso   1.00
N184   N     0.74876   0.96640   0.33520   0.00000  Uiso   1.00
C185   C     0.68901   0.25090   0.28041   0.00000  Uiso   1.00
C186   C     0.75045   0.20019   0.27450   0.00000  Uiso   1.00
C187   C     0.82167   0.21596   0.27845   0.00000  Uiso   1.00
C188   C     0.86973   0.16231   0.27181   0.00000  Uiso   1.00
C189   C     0.96854   0.09375   0.26420   0.00000  Uiso   1.00
C190   C     0.64098   0.21444   0.30478   0.00000  Uiso   1.00
C191   C     0.62016   0.24218   0.33420   0.00000  Uiso   1.00
C192   C     0.57606   0.20053   0.35304   0.00000  Uiso   1.00
C193   C     0.50488   0.15410   0.39244   0.00000  Uiso   1.00
C194   C     0.64729   0.25359   0.24905   0.00000  Uiso   1.00
C195   C     0.63175   0.31425   0.23160   0.00000  Uiso   1.00
C196   C     0.59294   0.30556   0.20352   0.00000  Uiso   1.00
C197   C     0.53156   0.31991   0.15639   0.00000  Uiso   1.00
C198   C     0.64771   0.12760   0.26158   0.00000  Uiso   1.00
C199   C     0.72801   0.13322   0.26427   0.00000  Uiso   1.00
C200   C     0.77598   0.07954   0.25762   0.00000  Uiso   1.00
C201   C     0.84726   0.09522   0.26156   0.00000  Uiso   1.00
C202   C     0.61855   0.14747   0.29456   0.00000  Uiso   1.00
C203   C     0.57447   0.10576   0.31336   0.00000  Uiso   1.00
C204   C     0.55358   0.13343   0.34280   0.00000  Uiso   1.00
C205   C     0.62486   0.18661   0.23882   0.00000  Uiso   1.00
C206   C     0.58606   0.17783   0.21077   0.00000  Uiso   1.00
C207   C     0.57047   0.23846   0.19328   0.00000  Uiso   1.00
H208   H     0.70647   0.30304   0.28837   0.00000  Uiso   1.00
H209   H     0.83901   0.26779   0.28637   0.00000  Uiso   1.00
H210   H     0.63752   0.29401   0.34210   0.00000  Uiso   1.00
H211   H     0.64912   0.36607   0.23952   0.00000  Uiso   1.00
H212   H     0.97606   0.19916   0.27965   0.00000  Uiso   1.00
H213   H     0.55119   0.25446   0.39716   0.00000  Uiso   1.00
H214   H     0.57564   0.40641   0.18085   0.00000  Uiso   1.00
H215   H     0.63024   0.07546   0.25362   0.00000  Uiso   1.00
H216   H     0.75860   0.02771   0.24970   0.00000  Uiso   1.00
H217   H     0.55711   0.05394   0.30544   0.00000  Uiso   1.00
H218   H     0.56871   0.12599   0.20286   0.00000  Uiso   1.00
H219   H     0.91080   0.00431   0.24989   0.00000  Uiso   1.00
H220   H     0.48593   0.05961   0.36741   0.00000  Uiso   1.00
H221   H     0.51038   0.21155   0.15109   0.00000  Uiso   1.00
O222   O     0.02924   0.07442   0.26284   0.00000  Uiso   1.00
O223   O     0.47182   0.14699   0.41700   0.00000  Uiso   1.00
O224   O     0.50391   0.34633   0.13321   0.00000  Uiso   1.00
N225   N     0.94309   0.15986   0.27318   0.00000  Uiso   1.00
N226   N     0.54587   0.21156   0.38305   0.00000  Uiso   1.00
N227   N     0.56871   0.35361   0.18082   0.00000  Uiso   1.00
N228   N     0.90797   0.05501   0.25716   0.00000  Uiso   1.00
N229   N     0.51075   0.10671   0.36703   0.00000  Uiso   1.00
N230   N     0.53360   0.24876   0.16480   0.00000  Uiso   1.00
C231   C     0.18901   0.75090   0.78041   0.00000  Uiso   1.00
C232   C     0.25045   0.70019   0.77450   0.00000  Uiso   1.00
C233   C     0.32167   0.71596   0.77845   0.00000  Uiso   1.00
C234   C     0.36973   0.66231   0.77181   0.00000  Uiso   1.00
C235   C     0.46854   0.59375   0.76420   0.00000  Uiso   1.00
C236   C     0.14098   0.71444   0.80478   0.00000  Uiso   1.00
C237   C     0.12016   0.74218   0.83420   0.00000  Uiso   1.00
C238   C     0.07606   0.70053   0.85304   0.00000  Uiso   1.00
C239   C     0.00488   0.65410   0.89244   0.00000  Uiso   1.00
C240   C     0.14729   0.75359   0.74905   0.00000  Uiso   1.00
C241   C     0.13175   0.81425   0.73160   0.00000  Uiso   1.00
C242   C     0.09294   0.80556   0.70352   0.00000  Uiso   1.00
C243   C     0.03156   0.81991   0.65639   0.00000  Uiso   1.00
C244   C     0.14771   0.62760   0.76158   0.00000  Uiso   1.00
C245   C     0.22801   0.63322   0.76427   0.00000  Uiso   1.00
C246   C     0.27598   0.57954   0.75762   0.00000  Uiso   1.00
C247   C     0.34726   0.59522   0.76156   0.00000  Uiso   1.00
C248   C     0.11855   0.64747   0.79456   0.00000  Uiso   1.00
C249   C     0.07447   0.60576   0.81336   0.00000  Uiso   1.00
C250   C     0.05358   0.63343   0.84280   0.00000  Uiso   1.00
C251   C     0.12486   0.68661   0.73882   0.00000  Uiso   1.00
C252   C     0.08606   0.67783   0.71077   0.00000  Uiso   1.00
C253   C     0.07047   0.73846   0.69328   0.00000  Uiso   1.00
H254   H     0.20647   0.80304   0.78837   0.00000  Uiso   1.00
H255   H     0.33901   0.76779   0.78637   0.00000  Uiso   1.00
H256   H     0.13752   0.79401   0.84210   0.00000  Uiso   1.00
H257   H     0.14912   0.86607   0.73952   0.00000  Uiso   1.00
H258   H     0.47606   0.69916   0.77965   0.00000  Uiso   1.00
H259   H     0.05119   0.75446   0.89716   0.00000  Uiso   1.00
H260   H     0.07564   0.90641   0.68085   0.00000  Uiso   1.00
H261   H     0.13024   0.57546   0.75362   0.00000  Uiso   1.00
H262   H     0.25860   0.52771   0.74970   0.00000  Uiso   1.00
H263   H     0.05711   0.55394   0.80544   0.00000  Uiso   1.00
H264   H     0.06871   0.62599   0.70286   0.00000  Uiso   1.00
H265   H     0.41080   0.50431   0.74989   0.00000  Uiso   1.00
H266   H     0.98593   0.55961   0.86741   0.00000  Uiso   1.00
H267   H     0.01038   0.71155   0.65109   0.00000  Uiso   1.00
O268   O     0.52924   0.57442   0.76284   0.00000  Uiso   1.00
O269   O     0.97182   0.64699   0.91700   0.00000  Uiso   1.00
O270   O     0.00391   0.84633   0.63321   0.00000  Uiso   1.00
N271   N     0.44309   0.65986   0.77318   0.00000  Uiso   1.00
N272   N     0.04587   0.71156   0.88305   0.00000  Uiso   1.00
N273   N     0.06871   0.85361   0.68082   0.00000  Uiso   1.00
N274   N     0.40797   0.55501   0.75716   0.00000  Uiso   1.00
N275   N     0.01075   0.60671   0.86703   0.00000  Uiso   1.00
N276   N     0.03360   0.74876   0.66480   0.00000  Uiso   1.00
C277   C     0.31099   0.74910   0.28041   0.00000  Uiso   1.00
C278   C     0.24955   0.79981   0.27450   0.00000  Uiso   1.00
C279   C     0.17833   0.78404   0.27845   0.00000  Uiso   1.00
C280   C     0.13027   0.83769   0.27181   0.00000  Uiso   1.00
C281   C     0.03146   0.90625   0.26420   0.00000  Uiso   1.00
C282   C     0.35902   0.78556   0.30478   0.00000  Uiso   1.00
C283   C     0.37984   0.75782   0.33420   0.00000  Uiso   1.00
C284   C     0.42394   0.79947   0.35304   0.00000  Uiso   1.00
C285   C     0.49512   0.84590   0.39244   0.00000  Uiso   1.00
C286   C     0.35271   0.74641   0.24905   0.00000  Uiso   1.00
C287   C     0.36825   0.68575   0.23160   0.00000  Uiso   1.00
C288   C     0.40706   0.69444   0.20352   0.00000  Uiso   1.00
C289   C     0.46844   0.68009   0.15639   0.00000  Uiso   1.00
C290   C     0.35229   0.87240   0.26158   0.00000  Uiso   1.00
C291   C     0.27199   0.86678   0.26427   0.00000  Uiso   1.00
C292   C     0.22402   0.92046   0.25762   0.00000  Uiso   1.00
C293   C     0.15274   0.90478   0.26156   0.00000  Uiso   1.00
C294   C     0.38145   0.85253   0.29456   0.00000  Uiso   1.00
C295   C     0.42553   0.89424   0.31336   0.00000  Uiso   1.00
C296   C     0.44642   0.86657   0.34280   0.00000  Uiso   1.00
C297   C     0.37514   0.81339   0.23882   0.00000  Uiso   1.00
C298   C     0.41394   0.82217   0.21077   0.00000  Uiso   1.00
C299   C     0.42953   0.76154   0.19328   0.00000  Uiso   1.00
H300   H     0.29353   0.69696   0.28837   0.00000  Uiso   1.00
H301   H     0.16099   0.73221   0.28637   0.00000  Uiso   1.00
H302   H     0.36248   0.70599   0.34210   0.00000  Uiso   1.00
H303   H     0.35088   0.63393   0.23952   0.00000  Uiso   1.00
H304   H     0.02394   0.80084   0.27965   0.00000  Uiso   1.00
H305   H     0.44881   0.74554   0.39716   0.00000  Uiso   1.00
H306   H     0.42436   0.59359   0.18085   0.00000  Uiso   1.00
H307   H     0.36976   0.92454   0.25362   0.00000  Uiso   1.00
H308   H     0.24140   0.97229   0.24970   0.00000  Uiso   1.00
H309   H     0.44289   0.94606   0.30544   0.00000  Uiso   1.00
H310   H     0.43129   0.87401   0.20286   0.00000  Uiso   1.00
H311   H     0.08920   0.99569   0.24989   0.00000  Uiso   1.00
H312   H     0.51407   0.94039   0.36741   0.00000  Uiso   1.00
H313   H     0.48962   0.78845   0.15109   0.00000  Uiso   1.00
O314   O     0.97076   0.92558   0.26284   0.00000  Uiso   1.00
O315   O     0.52818   0.85301   0.41700   0.00000  Uiso   1.00
O316   O     0.49609   0.65367   0.13321   0.00000  Uiso   1.00
N317   N     0.05691   0.84014   0.27318   0.00000  Uiso   1.00
N318   N     0.45413   0.78844   0.38305   0.00000  Uiso   1.00
N319   N     0.43129   0.64639   0.18082   0.00000  Uiso   1.00
N320   N     0.09203   0.94499   0.25716   0.00000  Uiso   1.00
N321   N     0.48925   0.89329   0.36703   0.00000  Uiso   1.00
N322   N     0.46640   0.75124   0.16480   0.00000  Uiso   1.00
C323   C     0.81099   0.24910   0.78041   0.00000  Uiso   1.00
C324   C     0.74955   0.29981   0.77450   0.00000  Uiso   1.00
C325   C     0.67833   0.28404   0.77845   0.00000  Uiso   1.00
C326   C     0.63027   0.33769   0.77181   0.00000  Uiso   1.00
C327   C     0.53146   0.40625   0.76420   0.00000  Uiso   1.00
C328   C     0.85902   0.28556   0.80478   0.00000  Uiso   1.00
C329   C     0.87984   0.25782   0.83420   0.00000  Uiso   1.00
C330   C     0.92394   0.29947   0.85304   0.00000  Uiso   1.00
C331   C     0.99512   0.34590   0.89244   0.00000  Uiso   1.00
C332   C     0.85271   0.24641   0.74905   0.00000  Uiso   1.00
C333   C     0.86825   0.18575   0.73160   0.00000  Uiso   1.00
C334   C     0.90706   0.19444   0.70352   0.00000  Uiso   1.00
C335   C     0.96844   0.18009   0.65639   0.00000  Uiso   1.00
C336   C     0.85229   0.37240   0.76158   0.00000  Uiso   1.00
C337   C     0.77199   0.36678   0.76427   0.00000  Uiso   1.00
C338   C     0.72402   0.42046   0.75762   0.00000  Uiso   1.00
C339   C     0.65274   0.40478   0.76156   0.00000  Uiso   1.00
C340   C     0.88145   0.35253   0.79456   0.00000  Uiso   1.00
C341   C     0.92553   0.39424   0.81336   0.00000  Uiso   1.00
C342   C     0.94642   0.36657   0.84280   0.00000  Uiso   1.00
C343   C     0.87514   0.31339   0.73882   0.00000  Uiso   1.00
C344   C     0.91394   0.32217   0.71077   0.00000  Uiso   1.00
C345   C     0.92953   0.26154   0.69328   0.00000  Uiso   1.00
H346   H     0.79353   0.19696   0.78837   0.00000  Uiso   1.00
H347   H     0.66099   0.23221   0.78637   0.00000  Uiso   1.00
H348   H     0.86248   0.20599   0.84210   0.00000  Uiso   1.00
H349   H     0.85088   0.13393   0.73952   0.00000  Uiso   1.00
H350   H     0.52394   0.30084   0.77965   0.00000  Uiso   1.00
H351   H     0.94881   0.24554   0.89716   0.00000  Uiso   1.00
H352   H     0.92436   0.09359   0.68085   0.00000  Uiso   1.00
H353   H     0.86976   0.42454   0.75362   0.00000  Uiso   1.00
H354   H     0.74140   0.47229   0.74970   0.00000  Uiso   1.00
H355   H     0.94289   0.44606   0.80544   0.00000  Uiso   1.00
H356   H     0.93129   0.37401   0.70286   0.00000  Uiso   1.00
H357   H     0.58920   0.49569   0.74989   0.00000  Uiso   1.00
H358   H     0.01407   0.44039   0.86741   0.00000  Uiso   1.00
H359   H     0.98962   0.28845   0.65109   0.00000  Uiso   1.00
O360   O     0.47076   0.42558   0.76284   0.00000  Uiso   1.00
O361   O     0.02818   0.35301   0.91700   0.00000  Uiso   1.00
O362   O     0.99609   0.15367   0.63321   0.00000  Uiso   1.00
N363   N     0.55691   0.34014   0.77318   0.00000  Uiso   1.00
N364   N     0.95413   0.28844   0.88305   0.00000  Uiso   1.00
N365   N     0.93129   0.14639   0.68082   0.00000  Uiso   1.00
N366   N     0.59203   0.44499   0.75716   0.00000  Uiso   1.00
N367   N     0.98925   0.39329   0.86703   0.00000  Uiso   1.00
N368   N     0.96640   0.25124   0.66480   0.00000  Uiso   1.00
C369   C     0.75090   0.68901   0.03041   0.00000  Uiso   1.00
C370   C     0.70019   0.75045   0.02450   0.00000  Uiso   1.00
C371   C     0.71596   0.82167   0.02845   0.00000  Uiso   1.00
C372   C     0.66231   0.86973   0.02181   0.00000  Uiso   1.00
C373   C     0.59375   0.96854   0.01420   0.00000  Uiso   1.00
C374   C     0.71444   0.64098   0.05478   0.00000  Uiso   1.00
C375   C     0.74218   0.62016   0.08420   0.00000  Uiso   1.00
C376   C     0.70053   0.57606   0.10304   0.00000  Uiso   1.00
C377   C     0.65410   0.50488   0.14244   0.00000  Uiso   1.00
C378   C     0.75359   0.64729   0.99905   0.00000  Uiso   1.00
C379   C     0.81425   0.63175   0.98160   0.00000  Uiso   1.00
C380   C     0.80556   0.59294   0.95352   0.00000  Uiso   1.00
C381   C     0.81991   0.53156   0.90639   0.00000  Uiso   1.00
C382   C     0.62760   0.64771   0.01158   0.00000  Uiso   1.00
C383   C     0.63322   0.72801   0.01427   0.00000  Uiso   1.00
C384   C     0.57954   0.77598   0.00762   0.00000  Uiso   1.00
C385   C     0.59522   0.84726   0.01156   0.00000  Uiso   1.00
C386   C     0.64747   0.61855   0.04456   0.00000  Uiso   1.00
C387   C     0.60576   0.57447   0.06336   0.00000  Uiso   1.00
C388   C     0.63343   0.55358   0.09280   0.00000  Uiso   1.00
C389   C     0.68661   0.62486   0.98882   0.00000  Uiso   1.00
C390   C     0.67783   0.58606   0.96077   0.00000  Uiso   1.00
C391   C     0.73846   0.57047   0.94328   0.00000  Uiso   1.00
H392   H     0.80304   0.70647   0.03837   0.00000  Uiso   1.00
H393   H     0.76779   0.83901   0.03637   0.00000  Uiso   1.00
H394   H     0.79401   0.63752   0.09210   0.00000  Uiso   1.00
H395   H     0.86607   0.64912   0.98952   0.00000  Uiso   1.00
H396   H     0.69916   0.97606   0.02965   0.00000  Uiso   1.00
H397   H     0.75446   0.55119   0.14716   0.00000  Uiso   1.00
H398   H     0.90641   0.57564   0.93085   0.00000  Uiso   1.00
H399   H     0.57546   0.63024   0.00362   0.00000  Uiso   1.00
H400   H     0.52771   0.75860   0.99970   0.00000  Uiso   1.00
H401   H     0.55394   0.55711   0.05544   0.00000  Uiso   1.00
H402   H     0.62599   0.56871   0.95286   0.00000  Uiso   1.00
H403   H     0.50431   0.91080   0.99989   0.00000  Uiso   1.00
H404   H     0.55961   0.48593   0.11741   0.00000  Uiso   1.00
H405   H     0.71155   0.51038   0.90109   0.00000  Uiso   1.00
O406   O     0.57442   0.02924   0.01284   0.00000  Uiso   1.00
O407   O     0.64699   0.47182   0.16700   0.00000  Uiso   1.00
O408   O     0.84633   0.50391   0.88321   0.00000  Uiso   1.00
N409   N     0.65986   0.94309   0.02318   0.00000  Uiso   1.00
N410   N     0.71156   0.54587   0.13305   0.00000  Uiso   1.00
N411   N     0.85361   0.56871   0.93082   0.00000  Uiso   1.00
N412   N     0.55501   0.90797   0.00716   0.00000  Uiso   1.00
N413   N     0.60671   0.51075   0.11703   0.00000  Uiso   1.00
N414   N     0.74876   0.53360   0.91480   0.00000  Uiso   1.00
C415   C     0.25090   0.18901   0.53041   0.00000  Uiso   1.00
C416   C     0.20019   0.25045   0.52450   0.00000  Uiso   1.00
C417   C     0.21596   0.32167   0.52845   0.00000  Uiso   1.00
C418   C     0.16231   0.36973   0.52181   0.00000  Uiso   1.00
C419   C     0.09375   0.46854   0.51420   0.00000  Uiso   1.00
C420   C     0.21444   0.14098   0.55478   0.00000  Uiso   1.00
C421   C     0.24218   0.12016   0.58420   0.00000  Uiso   1.00
C422   C     0.20053   0.07606   0.60304   0.00000  Uiso   1.00
C423   C     0.15410   0.00488   0.64244   0.00000  Uiso   1.00
C424   C     0.25359   0.14729   0.49905   0.00000  Uiso   1.00
C425   C     0.31425   0.13175   0.48160   0.00000  Uiso   1.00
C426   C     0.30556   0.09294   0.45352   0.00000  Uiso   1.00
C427   C     0.31991   0.03156   0.40639   0.00000  Uiso   1.00
C428   C     0.12760   0.14771   0.51158   0.00000  Uiso   1.00
C429   C     0.13322   0.22801   0.51427   0.00000  Uiso   1.00
C430   C     0.07954   0.27598   0.50762   0.00000  Uiso   1.00
C431   C     0.09522   0.34726   0.51156   0.00000  Uiso   1.00
C432   C     0.14747   0.11855   0.54456   0.00000  Uiso   1.00
C433   C     0.10576   0.07447   0.56336   0.00000  Uiso   1.00
C434   C     0.13343   0.05358   0.59280   0.00000  Uiso   1.00
C435   C     0.18661   0.12486   0.48882   0.00000  Uiso   1.00
C436   C     0.17783   0.08606   0.46077   0.00000  Uiso   1.00
C437   C     0.23846   0.07047   0.44328   0.00000  Uiso   1.00
H438   H     0.30304   0.20647   0.53837   0.00000  Uiso   1.00
H439   H     0.26779   0.33901   0.53637   0.00000  Uiso   1.00
H440   H     0.29401   0.13752   0.59210   0.00000  Uiso   1.00
H441   H     0.36607   0.14912   0.48952   0.00000  Uiso   1.00
H442   H     0.19916   0.47606   0.52965   0.00000  Uiso   1.00
H443   H     0.25446   0.05119   0.64716   0.00000  Uiso   1.00
H444   H     0.40641   0.07564   0.43085   0.00000  Uiso   1.00
H445   H     0.07546   0.13024   0.50362   0.00000  Uiso   1.00
H446   H     0.02771   0.25860   0.49970   0.00000  Uiso   1.00
H447   H     0.05394   0.05711   0.55544   0.00000  Uiso   1.00
H448   H     0.12599   0.06871   0.45286   0.00000  Uiso   1.00
H449   H     0.00431   0.41080   0.49989   0.00000  Uiso   1.00
H450   H     0.05961   0.98593   0.61741   0.00000  Uiso   1.00
H451   H     0.21155   0.01038   0.40109   0.00000  Uiso   1.00
O452   O     0.07442   0.52924   0.51284   0.00000  Uiso   1.00
O453   O     0.14699   0.97182   0.66700   0.00000  Uiso   1.00
O454   O     0.34633   0.00391   0.38321   0.00000  Uiso   1.00
N455   N     0.15986   0.44309   0.52318   0.00000  Uiso   1.00
N456   N     0.21156   0.04587   0.63305   0.00000  Uiso   1.00
N457   N     0.35361   0.06871   0.43082   0.00000  Uiso   1.00
N458   N     0.05501   0.40797   0.50716   0.00000  Uiso   1.00
N459   N     0.10671   0.01075   0.61703   0.00000  Uiso   1.00
N460   N     0.24876   0.03360   0.41480   0.00000  Uiso   1.00
C461   C     0.24910   0.31099   0.03041   0.00000  Uiso   1.00
C462   C     0.29981   0.24955   0.02450   0.00000  Uiso   1.00
C463   C     0.28404   0.17833   0.02845   0.00000  Uiso   1.00
C464   C     0.33769   0.13027   0.02181   0.00000  Uiso   1.00
C465   C     0.40625   0.03146   0.01420   0.00000  Uiso   1.00
C466   C     0.28556   0.35902   0.05478   0.00000  Uiso   1.00
C467   C     0.25782   0.37984   0.08420   0.00000  Uiso   1.00
C468   C     0.29947   0.42394   0.10304   0.00000  Uiso   1.00
C469   C     0.34590   0.49512   0.14244   0.00000  Uiso   1.00
C470   C     0.24641   0.35271   0.99905   0.00000  Uiso   1.00
C471   C     0.18575   0.36825   0.98160   0.00000  Uiso   1.00
C472   C     0.19444   0.40706   0.95352   0.00000  Uiso   1.00
C473   C     0.18009   0.46844   0.90639   0.00000  Uiso   1.00
C474   C     0.37240   0.35229   0.01158   0.00000  Uiso   1.00
C475   C     0.36678   0.27199   0.01427   0.00000  Uiso   1.00
C476   C     0.42046   0.22402   0.00762   0.00000  Uiso   1.00
C477   C     0.40478   0.15274   0.01156   0.00000  Uiso   1.00
C478   C     0.35253   0.38145   0.04456   0.00000  Uiso   1.00
C479   C     0.39424   0.42553   0.06336   0.00000  Uiso   1.00
C480   C     0.36657   0.44642   0.09280   0.00000  Uiso   1.00
C481   C     0.31339   0.37514   0.98882   0.00000  Uiso   1.00
C482   C     0.32217   0.41394   0.96077   0.00000  Uiso   1.00
C483   C     0.26154   0.42953   0.94328   0.00000  Uiso   1.00
H484   H     0.19696   0.29353   0.03837   0.00000  Uiso   1.00
H485   H     0.23221   0.16099   0.03637   0.00000  Uiso   1.00
H486   H     0.20599   0.36248   0.09210   0.00000  Uiso   1.00
H487   H     0.13393   0.35088   0.98952   0.00000  Uiso   1.00
H488   H     0.30084   0.02394   0.02965   0.00000  Uiso   1.00
H489   H     0.24554   0.44881   0.14716   0.00000  Uiso   1.00
H490   H     0.09359   0.42436   0.93085   0.00000  Uiso   1.00
H491   H     0.42454   0.36976   0.00362   0.00000  Uiso   1.00
H492   H     0.47229   0.24140   0.99970   0.00000  Uiso   1.00
H493   H     0.44606   0.44289   0.05544   0.00000  Uiso   1.00
H494   H     0.37401   0.43129   0.95286   0.00000  Uiso   1.00
H495   H     0.49569   0.08920   0.99989   0.00000  Uiso   1.00
H496   H     0.44039   0.51407   0.11741   0.00000  Uiso   1.00
H497   H     0.28845   0.48962   0.90109   0.00000  Uiso   1.00
O498   O     0.42558   0.97076   0.01284   0.00000  Uiso   1.00
O499   O     0.35301   0.52818   0.16700   0.00000  Uiso   1.00
O500   O     0.15367   0.49609   0.88321   0.00000  Uiso   1.00
N501   N     0.34014   0.05691   0.02318   0.00000  Uiso   1.00
N502   N     0.28844   0.45413   0.13305   0.00000  Uiso   1.00
N503   N     0.14639   0.43129   0.93082   0.00000  Uiso   1.00
N504   N     0.44499   0.09203   0.00716   0.00000  Uiso   1.00
N505   N     0.39329   0.48925   0.11703   0.00000  Uiso   1.00
N506   N     0.25124   0.46640   0.91480   0.00000  Uiso   1.00
C507   C     0.74910   0.81099   0.53041   0.00000  Uiso   1.00
C508   C     0.79981   0.74955   0.52450   0.00000  Uiso   1.00
C509   C     0.78404   0.67833   0.52845   0.00000  Uiso   1.00
C510   C     0.83769   0.63027   0.52181   0.00000  Uiso   1.00
C511   C     0.90625   0.53146   0.51420   0.00000  Uiso   1.00
C512   C     0.78556   0.85902   0.55478   0.00000  Uiso   1.00
C513   C     0.75782   0.87984   0.58420   0.00000  Uiso   1.00
C514   C     0.79947   0.92394   0.60304   0.00000  Uiso   1.00
C515   C     0.84590   0.99512   0.64244   0.00000  Uiso   1.00
C516   C     0.74641   0.85271   0.49905   0.00000  Uiso   1.00
C517   C     0.68575   0.86825   0.48160   0.00000  Uiso   1.00
C518   C     0.69444   0.90706   0.45352   0.00000  Uiso   1.00
C519   C     0.68009   0.96844   0.40639   0.00000  Uiso   1.00
C520   C     0.87240   0.85229   0.51158   0.00000  Uiso   1.00
C521   C     0.86678   0.77199   0.51427   0.00000  Uiso   1.00
C522   C     0.92046   0.72402   0.50762   0.00000  Uiso   1.00
C523   C     0.90478   0.65274   0.51156   0.00000  Uiso   1.00
C524   C     0.85253   0.88145   0.54456   0.00000  Uiso   1.00
C525   C     0.89424   0.92553   0.56336   0.00000  Uiso   1.00
C526   C     0.86657   0.94642   0.59280   0.00000  Uiso   1.00
C527   C     0.81339   0.87514   0.48882   0.00000  Uiso   1.00
C528   C     0.82217   0.91394   0.46077   0.00000  Uiso   1.00
C529   C     0.76154   0.92953   0.44328   0.00000  Uiso   1.00
H530   H     0.69696   0.79353   0.53837   0.00000  Uiso   1.00
H531   H     0.73221   0.66099   0.53637   0.00000  Uiso   1.00
H532   H     0.70599   0.86248   0.59210   0.00000  Uiso   1.00
H533   H     0.63393   0.85088   0.48952   0.00000  Uiso   1.00
H534   H     0.80084   0.52394   0.52965   0.00000  Uiso   1.00
H535   H     0.74554   0.94881   0.64716   0.00000  Uiso   1.00
H536   H     0.59359   0.92436   0.43085   0.00000  Uiso   1.00
H537   H     0.92454   0.86976   0.50362   0.00000  Uiso   1.00
H538   H     0.97229   0.74140   0.49970   0.00000  Uiso   1.00
H539   H     0.94606   0.94289   0.55544   0.00000  Uiso   1.00
H540   H     0.87401   0.93129   0.45286   0.00000  Uiso   1.00
H541   H     0.99569   0.58920   0.49989   0.00000  Uiso   1.00
H542   H     0.94039   0.01407   0.61741   0.00000  Uiso   1.00
H543   H     0.78845   0.98962   0.40109   0.00000  Uiso   1.00
O544   O     0.92558   0.47076   0.51284   0.00000  Uiso   1.00
O545   O     0.85301   0.02818   0.66700   0.00000  Uiso   1.00
O546   O     0.65367   0.99609   0.38321   0.00000  Uiso   1.00
N547   N     0.84014   0.55691   0.52318   0.00000  Uiso   1.00
N548   N     0.78844   0.95413   0.63305   0.00000  Uiso   1.00
N549   N     0.64639   0.93129   0.43082   0.00000  Uiso   1.00
N550   N     0.94499   0.59203   0.50716   0.00000  Uiso   1.00
N551   N     0.89329   0.98925   0.61703   0.00000  Uiso   1.00
N552   N     0.75124   0.96640   0.41480   0.00000  Uiso   1.00
C553   C     0.81099   0.25090   0.46959   0.00000  Uiso   1.00
C554   C     0.74955   0.20019   0.47550   0.00000  Uiso   1.00
C555   C     0.67833   0.21596   0.47155   0.00000  Uiso   1.00
C556   C     0.63027   0.16231   0.47819   0.00000  Uiso   1.00
C557   C     0.53146   0.09375   0.48580   0.00000  Uiso   1.00
C558   C     0.85902   0.21444   0.44522   0.00000  Uiso   1.00
C559   C     0.87984   0.24218   0.41580   0.00000  Uiso   1.00
C560   C     0.92394   0.20053   0.39696   0.00000  Uiso   1.00
C561   C     0.99512   0.15410   0.35756   0.00000  Uiso   1.00
C562   C     0.85271   0.25359   0.50095   0.00000  Uiso   1.00
C563   C     0.86825   0.31425   0.51840   0.00000  Uiso   1.00
C564   C     0.90706   0.30556   0.54648   0.00000  Uiso   1.00
C565   C     0.96844   0.31991   0.59361   0.00000  Uiso   1.00
C566   C     0.85229   0.12760   0.48842   0.00000  Uiso   1.00
C567   C     0.77199   0.13322   0.48573   0.00000  Uiso   1.00
C568   C     0.72402   0.07954   0.49238   0.00000  Uiso   1.00
C569   C     0.65274   0.09522   0.48844   0.00000  Uiso   1.00
C570   C     0.88145   0.14747   0.45544   0.00000  Uiso   1.00
C571   C     0.92553   0.10576   0.43664   0.00000  Uiso   1.00
C572   C     0.94642   0.13343   0.40720   0.00000  Uiso   1.00
C573   C     0.87514   0.18661   0.51118   0.00000  Uiso   1.00
C574   C     0.91394   0.17783   0.53923   0.00000  Uiso   1.00
C575   C     0.92953   0.23846   0.55672   0.00000  Uiso   1.00
H576   H     0.79353   0.30304   0.46163   0.00000  Uiso   1.00
H577   H     0.66099   0.26779   0.46363   0.00000  Uiso   1.00
H578   H     0.86248   0.29401   0.40790   0.00000  Uiso   1.00
H579   H     0.85088   0.36607   0.51048   0.00000  Uiso   1.00
H580   H     0.52394   0.19916   0.47035   0.00000  Uiso   1.00
H581   H     0.94881   0.25446   0.35284   0.00000  Uiso   1.00
H582   H     0.92436   0.40641   0.56915   0.00000  Uiso   1.00
H583   H     0.86976   0.07546   0.49638   0.00000  Uiso   1.00
H584   H     0.74140   0.02771   0.50030   0.00000  Uiso   1.00
H585   H     0.94289   0.05394   0.44456   0.00000  Uiso   1.00
H586   H     0.93129   0.12599   0.54714   0.00000  Uiso   1.00
H587   H     0.58920   0.00431   0.50011   0.00000  Uiso   1.00
H588   H     0.01407   0.05961   0.38259   0.00000  Uiso   1.00
H589   H     0.98962   0.21155   0.59891   0.00000  Uiso   1.00
O590   O     0.47076   0.07442   0.48716   0.00000  Uiso   1.00
O591   O     0.02818   0.14699   0.33300   0.00000  Uiso   1.00
O592   O     0.99609   0.34633   0.61679   0.00000  Uiso   1.00
N593   N     0.55691   0.15986   0.47682   0.00000  Uiso   1.00
N594   N     0.95413   0.21156   0.36695   0.00000  Uiso   1.00
N595   N     0.93129   0.35361   0.56918   0.00000  Uiso   1.00
N596   N     0.59203   0.05501   0.49284   0.00000  Uiso   1.00
N597   N     0.98925   0.10671   0.38297   0.00000  Uiso   1.00
N598   N     0.96640   0.24876   0.58520   0.00000  Uiso   1.00
C599   C     0.31099   0.75090   0.96959   0.00000  Uiso   1.00
C600   C     0.24955   0.70019   0.97550   0.00000  Uiso   1.00
C601   C     0.17833   0.71596   0.97155   0.00000  Uiso   1.00
C602   C     0.13027   0.66231   0.97819   0.00000  Uiso   1.00
C603   C     0.03146   0.59375   0.98580   0.00000  Uiso   1.00
C604   C     0.35902   0.71444   0.94522   0.00000  Uiso   1.00
C605   C     0.37984   0.74218   0.91580   0.00000  Uiso   1.00
C606   C     0.42394   0.70053   0.89696   0.00000  Uiso   1.00
C607   C     0.49512   0.65410   0.85756   0.00000  Uiso   1.00
C608   C     0.35271   0.75359   0.00095   0.00000  Uiso   1.00
C609   C     0.36825   0.81425   0.01840   0.00000  Uiso   1.00
C610   C     0.40706   0.80556   0.04648   0.00000  Uiso   1.00
C611   C     0.46844   0.81991   0.09361   0.00000  Uiso   1.00
C612   C     0.35229   0.62760   0.98842   0.00000  Uiso   1.00
C613   C     0.27199   0.63322   0.98573   0.00000  Uiso   1.00
C614   C     0.22402   0.57954   0.99238   0.00000  Uiso   1.00
C615   C     0.15274   0.59522   0.98844   0.00000  Uiso   1.00
C616   C     0.38145   0.64747   0.95544   0.00000  Uiso   1.00
C617   C     0.42553   0.60576   0.93664   0.00000  Uiso   1.00
C618   C     0.44642   0.63343   0.90720   0.00000  Uiso   1.00
C619   C     0.37514   0.68661   0.01118   0.00000  Uiso   1.00
C620   C     0.41394   0.67783   0.03923   0.00000  Uiso   1.00
C621   C     0.42953   0.73846   0.05672   0.00000  Uiso   1.00
H622   H     0.29353   0.80304   0.96163   0.00000  Uiso   1.00
H623   H     0.16099   0.76779   0.96363   0.00000  Uiso   1.00
H624   H     0.36248   0.79401   0.90790   0.00000  Uiso   1.00
H625   H     0.35088   0.86607   0.01048   0.00000  Uiso   1.00
H626   H     0.02394   0.69916   0.97035   0.00000  Uiso   1.00
H627   H     0.44881   0.75446   0.85284   0.00000  Uiso   1.00
H628   H     0.42436   0.90641   0.06915   0.00000  Uiso   1.00
H629   H     0.36976   0.57546   0.99638   0.00000  Uiso   1.00
H630   H     0.24140   0.52771   0.00030   0.00000  Uiso   1.00
H631   H     0.44289   0.55394   0.94456   0.00000  Uiso   1.00
H632   H     0.43129   0.62599   0.04714   0.00000  Uiso   1.00
H633   H     0.08920   0.50431   0.00011   0.00000  Uiso   1.00
H634   H     0.51407   0.55961   0.88259   0.00000  Uiso   1.00
H635   H     0.48962   0.71155   0.09891   0.00000  Uiso   1.00
O636   O     0.97076   0.57442   0.98716   0.00000  Uiso   1.00
O637   O     0.52818   0.64699   0.83300   0.00000  Uiso   1.00
O638   O     0.49609   0.84633   0.11679   0.00000  Uiso   1.00
N639   N     0.05691   0.65986   0.97682   0.00000  Uiso   1.00
N640   N     0.45413   0.71156   0.86695   0.00000  Uiso   1.00
N641   N     0.43129   0.85361   0.06918   0.00000  Uiso   1.00
N642   N     0.09203   0.55501   0.99284   0.00000  Uiso   1.00
N643   N     0.48925   0.60671   0.88297   0.00000  Uiso   1.00
N644   N     0.46640   0.74876   0.08520   0.00000  Uiso   1.00
C645   C     0.18901   0.74910   0.46959   0.00000  Uiso   1.00
C646   C     0.25045   0.79981   0.47550   0.00000  Uiso   1.00
C647   C     0.32167   0.78404   0.47155   0.00000  Uiso   1.00
C648   C     0.36973   0.83769   0.47819   0.00000  Uiso   1.00
C649   C     0.46854   0.90625   0.48580   0.00000  Uiso   1.00
C650   C     0.14098   0.78556   0.44522   0.00000  Uiso   1.00
C651   C     0.12016   0.75782   0.41580   0.00000  Uiso   1.00
C652   C     0.07606   0.79947   0.39696   0.00000  Uiso   1.00
C653   C     0.00488   0.84590   0.35756   0.00000  Uiso   1.00
C654   C     0.14729   0.74641   0.50095   0.00000  Uiso   1.00
C655   C     0.13175   0.68575   0.51840   0.00000  Uiso   1.00
C656   C     0.09294   0.69444   0.54648   0.00000  Uiso   1.00
C657   C     0.03156   0.68009   0.59361   0.00000  Uiso   1.00
C658   C     0.14771   0.87240   0.48842   0.00000  Uiso   1.00
C659   C     0.22801   0.86678   0.48573   0.00000  Uiso   1.00
C660   C     0.27598   0.92046   0.49238   0.00000  Uiso   1.00
C661   C     0.34726   0.90478   0.48844   0.00000  Uiso   1.00
C662   C     0.11855   0.85253   0.45544   0.00000  Uiso   1.00
C663   C     0.07447   0.89424   0.43664   0.00000  Uiso   1.00
C664   C     0.05358   0.86657   0.40720   0.00000  Uiso   1.00
C665   C     0.12486   0.81339   0.51118   0.00000  Uiso   1.00
C666   C     0.08606   0.82217   0.53923   0.00000  Uiso   1.00
C667   C     0.07047   0.76154   0.55672   0.00000  Uiso   1.00
H668   H     0.20647   0.69696   0.46163   0.00000  Uiso   1.00
H669   H     0.33901   0.73221   0.46363   0.00000  Uiso   1.00
H670   H     0.13752   0.70599   0.40790   0.00000  Uiso   1.00
H671   H     0.14912   0.63393   0.51048   0.00000  Uiso   1.00
H672   H     0.47606   0.80084   0.47035   0.00000  Uiso   1.00
H673   H     0.05119   0.74554   0.35284   0.00000  Uiso   1.00
H674   H     0.07564   0.59359   0.56915   0.00000  Uiso   1.00
H675   H     0.13024   0.92454   0.49638   0.00000  Uiso   1.00
H676   H     0.25860   0.97229   0.50030   0.00000  Uiso   1.00
H677   H     0.05711   0.94606   0.44456   0.00000  Uiso   1.00
H678   H     0.06871   0.87401   0.54714   0.00000  Uiso   1.00
H679   H     0.41080   0.99569   0.50011   0.00000  Uiso   1.00
H680   H     0.98593   0.94039   0.38259   0.00000  Uiso   1.00
H681   H     0.01038   0.78845   0.59891   0.00000  Uiso   1.00
O682   O     0.52924   0.92558   0.48716   0.00000  Uiso   1.00
O683   O     0.97182   0.85301   0.33300   0.00000  Uiso   1.00
O684   O     0.00391   0.65367   0.61679   0.00000  Uiso   1.00
N685   N     0.44309   0.84014   0.47682   0.00000  Uiso   1.00
N686   N     0.04587   0.78844   0.36695   0.00000  Uiso   1.00
N687   N     0.06871   0.64639   0.56918   0.00000  Uiso   1.00
N688   N     0.40797   0.94499   0.49284   0.00000  Uiso   1.00
N689   N     0.01075   0.89329   0.38297   0.00000  Uiso   1.00
N690   N     0.03360   0.75124   0.58520   0.00000  Uiso   1.00
C691   C     0.68901   0.24910   0.96959   0.00000  Uiso   1.00
C692   C     0.75045   0.29981   0.97550   0.00000  Uiso   1.00
C693   C     0.82167   0.28404   0.97155   0.00000  Uiso   1.00
C694   C     0.86973   0.33769   0.97819   0.00000  Uiso   1.00
C695   C     0.96854   0.40625   0.98580   0.00000  Uiso   1.00
C696   C     0.64098   0.28556   0.94522   0.00000  Uiso   1.00
C697   C     0.62016   0.25782   0.91580   0.00000  Uiso   1.00
C698   C     0.57606   0.29947   0.89696   0.00000  Uiso   1.00
C699   C     0.50488   0.34590   0.85756   0.00000  Uiso   1.00
C700   C     0.64729   0.24641   0.00095   0.00000  Uiso   1.00
C701   C     0.63175   0.18575   0.01840   0.00000  Uiso   1.00
C702   C     0.59294   0.19444   0.04648   0.00000  Uiso   1.00
C703   C     0.53156   0.18009   0.09361   0.00000  Uiso   1.00
C704   C     0.64771   0.37240   0.98842   0.00000  Uiso   1.00
C705   C     0.72801   0.36678   0.98573   0.00000  Uiso   1.00
C706   C     0.77598   0.42046   0.99238   0.00000  Uiso   1.00
C707   C     0.84726   0.40478   0.98844   0.00000  Uiso   1.00
C708   C     0.61855   0.35253   0.95544   0.00000  Uiso   1.00
C709   C     0.57447   0.39424   0.93664   0.00000  Uiso   1.00
C710   C     0.55358   0.36657   0.90720   0.00000  Uiso   1.00
C711   C     0.62486   0.31339   0.01118   0.00000  Uiso   1.00
C712   C     0.58606   0.32217   0.03923   0.00000  Uiso   1.00
C713   C     0.57047   0.26154   0.05672   0.00000  Uiso   1.00
H714   H     0.70647   0.19696   0.96163   0.00000  Uiso   1.00
H715   H     0.83901   0.23221   0.96363   0.00000  Uiso   1.00
H716   H     0.63752   0.20599   0.90790   0.00000  Uiso   1.00
H717   H     0.64912   0.13393   0.01048   0.00000  Uiso   1.00
H718   H     0.97606   0.30084   0.97035   0.00000  Uiso   1.00
H719   H     0.55119   0.24554   0.85284   0.00000  Uiso   1.00
H720   H     0.57564   0.09359   0.06915   0.00000  Uiso   1.00
H721   H     0.63024   0.42454   0.99638   0.00000  Uiso   1.00
H722   H     0.75860   0.47229   0.00030   0.00000  Uiso   1.00
H723   H     0.55711   0.44606   0.94456   0.00000  Uiso   1.00
H724   H     0.56871   0.37401   0.04714   0.00000  Uiso   1.00
H725   H     0.91080   0.49569   0.00011   0.00000  Uiso   1.00
H726   H     0.48593   0.44039   0.88259   0.00000  Uiso   1.00
H727   H     0.51038   0.28845   0.09891   0.00000  Uiso   1.00
O728   O     0.02924   0.42558   0.98716   0.00000  Uiso   1.00
O729   O     0.47182   0.35301   0.83300   0.00000  Uiso   1.00
O730   O     0.50391   0.15367   0.11679   0.00000  Uiso   1.00
N731   N     0.94309   0.34014   0.97682   0.00000  Uiso   1.00
N732   N     0.54587   0.28844   0.86695   0.00000  Uiso   1.00
N733   N     0.56871   0.14639   0.06918   0.00000  Uiso   1.00
N734   N     0.90797   0.44499   0.99284   0.00000  Uiso   1.00
N735   N     0.51075   0.39329   0.88297   0.00000  Uiso   1.00
N736   N     0.53360   0.25124   0.08520   0.00000  Uiso   1.00
