data_job_05323
_audit_creation_date              2018-12-19
_audit_creation_method            'Materials Studio'
_symmetry_space_group_name_H-M    'P1'
_symmetry_Int_Tables_number       1
_symmetry_cell_setting            triclinic
loop_
_symmetry_equiv_pos_as_xyz
  x,y,z
_cell_length_a                    24.4526
_cell_length_b                    24.4526
_cell_length_c                    14.7013
_cell_angle_alpha                 90.0000
_cell_angle_beta                  90.0000
_cell_angle_gamma                 90.0000
loop_
_atom_site_label
_atom_site_type_symbol
_atom_site_fract_x
_atom_site_fract_y
_atom_site_fract_z
_atom_site_U_iso_or_equiv
_atom_site_adp_type
_atom_site_occupancy
C1     C     0.96153   0.31388   0.81670   0.00000  Uiso   1.00
C2     C     0.95383   0.36102   0.88338   0.00000  Uiso   1.00
C3     C     0.92840   0.41045   0.86433   0.00000  Uiso   1.00
C4     C     0.92547   0.44831   0.93454   0.00000  Uiso   1.00
C5     C     0.91023   0.52323   0.02496   0.00000  Uiso   1.00
C6     C     0.02282   0.30245   0.81409   0.00000  Uiso   1.00
C7     C     0.05539   0.30261   0.73678   0.00000  Uiso   1.00
C8     C     0.11054   0.29115   0.74866   0.00000  Uiso   1.00
C9     C     0.20240   0.27509   0.73150   0.00000  Uiso   1.00
C10    C     0.93539   0.26401   0.86130   0.00000  Uiso   1.00
C11    C     0.89446   0.23186   0.82367   0.00000  Uiso   1.00
C12    C     0.87601   0.18803   0.87529   0.00000  Uiso   1.00
C13    C     0.83212   0.11230   0.93142   0.00000  Uiso   1.00
C14    C     0.00156   0.29322   0.97527   0.00000  Uiso   1.00
C15    C     0.97558   0.34980   0.96951   0.00000  Uiso   1.00
C16    C     0.97269   0.38760   0.03977   0.00000  Uiso   1.00
C17    C     0.94725   0.43707   0.02082   0.00000  Uiso   1.00
C18    C     0.04456   0.29123   0.90021   0.00000  Uiso   1.00
C19    C     0.09968   0.27976   0.91222   0.00000  Uiso   1.00
C20    C     0.13232   0.27991   0.83495   0.00000  Uiso   1.00
C21    C     0.95713   0.25279   0.94743   0.00000  Uiso   1.00
C22    C     0.93875   0.20901   0.99911   0.00000  Uiso   1.00
C23    C     0.89780   0.17679   0.96157   0.00000  Uiso   1.00
H24    H     0.94461   0.32261   0.74964   0.00000  Uiso   1.00
H25    H     0.91158   0.41912   0.79766   0.00000  Uiso   1.00
H26    H     0.03855   0.31129   0.67014   0.00000  Uiso   1.00
H27    H     0.87765   0.24055   0.75702   0.00000  Uiso   1.00
H28    H     0.88457   0.52118   0.88887   0.00000  Uiso   1.00
H29    H     0.15229   0.29379   0.61997   0.00000  Uiso   1.00
H30    H     0.81299   0.14462   0.80317   0.00000  Uiso   1.00
H31    H     0.01849   0.28449   0.04233   0.00000  Uiso   1.00
H32    H     0.98952   0.37890   0.10641   0.00000  Uiso   1.00
H33    H     0.11649   0.27108   0.97888   0.00000  Uiso   1.00
H34    H     0.95558   0.20034   0.06576   0.00000  Uiso   1.00
H35    H     0.94783   0.48854   0.13946   0.00000  Uiso   1.00
H36    H     0.21555   0.26115   0.87055   0.00000  Uiso   1.00
H37    H     0.87625   0.11198   0.05376   0.00000  Uiso   1.00
O38    O     0.89582   0.56766   0.05104   0.00000  Uiso   1.00
O39    O     0.24705   0.26933   0.69824   0.00000  Uiso   1.00
O40    O     0.80190   0.07363   0.93860   0.00000  Uiso   1.00
N41    N     0.90342   0.50053   0.93906   0.00000  Uiso   1.00
N42    N     0.15373   0.28795   0.68765   0.00000  Uiso   1.00
N43    N     0.83652   0.14848   0.85892   0.00000  Uiso   1.00
N44    N     0.93746   0.48297   0.07390   0.00000  Uiso   1.00
N45    N     0.18777   0.27039   0.82249   0.00000  Uiso   1.00
N46    N     0.87056   0.13092   0.99376   0.00000  Uiso   1.00
C47    C     0.46153   0.81388   0.31670   0.00000  Uiso   1.00
C48    C     0.45383   0.86102   0.38338   0.00000  Uiso   1.00
C49    C     0.42840   0.91045   0.36433   0.00000  Uiso   1.00
C50    C     0.42547   0.94831   0.43454   0.00000  Uiso   1.00
C51    C     0.41023   0.02323   0.52496   0.00000  Uiso   1.00
C52    C     0.52282   0.80245   0.31409   0.00000  Uiso   1.00
C53    C     0.55539   0.80261   0.23678   0.00000  Uiso   1.00
C54    C     0.61054   0.79115   0.24866   0.00000  Uiso   1.00
C55    C     0.70240   0.77509   0.23150   0.00000  Uiso   1.00
C56    C     0.43539   0.76401   0.36130   0.00000  Uiso   1.00
C57    C     0.39446   0.73186   0.32367   0.00000  Uiso   1.00
C58    C     0.37601   0.68803   0.37529   0.00000  Uiso   1.00
C59    C     0.33212   0.61230   0.43142   0.00000  Uiso   1.00
C60    C     0.50156   0.79322   0.47527   0.00000  Uiso   1.00
C61    C     0.47558   0.84980   0.46951   0.00000  Uiso   1.00
C62    C     0.47269   0.88760   0.53977   0.00000  Uiso   1.00
C63    C     0.44725   0.93707   0.52082   0.00000  Uiso   1.00
C64    C     0.54456   0.79123   0.40021   0.00000  Uiso   1.00
C65    C     0.59968   0.77976   0.41222   0.00000  Uiso   1.00
C66    C     0.63232   0.77991   0.33495   0.00000  Uiso   1.00
C67    C     0.45713   0.75279   0.44743   0.00000  Uiso   1.00
C68    C     0.43875   0.70901   0.49911   0.00000  Uiso   1.00
C69    C     0.39780   0.67679   0.46157   0.00000  Uiso   1.00
H70    H     0.44461   0.82261   0.24964   0.00000  Uiso   1.00
H71    H     0.41158   0.91912   0.29766   0.00000  Uiso   1.00
H72    H     0.53855   0.81129   0.17014   0.00000  Uiso   1.00
H73    H     0.37765   0.74055   0.25702   0.00000  Uiso   1.00
H74    H     0.38457   0.02118   0.38887   0.00000  Uiso   1.00
H75    H     0.65229   0.79379   0.11997   0.00000  Uiso   1.00
H76    H     0.31299   0.64462   0.30317   0.00000  Uiso   1.00
H77    H     0.51849   0.78449   0.54233   0.00000  Uiso   1.00
H78    H     0.48952   0.87890   0.60641   0.00000  Uiso   1.00
H79    H     0.61649   0.77108   0.47888   0.00000  Uiso   1.00
H80    H     0.45558   0.70034   0.56576   0.00000  Uiso   1.00
H81    H     0.44783   0.98854   0.63946   0.00000  Uiso   1.00
H82    H     0.71555   0.76115   0.37055   0.00000  Uiso   1.00
H83    H     0.37625   0.61198   0.55376   0.00000  Uiso   1.00
O84    O     0.39582   0.06766   0.55104   0.00000  Uiso   1.00
O85    O     0.74705   0.76933   0.19824   0.00000  Uiso   1.00
O86    O     0.30190   0.57363   0.43860   0.00000  Uiso   1.00
N87    N     0.40342   0.00053   0.43906   0.00000  Uiso   1.00
N88    N     0.65373   0.78795   0.18765   0.00000  Uiso   1.00
N89    N     0.33652   0.64848   0.35892   0.00000  Uiso   1.00
N90    N     0.43746   0.98297   0.57390   0.00000  Uiso   1.00
N91    N     0.68777   0.77039   0.32249   0.00000  Uiso   1.00
N92    N     0.37056   0.63092   0.49376   0.00000  Uiso   1.00
C93    C     0.53847   0.18612   0.31670   0.00000  Uiso   1.00
C94    C     0.54617   0.13898   0.38338   0.00000  Uiso   1.00
C95    C     0.57160   0.08955   0.36433   0.00000  Uiso   1.00
C96    C     0.57453   0.05169   0.43454   0.00000  Uiso   1.00
C97    C     0.58977   0.97677   0.52496   0.00000  Uiso   1.00
C98    C     0.47718   0.19755   0.31409   0.00000  Uiso   1.00
C99    C     0.44461   0.19739   0.23678   0.00000  Uiso   1.00
C100   C     0.38946   0.20885   0.24866   0.00000  Uiso   1.00
C101   C     0.29760   0.22491   0.23150   0.00000  Uiso   1.00
C102   C     0.56461   0.23599   0.36130   0.00000  Uiso   1.00
C103   C     0.60554   0.26814   0.32367   0.00000  Uiso   1.00
C104   C     0.62399   0.31197   0.37529   0.00000  Uiso   1.00
C105   C     0.66788   0.38770   0.43142   0.00000  Uiso   1.00
C106   C     0.49844   0.20678   0.47527   0.00000  Uiso   1.00
C107   C     0.52442   0.15020   0.46951   0.00000  Uiso   1.00
C108   C     0.52731   0.11240   0.53977   0.00000  Uiso   1.00
C109   C     0.55275   0.06293   0.52082   0.00000  Uiso   1.00
C110   C     0.45544   0.20877   0.40021   0.00000  Uiso   1.00
C111   C     0.40032   0.22024   0.41222   0.00000  Uiso   1.00
C112   C     0.36768   0.22009   0.33495   0.00000  Uiso   1.00
C113   C     0.54287   0.24721   0.44743   0.00000  Uiso   1.00
C114   C     0.56125   0.29099   0.49911   0.00000  Uiso   1.00
C115   C     0.60220   0.32321   0.46157   0.00000  Uiso   1.00
H116   H     0.55539   0.17739   0.24964   0.00000  Uiso   1.00
H117   H     0.58842   0.08088   0.29766   0.00000  Uiso   1.00
H118   H     0.46145   0.18871   0.17014   0.00000  Uiso   1.00
H119   H     0.62235   0.25945   0.25702   0.00000  Uiso   1.00
H120   H     0.61543   0.97882   0.38887   0.00000  Uiso   1.00
H121   H     0.34771   0.20621   0.11997   0.00000  Uiso   1.00
H122   H     0.68701   0.35538   0.30317   0.00000  Uiso   1.00
H123   H     0.48151   0.21551   0.54233   0.00000  Uiso   1.00
H124   H     0.51048   0.12110   0.60641   0.00000  Uiso   1.00
H125   H     0.38351   0.22892   0.47888   0.00000  Uiso   1.00
H126   H     0.54442   0.29966   0.56576   0.00000  Uiso   1.00
H127   H     0.55217   0.01146   0.63946   0.00000  Uiso   1.00
H128   H     0.28445   0.23885   0.37055   0.00000  Uiso   1.00
H129   H     0.62375   0.38802   0.55376   0.00000  Uiso   1.00
O130   O     0.60418   0.93234   0.55104   0.00000  Uiso   1.00
O131   O     0.25295   0.23067   0.19824   0.00000  Uiso   1.00
O132   O     0.69810   0.42637   0.43860   0.00000  Uiso   1.00
N133   N     0.59658   0.99947   0.43906   0.00000  Uiso   1.00
N134   N     0.34627   0.21205   0.18765   0.00000  Uiso   1.00
N135   N     0.66348   0.35152   0.35892   0.00000  Uiso   1.00
N136   N     0.56254   0.01703   0.57390   0.00000  Uiso   1.00
N137   N     0.31223   0.22961   0.32249   0.00000  Uiso   1.00
N138   N     0.62944   0.36908   0.49376   0.00000  Uiso   1.00
C139   C     0.03847   0.68612   0.81670   0.00000  Uiso   1.00
C140   C     0.04617   0.63898   0.88338   0.00000  Uiso   1.00
C141   C     0.07160   0.58955   0.86433   0.00000  Uiso   1.00
C142   C     0.07453   0.55169   0.93454   0.00000  Uiso   1.00
C143   C     0.08977   0.47677   0.02496   0.00000  Uiso   1.00
C144   C     0.97718   0.69755   0.81409   0.00000  Uiso   1.00
C145   C     0.94461   0.69739   0.73678   0.00000  Uiso   1.00
C146   C     0.88946   0.70885   0.74866   0.00000  Uiso   1.00
C147   C     0.79760   0.72491   0.73150   0.00000  Uiso   1.00
C148   C     0.06461   0.73599   0.86130   0.00000  Uiso   1.00
C149   C     0.10554   0.76814   0.82367   0.00000  Uiso   1.00
C150   C     0.12399   0.81197   0.87529   0.00000  Uiso   1.00
C151   C     0.16788   0.88770   0.93142   0.00000  Uiso   1.00
C152   C     0.99844   0.70678   0.97527   0.00000  Uiso   1.00
C153   C     0.02442   0.65020   0.96951   0.00000  Uiso   1.00
C154   C     0.02731   0.61240   0.03977   0.00000  Uiso   1.00
C155   C     0.05275   0.56293   0.02082   0.00000  Uiso   1.00
C156   C     0.95544   0.70877   0.90021   0.00000  Uiso   1.00
C157   C     0.90032   0.72024   0.91222   0.00000  Uiso   1.00
C158   C     0.86768   0.72009   0.83495   0.00000  Uiso   1.00
C159   C     0.04287   0.74721   0.94743   0.00000  Uiso   1.00
C160   C     0.06125   0.79099   0.99911   0.00000  Uiso   1.00
C161   C     0.10220   0.82321   0.96157   0.00000  Uiso   1.00
H162   H     0.05539   0.67739   0.74964   0.00000  Uiso   1.00
H163   H     0.08842   0.58088   0.79766   0.00000  Uiso   1.00
H164   H     0.96145   0.68871   0.67014   0.00000  Uiso   1.00
H165   H     0.12235   0.75945   0.75702   0.00000  Uiso   1.00
H166   H     0.11543   0.47882   0.88887   0.00000  Uiso   1.00
H167   H     0.84771   0.70621   0.61997   0.00000  Uiso   1.00
H168   H     0.18701   0.85538   0.80317   0.00000  Uiso   1.00
H169   H     0.98151   0.71551   0.04233   0.00000  Uiso   1.00
H170   H     0.01048   0.62110   0.10641   0.00000  Uiso   1.00
H171   H     0.88351   0.72892   0.97888   0.00000  Uiso   1.00
H172   H     0.04442   0.79966   0.06576   0.00000  Uiso   1.00
H173   H     0.05217   0.51146   0.13946   0.00000  Uiso   1.00
H174   H     0.78445   0.73885   0.87055   0.00000  Uiso   1.00
H175   H     0.12375   0.88802   0.05376   0.00000  Uiso   1.00
O176   O     0.10418   0.43234   0.05104   0.00000  Uiso   1.00
O177   O     0.75295   0.73067   0.69824   0.00000  Uiso   1.00
O178   O     0.19810   0.92637   0.93860   0.00000  Uiso   1.00
N179   N     0.09658   0.49947   0.93906   0.00000  Uiso   1.00
N180   N     0.84627   0.71205   0.68765   0.00000  Uiso   1.00
N181   N     0.16348   0.85152   0.85892   0.00000  Uiso   1.00
N182   N     0.06254   0.51703   0.07390   0.00000  Uiso   1.00
N183   N     0.81223   0.72961   0.82249   0.00000  Uiso   1.00
N184   N     0.12944   0.86908   0.99376   0.00000  Uiso   1.00
C185   C     0.68612   0.46153   0.06670   0.00000  Uiso   1.00
C186   C     0.63898   0.45383   0.13338   0.00000  Uiso   1.00
C187   C     0.58955   0.42840   0.11433   0.00000  Uiso   1.00
C188   C     0.55169   0.42547   0.18454   0.00000  Uiso   1.00
C189   C     0.47677   0.41023   0.27496   0.00000  Uiso   1.00
C190   C     0.69755   0.52282   0.06409   0.00000  Uiso   1.00
C191   C     0.69739   0.55539   0.98678   0.00000  Uiso   1.00
C192   C     0.70885   0.61054   0.99866   0.00000  Uiso   1.00
C193   C     0.72491   0.70240   0.98150   0.00000  Uiso   1.00
C194   C     0.73599   0.43539   0.11130   0.00000  Uiso   1.00
C195   C     0.76814   0.39446   0.07367   0.00000  Uiso   1.00
C196   C     0.81197   0.37601   0.12529   0.00000  Uiso   1.00
C197   C     0.88770   0.33212   0.18142   0.00000  Uiso   1.00
C198   C     0.70678   0.50156   0.22527   0.00000  Uiso   1.00
C199   C     0.65020   0.47558   0.21951   0.00000  Uiso   1.00
C200   C     0.61240   0.47269   0.28977   0.00000  Uiso   1.00
C201   C     0.56293   0.44725   0.27082   0.00000  Uiso   1.00
C202   C     0.70877   0.54456   0.15021   0.00000  Uiso   1.00
C203   C     0.72024   0.59968   0.16222   0.00000  Uiso   1.00
C204   C     0.72009   0.63232   0.08495   0.00000  Uiso   1.00
C205   C     0.74721   0.45713   0.19743   0.00000  Uiso   1.00
C206   C     0.79099   0.43875   0.24911   0.00000  Uiso   1.00
C207   C     0.82321   0.39780   0.21157   0.00000  Uiso   1.00
H208   H     0.67739   0.44461   0.99964   0.00000  Uiso   1.00
H209   H     0.58088   0.41158   0.04766   0.00000  Uiso   1.00
H210   H     0.68871   0.53855   0.92014   0.00000  Uiso   1.00
H211   H     0.75945   0.37765   0.00702   0.00000  Uiso   1.00
H212   H     0.47882   0.38457   0.13887   0.00000  Uiso   1.00
H213   H     0.70621   0.65229   0.86997   0.00000  Uiso   1.00
H214   H     0.85538   0.31299   0.05317   0.00000  Uiso   1.00
H215   H     0.71551   0.51849   0.29233   0.00000  Uiso   1.00
H216   H     0.62110   0.48952   0.35641   0.00000  Uiso   1.00
H217   H     0.72892   0.61649   0.22888   0.00000  Uiso   1.00
H218   H     0.79966   0.45558   0.31576   0.00000  Uiso   1.00
H219   H     0.51146   0.44783   0.38946   0.00000  Uiso   1.00
H220   H     0.73885   0.71555   0.12055   0.00000  Uiso   1.00
H221   H     0.88802   0.37625   0.30376   0.00000  Uiso   1.00
O222   O     0.43234   0.39582   0.30104   0.00000  Uiso   1.00
O223   O     0.73067   0.74705   0.94824   0.00000  Uiso   1.00
O224   O     0.92637   0.30190   0.18860   0.00000  Uiso   1.00
N225   N     0.49947   0.40342   0.18906   0.00000  Uiso   1.00
N226   N     0.71205   0.65373   0.93765   0.00000  Uiso   1.00
N227   N     0.85152   0.33652   0.10892   0.00000  Uiso   1.00
N228   N     0.51703   0.43746   0.32390   0.00000  Uiso   1.00
N229   N     0.72961   0.68777   0.07249   0.00000  Uiso   1.00
N230   N     0.86908   0.37056   0.24376   0.00000  Uiso   1.00
C231   C     0.18612   0.96153   0.56670   0.00000  Uiso   1.00
C232   C     0.13898   0.95383   0.63338   0.00000  Uiso   1.00
C233   C     0.08955   0.92840   0.61433   0.00000  Uiso   1.00
C234   C     0.05169   0.92547   0.68454   0.00000  Uiso   1.00
C235   C     0.97677   0.91023   0.77496   0.00000  Uiso   1.00
C236   C     0.19755   0.02282   0.56409   0.00000  Uiso   1.00
C237   C     0.19739   0.05539   0.48678   0.00000  Uiso   1.00
C238   C     0.20885   0.11054   0.49866   0.00000  Uiso   1.00
C239   C     0.22491   0.20240   0.48150   0.00000  Uiso   1.00
C240   C     0.23599   0.93539   0.61130   0.00000  Uiso   1.00
C241   C     0.26814   0.89446   0.57367   0.00000  Uiso   1.00
C242   C     0.31197   0.87601   0.62529   0.00000  Uiso   1.00
C243   C     0.38770   0.83212   0.68142   0.00000  Uiso   1.00
C244   C     0.20678   0.00156   0.72527   0.00000  Uiso   1.00
C245   C     0.15020   0.97558   0.71951   0.00000  Uiso   1.00
C246   C     0.11240   0.97269   0.78977   0.00000  Uiso   1.00
C247   C     0.06293   0.94725   0.77082   0.00000  Uiso   1.00
C248   C     0.20877   0.04456   0.65021   0.00000  Uiso   1.00
C249   C     0.22024   0.09968   0.66222   0.00000  Uiso   1.00
C250   C     0.22009   0.13232   0.58495   0.00000  Uiso   1.00
C251   C     0.24721   0.95713   0.69743   0.00000  Uiso   1.00
C252   C     0.29099   0.93875   0.74911   0.00000  Uiso   1.00
C253   C     0.32321   0.89780   0.71157   0.00000  Uiso   1.00
H254   H     0.17739   0.94461   0.49964   0.00000  Uiso   1.00
H255   H     0.08088   0.91158   0.54766   0.00000  Uiso   1.00
H256   H     0.18871   0.03855   0.42014   0.00000  Uiso   1.00
H257   H     0.25945   0.87765   0.50702   0.00000  Uiso   1.00
H258   H     0.97882   0.88457   0.63887   0.00000  Uiso   1.00
H259   H     0.20621   0.15229   0.36997   0.00000  Uiso   1.00
H260   H     0.35538   0.81299   0.55317   0.00000  Uiso   1.00
H261   H     0.21551   0.01849   0.79233   0.00000  Uiso   1.00
H262   H     0.12110   0.98952   0.85641   0.00000  Uiso   1.00
H263   H     0.22892   0.11649   0.72888   0.00000  Uiso   1.00
H264   H     0.29966   0.95558   0.81576   0.00000  Uiso   1.00
H265   H     0.01146   0.94783   0.88946   0.00000  Uiso   1.00
H266   H     0.23885   0.21555   0.62055   0.00000  Uiso   1.00
H267   H     0.38802   0.87625   0.80376   0.00000  Uiso   1.00
O268   O     0.93234   0.89582   0.80104   0.00000  Uiso   1.00
O269   O     0.23067   0.24705   0.44824   0.00000  Uiso   1.00
O270   O     0.42637   0.80190   0.68860   0.00000  Uiso   1.00
N271   N     0.99947   0.90342   0.68906   0.00000  Uiso   1.00
N272   N     0.21205   0.15373   0.43765   0.00000  Uiso   1.00
N273   N     0.35152   0.83652   0.60892   0.00000  Uiso   1.00
N274   N     0.01703   0.93746   0.82390   0.00000  Uiso   1.00
N275   N     0.22961   0.18777   0.57249   0.00000  Uiso   1.00
N276   N     0.36908   0.87056   0.74376   0.00000  Uiso   1.00
C277   C     0.81388   0.03847   0.56670   0.00000  Uiso   1.00
C278   C     0.86102   0.04617   0.63338   0.00000  Uiso   1.00
C279   C     0.91045   0.07160   0.61433   0.00000  Uiso   1.00
C280   C     0.94831   0.07453   0.68454   0.00000  Uiso   1.00
C281   C     0.02323   0.08977   0.77496   0.00000  Uiso   1.00
C282   C     0.80245   0.97718   0.56409   0.00000  Uiso   1.00
C283   C     0.80261   0.94461   0.48678   0.00000  Uiso   1.00
C284   C     0.79115   0.88946   0.49866   0.00000  Uiso   1.00
C285   C     0.77509   0.79760   0.48150   0.00000  Uiso   1.00
C286   C     0.76401   0.06461   0.61130   0.00000  Uiso   1.00
C287   C     0.73186   0.10554   0.57367   0.00000  Uiso   1.00
C288   C     0.68803   0.12399   0.62529   0.00000  Uiso   1.00
C289   C     0.61230   0.16788   0.68142   0.00000  Uiso   1.00
C290   C     0.79322   0.99844   0.72527   0.00000  Uiso   1.00
C291   C     0.84980   0.02442   0.71951   0.00000  Uiso   1.00
C292   C     0.88760   0.02731   0.78977   0.00000  Uiso   1.00
C293   C     0.93707   0.05275   0.77082   0.00000  Uiso   1.00
C294   C     0.79123   0.95544   0.65021   0.00000  Uiso   1.00
C295   C     0.77976   0.90032   0.66222   0.00000  Uiso   1.00
C296   C     0.77991   0.86768   0.58495   0.00000  Uiso   1.00
C297   C     0.75279   0.04287   0.69743   0.00000  Uiso   1.00
C298   C     0.70901   0.06125   0.74911   0.00000  Uiso   1.00
C299   C     0.67679   0.10220   0.71157   0.00000  Uiso   1.00
H300   H     0.82261   0.05539   0.49964   0.00000  Uiso   1.00
H301   H     0.91912   0.08842   0.54766   0.00000  Uiso   1.00
H302   H     0.81129   0.96145   0.42014   0.00000  Uiso   1.00
H303   H     0.74055   0.12235   0.50702   0.00000  Uiso   1.00
H304   H     0.02118   0.11543   0.63887   0.00000  Uiso   1.00
H305   H     0.79379   0.84771   0.36997   0.00000  Uiso   1.00
H306   H     0.64462   0.18701   0.55317   0.00000  Uiso   1.00
H307   H     0.78449   0.98151   0.79233   0.00000  Uiso   1.00
H308   H     0.87890   0.01048   0.85641   0.00000  Uiso   1.00
H309   H     0.77108   0.88351   0.72888   0.00000  Uiso   1.00
H310   H     0.70034   0.04442   0.81576   0.00000  Uiso   1.00
H311   H     0.98854   0.05217   0.88946   0.00000  Uiso   1.00
H312   H     0.76115   0.78445   0.62055   0.00000  Uiso   1.00
H313   H     0.61198   0.12375   0.80376   0.00000  Uiso   1.00
O314   O     0.06766   0.10418   0.80104   0.00000  Uiso   1.00
O315   O     0.76933   0.75295   0.44824   0.00000  Uiso   1.00
O316   O     0.57363   0.19810   0.68860   0.00000  Uiso   1.00
N317   N     0.00053   0.09658   0.68906   0.00000  Uiso   1.00
N318   N     0.78795   0.84627   0.43765   0.00000  Uiso   1.00
N319   N     0.64848   0.16348   0.60892   0.00000  Uiso   1.00
N320   N     0.98297   0.06254   0.82390   0.00000  Uiso   1.00
N321   N     0.77039   0.81223   0.57249   0.00000  Uiso   1.00
N322   N     0.63092   0.12944   0.74376   0.00000  Uiso   1.00
C323   C     0.31388   0.53847   0.06670   0.00000  Uiso   1.00
C324   C     0.36102   0.54617   0.13338   0.00000  Uiso   1.00
C325   C     0.41045   0.57160   0.11433   0.00000  Uiso   1.00
C326   C     0.44831   0.57453   0.18454   0.00000  Uiso   1.00
C327   C     0.52323   0.58977   0.27496   0.00000  Uiso   1.00
C328   C     0.30245   0.47718   0.06409   0.00000  Uiso   1.00
C329   C     0.30261   0.44461   0.98678   0.00000  Uiso   1.00
C330   C     0.29115   0.38946   0.99866   0.00000  Uiso   1.00
C331   C     0.27509   0.29760   0.98150   0.00000  Uiso   1.00
C332   C     0.26401   0.56461   0.11130   0.00000  Uiso   1.00
C333   C     0.23186   0.60554   0.07367   0.00000  Uiso   1.00
C334   C     0.18803   0.62399   0.12529   0.00000  Uiso   1.00
C335   C     0.11230   0.66788   0.18142   0.00000  Uiso   1.00
C336   C     0.29322   0.49844   0.22527   0.00000  Uiso   1.00
C337   C     0.34980   0.52442   0.21951   0.00000  Uiso   1.00
C338   C     0.38760   0.52731   0.28977   0.00000  Uiso   1.00
C339   C     0.43707   0.55275   0.27082   0.00000  Uiso   1.00
C340   C     0.29123   0.45544   0.15021   0.00000  Uiso   1.00
C341   C     0.27976   0.40032   0.16222   0.00000  Uiso   1.00
C342   C     0.27991   0.36768   0.08495   0.00000  Uiso   1.00
C343   C     0.25279   0.54287   0.19743   0.00000  Uiso   1.00
C344   C     0.20901   0.56125   0.24911   0.00000  Uiso   1.00
C345   C     0.17679   0.60220   0.21157   0.00000  Uiso   1.00
H346   H     0.32261   0.55539   0.99964   0.00000  Uiso   1.00
H347   H     0.41912   0.58842   0.04766   0.00000  Uiso   1.00
H348   H     0.31129   0.46145   0.92014   0.00000  Uiso   1.00
H349   H     0.24055   0.62235   0.00702   0.00000  Uiso   1.00
H350   H     0.52118   0.61543   0.13887   0.00000  Uiso   1.00
H351   H     0.29379   0.34771   0.86997   0.00000  Uiso   1.00
H352   H     0.14462   0.68701   0.05317   0.00000  Uiso   1.00
H353   H     0.28449   0.48151   0.29233   0.00000  Uiso   1.00
H354   H     0.37890   0.51048   0.35641   0.00000  Uiso   1.00
H355   H     0.27108   0.38351   0.22888   0.00000  Uiso   1.00
H356   H     0.20034   0.54442   0.31576   0.00000  Uiso   1.00
H357   H     0.48854   0.55217   0.38946   0.00000  Uiso   1.00
H358   H     0.26115   0.28445   0.12055   0.00000  Uiso   1.00
H359   H     0.11198   0.62375   0.30376   0.00000  Uiso   1.00
O360   O     0.56766   0.60418   0.30104   0.00000  Uiso   1.00
O361   O     0.26933   0.25295   0.94824   0.00000  Uiso   1.00
O362   O     0.07363   0.69810   0.18860   0.00000  Uiso   1.00
N363   N     0.50053   0.59658   0.18906   0.00000  Uiso   1.00
N364   N     0.28795   0.34627   0.93765   0.00000  Uiso   1.00
N365   N     0.14848   0.66348   0.10892   0.00000  Uiso   1.00
N366   N     0.48297   0.56254   0.32390   0.00000  Uiso   1.00
N367   N     0.27039   0.31223   0.07249   0.00000  Uiso   1.00
N368   N     0.13092   0.62944   0.24376   0.00000  Uiso   1.00
C369   C     0.03847   0.18612   0.43330   0.00000  Uiso   1.00
C370   C     0.04617   0.13898   0.36662   0.00000  Uiso   1.00
C371   C     0.07160   0.08955   0.38567   0.00000  Uiso   1.00
C372   C     0.07453   0.05169   0.31546   0.00000  Uiso   1.00
C373   C     0.08977   0.97677   0.22504   0.00000  Uiso   1.00
C374   C     0.97718   0.19755   0.43591   0.00000  Uiso   1.00
C375   C     0.94461   0.19739   0.51322   0.00000  Uiso   1.00
C376   C     0.88946   0.20885   0.50134   0.00000  Uiso   1.00
C377   C     0.79760   0.22491   0.51850   0.00000  Uiso   1.00
C378   C     0.06461   0.23599   0.38870   0.00000  Uiso   1.00
C379   C     0.10554   0.26814   0.42633   0.00000  Uiso   1.00
C380   C     0.12399   0.31197   0.37471   0.00000  Uiso   1.00
C381   C     0.16788   0.38770   0.31858   0.00000  Uiso   1.00
C382   C     0.99844   0.20678   0.27473   0.00000  Uiso   1.00
C383   C     0.02442   0.15020   0.28049   0.00000  Uiso   1.00
C384   C     0.02731   0.11240   0.21023   0.00000  Uiso   1.00
C385   C     0.05275   0.06293   0.22918   0.00000  Uiso   1.00
C386   C     0.95544   0.20877   0.34979   0.00000  Uiso   1.00
C387   C     0.90032   0.22024   0.33778   0.00000  Uiso   1.00
C388   C     0.86768   0.22009   0.41505   0.00000  Uiso   1.00
C389   C     0.04287   0.24721   0.30257   0.00000  Uiso   1.00
C390   C     0.06125   0.29099   0.25089   0.00000  Uiso   1.00
C391   C     0.10220   0.32321   0.28843   0.00000  Uiso   1.00
H392   H     0.05539   0.17739   0.50036   0.00000  Uiso   1.00
H393   H     0.08842   0.08088   0.45234   0.00000  Uiso   1.00
H394   H     0.96145   0.18871   0.57986   0.00000  Uiso   1.00
H395   H     0.12235   0.25945   0.49298   0.00000  Uiso   1.00
H396   H     0.11543   0.97882   0.36113   0.00000  Uiso   1.00
H397   H     0.84771   0.20621   0.63003   0.00000  Uiso   1.00
H398   H     0.18701   0.35538   0.44683   0.00000  Uiso   1.00
H399   H     0.98151   0.21551   0.20767   0.00000  Uiso   1.00
H400   H     0.01048   0.12110   0.14359   0.00000  Uiso   1.00
H401   H     0.88351   0.22892   0.27112   0.00000  Uiso   1.00
H402   H     0.04442   0.29966   0.18424   0.00000  Uiso   1.00
H403   H     0.05217   0.01146   0.11054   0.00000  Uiso   1.00
H404   H     0.78445   0.23885   0.37945   0.00000  Uiso   1.00
H405   H     0.12375   0.38802   0.19624   0.00000  Uiso   1.00
O406   O     0.10418   0.93234   0.19896   0.00000  Uiso   1.00
O407   O     0.75295   0.23067   0.55176   0.00000  Uiso   1.00
O408   O     0.19810   0.42637   0.31140   0.00000  Uiso   1.00
N409   N     0.09658   0.99947   0.31094   0.00000  Uiso   1.00
N410   N     0.84627   0.21205   0.56235   0.00000  Uiso   1.00
N411   N     0.16348   0.35152   0.39108   0.00000  Uiso   1.00
N412   N     0.06254   0.01703   0.17610   0.00000  Uiso   1.00
N413   N     0.81223   0.22961   0.42751   0.00000  Uiso   1.00
N414   N     0.12944   0.36908   0.25624   0.00000  Uiso   1.00
C415   C     0.53847   0.68612   0.93330   0.00000  Uiso   1.00
C416   C     0.54617   0.63898   0.86662   0.00000  Uiso   1.00
C417   C     0.57160   0.58955   0.88567   0.00000  Uiso   1.00
C418   C     0.57453   0.55169   0.81546   0.00000  Uiso   1.00
C419   C     0.58977   0.47677   0.72504   0.00000  Uiso   1.00
C420   C     0.47718   0.69755   0.93591   0.00000  Uiso   1.00
C421   C     0.44461   0.69739   0.01322   0.00000  Uiso   1.00
C422   C     0.38946   0.70885   0.00134   0.00000  Uiso   1.00
C423   C     0.29760   0.72491   0.01850   0.00000  Uiso   1.00
C424   C     0.56461   0.73599   0.88870   0.00000  Uiso   1.00
C425   C     0.60554   0.76814   0.92633   0.00000  Uiso   1.00
C426   C     0.62399   0.81197   0.87471   0.00000  Uiso   1.00
C427   C     0.66788   0.88770   0.81858   0.00000  Uiso   1.00
C428   C     0.49844   0.70678   0.77473   0.00000  Uiso   1.00
C429   C     0.52442   0.65020   0.78049   0.00000  Uiso   1.00
C430   C     0.52731   0.61240   0.71023   0.00000  Uiso   1.00
C431   C     0.55275   0.56293   0.72918   0.00000  Uiso   1.00
C432   C     0.45544   0.70877   0.84979   0.00000  Uiso   1.00
C433   C     0.40032   0.72024   0.83778   0.00000  Uiso   1.00
C434   C     0.36768   0.72009   0.91505   0.00000  Uiso   1.00
C435   C     0.54287   0.74721   0.80257   0.00000  Uiso   1.00
C436   C     0.56125   0.79099   0.75089   0.00000  Uiso   1.00
C437   C     0.60220   0.82321   0.78843   0.00000  Uiso   1.00
H438   H     0.55539   0.67739   0.00036   0.00000  Uiso   1.00
H439   H     0.58842   0.58088   0.95234   0.00000  Uiso   1.00
H440   H     0.46145   0.68871   0.07986   0.00000  Uiso   1.00
H441   H     0.62235   0.75945   0.99298   0.00000  Uiso   1.00
H442   H     0.61543   0.47882   0.86113   0.00000  Uiso   1.00
H443   H     0.34771   0.70621   0.13003   0.00000  Uiso   1.00
H444   H     0.68701   0.85538   0.94683   0.00000  Uiso   1.00
H445   H     0.48151   0.71551   0.70767   0.00000  Uiso   1.00
H446   H     0.51048   0.62110   0.64359   0.00000  Uiso   1.00
H447   H     0.38351   0.72892   0.77112   0.00000  Uiso   1.00
H448   H     0.54442   0.79966   0.68424   0.00000  Uiso   1.00
H449   H     0.55217   0.51146   0.61054   0.00000  Uiso   1.00
H450   H     0.28445   0.73885   0.87945   0.00000  Uiso   1.00
H451   H     0.62375   0.88802   0.69624   0.00000  Uiso   1.00
O452   O     0.60418   0.43234   0.69896   0.00000  Uiso   1.00
O453   O     0.25295   0.73067   0.05176   0.00000  Uiso   1.00
O454   O     0.69810   0.92637   0.81140   0.00000  Uiso   1.00
N455   N     0.59658   0.49947   0.81094   0.00000  Uiso   1.00
N456   N     0.34627   0.71205   0.06235   0.00000  Uiso   1.00
N457   N     0.66348   0.85152   0.89108   0.00000  Uiso   1.00
N458   N     0.56254   0.51703   0.67610   0.00000  Uiso   1.00
N459   N     0.31223   0.72961   0.92751   0.00000  Uiso   1.00
N460   N     0.62944   0.86908   0.75624   0.00000  Uiso   1.00
C461   C     0.46153   0.31388   0.93330   0.00000  Uiso   1.00
C462   C     0.45383   0.36102   0.86662   0.00000  Uiso   1.00
C463   C     0.42840   0.41045   0.88567   0.00000  Uiso   1.00
C464   C     0.42547   0.44831   0.81546   0.00000  Uiso   1.00
C465   C     0.41023   0.52323   0.72504   0.00000  Uiso   1.00
C466   C     0.52282   0.30245   0.93591   0.00000  Uiso   1.00
C467   C     0.55539   0.30261   0.01322   0.00000  Uiso   1.00
C468   C     0.61054   0.29115   0.00134   0.00000  Uiso   1.00
C469   C     0.70240   0.27509   0.01850   0.00000  Uiso   1.00
C470   C     0.43539   0.26401   0.88870   0.00000  Uiso   1.00
C471   C     0.39446   0.23186   0.92633   0.00000  Uiso   1.00
C472   C     0.37601   0.18803   0.87471   0.00000  Uiso   1.00
C473   C     0.33212   0.11230   0.81858   0.00000  Uiso   1.00
C474   C     0.50156   0.29322   0.77473   0.00000  Uiso   1.00
C475   C     0.47558   0.34980   0.78049   0.00000  Uiso   1.00
C476   C     0.47269   0.38760   0.71023   0.00000  Uiso   1.00
C477   C     0.44725   0.43707   0.72918   0.00000  Uiso   1.00
C478   C     0.54456   0.29123   0.84979   0.00000  Uiso   1.00
C479   C     0.59968   0.27976   0.83778   0.00000  Uiso   1.00
C480   C     0.63232   0.27991   0.91505   0.00000  Uiso   1.00
C481   C     0.45713   0.25279   0.80257   0.00000  Uiso   1.00
C482   C     0.43875   0.20901   0.75089   0.00000  Uiso   1.00
C483   C     0.39780   0.17679   0.78843   0.00000  Uiso   1.00
H484   H     0.44461   0.32261   0.00036   0.00000  Uiso   1.00
H485   H     0.41158   0.41912   0.95234   0.00000  Uiso   1.00
H486   H     0.53855   0.31129   0.07986   0.00000  Uiso   1.00
H487   H     0.37765   0.24055   0.99298   0.00000  Uiso   1.00
H488   H     0.38457   0.52118   0.86113   0.00000  Uiso   1.00
H489   H     0.65229   0.29379   0.13003   0.00000  Uiso   1.00
H490   H     0.31299   0.14462   0.94683   0.00000  Uiso   1.00
H491   H     0.51849   0.28449   0.70767   0.00000  Uiso   1.00
H492   H     0.48952   0.37890   0.64359   0.00000  Uiso   1.00
H493   H     0.61649   0.27108   0.77112   0.00000  Uiso   1.00
H494   H     0.45558   0.20034   0.68424   0.00000  Uiso   1.00
H495   H     0.44783   0.48854   0.61054   0.00000  Uiso   1.00
H496   H     0.71555   0.26115   0.87945   0.00000  Uiso   1.00
H497   H     0.37625   0.11198   0.69624   0.00000  Uiso   1.00
O498   O     0.39582   0.56766   0.69896   0.00000  Uiso   1.00
O499   O     0.74705   0.26933   0.05176   0.00000  Uiso   1.00
O500   O     0.30190   0.07363   0.81140   0.00000  Uiso   1.00
N501   N     0.40342   0.50053   0.81094   0.00000  Uiso   1.00
N502   N     0.65373   0.28795   0.06235   0.00000  Uiso   1.00
N503   N     0.33652   0.14848   0.89108   0.00000  Uiso   1.00
N504   N     0.43746   0.48297   0.67610   0.00000  Uiso   1.00
N505   N     0.68777   0.27039   0.92751   0.00000  Uiso   1.00
N506   N     0.37056   0.13092   0.75624   0.00000  Uiso   1.00
C507   C     0.96153   0.81388   0.43330   0.00000  Uiso   1.00
C508   C     0.95383   0.86102   0.36662   0.00000  Uiso   1.00
C509   C     0.92840   0.91045   0.38567   0.00000  Uiso   1.00
C510   C     0.92547   0.94831   0.31546   0.00000  Uiso   1.00
C511   C     0.91023   0.02323   0.22504   0.00000  Uiso   1.00
C512   C     0.02282   0.80245   0.43591   0.00000  Uiso   1.00
C513   C     0.05539   0.80261   0.51322   0.00000  Uiso   1.00
C514   C     0.11054   0.79115   0.50134   0.00000  Uiso   1.00
C515   C     0.20240   0.77509   0.51850   0.00000  Uiso   1.00
C516   C     0.93539   0.76401   0.38870   0.00000  Uiso   1.00
C517   C     0.89446   0.73186   0.42633   0.00000  Uiso   1.00
C518   C     0.87601   0.68803   0.37471   0.00000  Uiso   1.00
C519   C     0.83212   0.61230   0.31858   0.00000  Uiso   1.00
C520   C     0.00156   0.79322   0.27473   0.00000  Uiso   1.00
C521   C     0.97558   0.84980   0.28049   0.00000  Uiso   1.00
C522   C     0.97269   0.88760   0.21023   0.00000  Uiso   1.00
C523   C     0.94725   0.93707   0.22918   0.00000  Uiso   1.00
C524   C     0.04456   0.79123   0.34979   0.00000  Uiso   1.00
C525   C     0.09968   0.77976   0.33778   0.00000  Uiso   1.00
C526   C     0.13232   0.77991   0.41505   0.00000  Uiso   1.00
C527   C     0.95713   0.75279   0.30257   0.00000  Uiso   1.00
C528   C     0.93875   0.70901   0.25089   0.00000  Uiso   1.00
C529   C     0.89780   0.67679   0.28843   0.00000  Uiso   1.00
H530   H     0.94461   0.82261   0.50036   0.00000  Uiso   1.00
H531   H     0.91158   0.91912   0.45234   0.00000  Uiso   1.00
H532   H     0.03855   0.81129   0.57986   0.00000  Uiso   1.00
H533   H     0.87765   0.74055   0.49298   0.00000  Uiso   1.00
H534   H     0.88457   0.02118   0.36113   0.00000  Uiso   1.00
H535   H     0.15229   0.79379   0.63003   0.00000  Uiso   1.00
H536   H     0.81299   0.64462   0.44683   0.00000  Uiso   1.00
H537   H     0.01849   0.78449   0.20767   0.00000  Uiso   1.00
H538   H     0.98952   0.87890   0.14359   0.00000  Uiso   1.00
H539   H     0.11649   0.77108   0.27112   0.00000  Uiso   1.00
H540   H     0.95558   0.70034   0.18424   0.00000  Uiso   1.00
H541   H     0.94783   0.98854   0.11054   0.00000  Uiso   1.00
H542   H     0.21555   0.76115   0.37945   0.00000  Uiso   1.00
H543   H     0.87625   0.61198   0.19624   0.00000  Uiso   1.00
O544   O     0.89582   0.06766   0.19896   0.00000  Uiso   1.00
O545   O     0.24705   0.76933   0.55176   0.00000  Uiso   1.00
O546   O     0.80190   0.57363   0.31140   0.00000  Uiso   1.00
N547   N     0.90342   0.00053   0.31094   0.00000  Uiso   1.00
N548   N     0.15373   0.78795   0.56235   0.00000  Uiso   1.00
N549   N     0.83652   0.64848   0.39108   0.00000  Uiso   1.00
N550   N     0.93746   0.98297   0.17610   0.00000  Uiso   1.00
N551   N     0.18777   0.77039   0.42751   0.00000  Uiso   1.00
N552   N     0.87056   0.63092   0.25624   0.00000  Uiso   1.00
C553   C     0.31388   0.03847   0.18330   0.00000  Uiso   1.00
C554   C     0.36102   0.04617   0.11662   0.00000  Uiso   1.00
C555   C     0.41045   0.07160   0.13567   0.00000  Uiso   1.00
C556   C     0.44831   0.07453   0.06546   0.00000  Uiso   1.00
C557   C     0.52323   0.08977   0.97504   0.00000  Uiso   1.00
C558   C     0.30245   0.97718   0.18591   0.00000  Uiso   1.00
C559   C     0.30261   0.94461   0.26322   0.00000  Uiso   1.00
C560   C     0.29115   0.88946   0.25134   0.00000  Uiso   1.00
C561   C     0.27509   0.79760   0.26850   0.00000  Uiso   1.00
C562   C     0.26401   0.06461   0.13870   0.00000  Uiso   1.00
C563   C     0.23186   0.10554   0.17633   0.00000  Uiso   1.00
C564   C     0.18803   0.12399   0.12471   0.00000  Uiso   1.00
C565   C     0.11230   0.16788   0.06858   0.00000  Uiso   1.00
C566   C     0.29322   0.99844   0.02473   0.00000  Uiso   1.00
C567   C     0.34980   0.02442   0.03049   0.00000  Uiso   1.00
C568   C     0.38760   0.02731   0.96023   0.00000  Uiso   1.00
C569   C     0.43707   0.05275   0.97918   0.00000  Uiso   1.00
C570   C     0.29123   0.95544   0.09979   0.00000  Uiso   1.00
C571   C     0.27976   0.90032   0.08778   0.00000  Uiso   1.00
C572   C     0.27991   0.86768   0.16505   0.00000  Uiso   1.00
C573   C     0.25279   0.04287   0.05257   0.00000  Uiso   1.00
C574   C     0.20901   0.06125   0.00089   0.00000  Uiso   1.00
C575   C     0.17679   0.10220   0.03843   0.00000  Uiso   1.00
H576   H     0.32261   0.05539   0.25036   0.00000  Uiso   1.00
H577   H     0.41912   0.08842   0.20234   0.00000  Uiso   1.00
H578   H     0.31129   0.96145   0.32986   0.00000  Uiso   1.00
H579   H     0.24055   0.12235   0.24298   0.00000  Uiso   1.00
H580   H     0.52118   0.11543   0.11113   0.00000  Uiso   1.00
H581   H     0.29379   0.84771   0.38003   0.00000  Uiso   1.00
H582   H     0.14462   0.18701   0.19683   0.00000  Uiso   1.00
H583   H     0.28449   0.98151   0.95767   0.00000  Uiso   1.00
H584   H     0.37890   0.01048   0.89359   0.00000  Uiso   1.00
H585   H     0.27108   0.88351   0.02112   0.00000  Uiso   1.00
H586   H     0.20034   0.04442   0.93424   0.00000  Uiso   1.00
H587   H     0.48854   0.05217   0.86054   0.00000  Uiso   1.00
H588   H     0.26115   0.78445   0.12945   0.00000  Uiso   1.00
H589   H     0.11198   0.12375   0.94624   0.00000  Uiso   1.00
O590   O     0.56766   0.10418   0.94896   0.00000  Uiso   1.00
O591   O     0.26933   0.75295   0.30176   0.00000  Uiso   1.00
O592   O     0.07363   0.19810   0.06140   0.00000  Uiso   1.00
N593   N     0.50053   0.09658   0.06094   0.00000  Uiso   1.00
N594   N     0.28795   0.84627   0.31235   0.00000  Uiso   1.00
N595   N     0.14848   0.16348   0.14108   0.00000  Uiso   1.00
N596   N     0.48297   0.06254   0.92610   0.00000  Uiso   1.00
N597   N     0.27039   0.81223   0.17751   0.00000  Uiso   1.00
N598   N     0.13092   0.12944   0.00624   0.00000  Uiso   1.00
C599   C     0.81388   0.53847   0.68330   0.00000  Uiso   1.00
C600   C     0.86102   0.54617   0.61662   0.00000  Uiso   1.00
C601   C     0.91045   0.57160   0.63567   0.00000  Uiso   1.00
C602   C     0.94831   0.57453   0.56546   0.00000  Uiso   1.00
C603   C     0.02323   0.58977   0.47504   0.00000  Uiso   1.00
C604   C     0.80245   0.47718   0.68591   0.00000  Uiso   1.00
C605   C     0.80261   0.44461   0.76322   0.00000  Uiso   1.00
C606   C     0.79115   0.38946   0.75134   0.00000  Uiso   1.00
C607   C     0.77509   0.29760   0.76850   0.00000  Uiso   1.00
C608   C     0.76401   0.56461   0.63870   0.00000  Uiso   1.00
C609   C     0.73186   0.60554   0.67633   0.00000  Uiso   1.00
C610   C     0.68803   0.62399   0.62471   0.00000  Uiso   1.00
C611   C     0.61230   0.66788   0.56858   0.00000  Uiso   1.00
C612   C     0.79322   0.49844   0.52473   0.00000  Uiso   1.00
C613   C     0.84980   0.52442   0.53049   0.00000  Uiso   1.00
C614   C     0.88760   0.52731   0.46023   0.00000  Uiso   1.00
C615   C     0.93707   0.55275   0.47918   0.00000  Uiso   1.00
C616   C     0.79123   0.45544   0.59979   0.00000  Uiso   1.00
C617   C     0.77976   0.40032   0.58778   0.00000  Uiso   1.00
C618   C     0.77991   0.36768   0.66505   0.00000  Uiso   1.00
C619   C     0.75279   0.54287   0.55257   0.00000  Uiso   1.00
C620   C     0.70901   0.56125   0.50089   0.00000  Uiso   1.00
C621   C     0.67679   0.60220   0.53843   0.00000  Uiso   1.00
H622   H     0.82261   0.55539   0.75036   0.00000  Uiso   1.00
H623   H     0.91912   0.58842   0.70234   0.00000  Uiso   1.00
H624   H     0.81129   0.46145   0.82986   0.00000  Uiso   1.00
H625   H     0.74055   0.62235   0.74298   0.00000  Uiso   1.00
H626   H     0.02118   0.61543   0.61113   0.00000  Uiso   1.00
H627   H     0.79379   0.34771   0.88003   0.00000  Uiso   1.00
H628   H     0.64462   0.68701   0.69683   0.00000  Uiso   1.00
H629   H     0.78449   0.48151   0.45767   0.00000  Uiso   1.00
H630   H     0.87890   0.51048   0.39359   0.00000  Uiso   1.00
H631   H     0.77108   0.38351   0.52112   0.00000  Uiso   1.00
H632   H     0.70034   0.54442   0.43424   0.00000  Uiso   1.00
H633   H     0.98854   0.55217   0.36054   0.00000  Uiso   1.00
H634   H     0.76115   0.28445   0.62945   0.00000  Uiso   1.00
H635   H     0.61198   0.62375   0.44624   0.00000  Uiso   1.00
O636   O     0.06766   0.60418   0.44896   0.00000  Uiso   1.00
O637   O     0.76933   0.25295   0.80176   0.00000  Uiso   1.00
O638   O     0.57363   0.69810   0.56140   0.00000  Uiso   1.00
N639   N     0.00053   0.59658   0.56094   0.00000  Uiso   1.00
N640   N     0.78795   0.34627   0.81235   0.00000  Uiso   1.00
N641   N     0.64848   0.66348   0.64108   0.00000  Uiso   1.00
N642   N     0.98297   0.56254   0.42610   0.00000  Uiso   1.00
N643   N     0.77039   0.31223   0.67751   0.00000  Uiso   1.00
N644   N     0.63092   0.62944   0.50624   0.00000  Uiso   1.00
C645   C     0.18612   0.46153   0.68330   0.00000  Uiso   1.00
C646   C     0.13898   0.45383   0.61662   0.00000  Uiso   1.00
C647   C     0.08955   0.42840   0.63567   0.00000  Uiso   1.00
C648   C     0.05169   0.42547   0.56546   0.00000  Uiso   1.00
C649   C     0.97677   0.41023   0.47504   0.00000  Uiso   1.00
C650   C     0.19755   0.52282   0.68591   0.00000  Uiso   1.00
C651   C     0.19739   0.55539   0.76322   0.00000  Uiso   1.00
C652   C     0.20885   0.61054   0.75134   0.00000  Uiso   1.00
C653   C     0.22491   0.70240   0.76850   0.00000  Uiso   1.00
C654   C     0.23599   0.43539   0.63870   0.00000  Uiso   1.00
C655   C     0.26814   0.39446   0.67633   0.00000  Uiso   1.00
C656   C     0.31197   0.37601   0.62471   0.00000  Uiso   1.00
C657   C     0.38770   0.33212   0.56858   0.00000  Uiso   1.00
C658   C     0.20678   0.50156   0.52473   0.00000  Uiso   1.00
C659   C     0.15020   0.47558   0.53049   0.00000  Uiso   1.00
C660   C     0.11240   0.47269   0.46023   0.00000  Uiso   1.00
C661   C     0.06293   0.44725   0.47918   0.00000  Uiso   1.00
C662   C     0.20877   0.54456   0.59979   0.00000  Uiso   1.00
C663   C     0.22024   0.59968   0.58778   0.00000  Uiso   1.00
C664   C     0.22009   0.63232   0.66505   0.00000  Uiso   1.00
C665   C     0.24721   0.45713   0.55257   0.00000  Uiso   1.00
C666   C     0.29099   0.43875   0.50089   0.00000  Uiso   1.00
C667   C     0.32321   0.39780   0.53843   0.00000  Uiso   1.00
H668   H     0.17739   0.44461   0.75036   0.00000  Uiso   1.00
H669   H     0.08088   0.41158   0.70234   0.00000  Uiso   1.00
H670   H     0.18871   0.53855   0.82986   0.00000  Uiso   1.00
H671   H     0.25945   0.37765   0.74298   0.00000  Uiso   1.00
H672   H     0.97882   0.38457   0.61113   0.00000  Uiso   1.00
H673   H     0.20621   0.65229   0.88003   0.00000  Uiso   1.00
H674   H     0.35538   0.31299   0.69683   0.00000  Uiso   1.00
H675   H     0.21551   0.51849   0.45767   0.00000  Uiso   1.00
H676   H     0.12110   0.48952   0.39359   0.00000  Uiso   1.00
H677   H     0.22892   0.61649   0.52112   0.00000  Uiso   1.00
H678   H     0.29966   0.45558   0.43424   0.00000  Uiso   1.00
H679   H     0.01146   0.44783   0.36054   0.00000  Uiso   1.00
H680   H     0.23885   0.71555   0.62945   0.00000  Uiso   1.00
H681   H     0.38802   0.37625   0.44624   0.00000  Uiso   1.00
O682   O     0.93234   0.39582   0.44896   0.00000  Uiso   1.00
O683   O     0.23067   0.74705   0.80176   0.00000  Uiso   1.00
O684   O     0.42637   0.30190   0.56140   0.00000  Uiso   1.00
N685   N     0.99947   0.40342   0.56094   0.00000  Uiso   1.00
N686   N     0.21205   0.65373   0.81235   0.00000  Uiso   1.00
N687   N     0.35152   0.33652   0.64108   0.00000  Uiso   1.00
N688   N     0.01703   0.43746   0.42610   0.00000  Uiso   1.00
N689   N     0.22961   0.68777   0.67751   0.00000  Uiso   1.00
N690   N     0.36908   0.37056   0.50624   0.00000  Uiso   1.00
C691   C     0.68612   0.96153   0.18330   0.00000  Uiso   1.00
C692   C     0.63898   0.95383   0.11662   0.00000  Uiso   1.00
C693   C     0.58955   0.92840   0.13567   0.00000  Uiso   1.00
C694   C     0.55169   0.92547   0.06546   0.00000  Uiso   1.00
C695   C     0.47677   0.91023   0.97504   0.00000  Uiso   1.00
C696   C     0.69755   0.02282   0.18591   0.00000  Uiso   1.00
C697   C     0.69739   0.05539   0.26322   0.00000  Uiso   1.00
C698   C     0.70885   0.11054   0.25134   0.00000  Uiso   1.00
C699   C     0.72491   0.20240   0.26850   0.00000  Uiso   1.00
C700   C     0.73599   0.93539   0.13870   0.00000  Uiso   1.00
C701   C     0.76814   0.89446   0.17633   0.00000  Uiso   1.00
C702   C     0.81197   0.87601   0.12471   0.00000  Uiso   1.00
C703   C     0.88770   0.83212   0.06858   0.00000  Uiso   1.00
C704   C     0.70678   0.00156   0.02473   0.00000  Uiso   1.00
C705   C     0.65020   0.97558   0.03049   0.00000  Uiso   1.00
C706   C     0.61240   0.97269   0.96023   0.00000  Uiso   1.00
C707   C     0.56293   0.94725   0.97918   0.00000  Uiso   1.00
C708   C     0.70877   0.04456   0.09979   0.00000  Uiso   1.00
C709   C     0.72024   0.09968   0.08778   0.00000  Uiso   1.00
C710   C     0.72009   0.13232   0.16505   0.00000  Uiso   1.00
C711   C     0.74721   0.95713   0.05257   0.00000  Uiso   1.00
C712   C     0.79099   0.93875   0.00089   0.00000  Uiso   1.00
C713   C     0.82321   0.89780   0.03843   0.00000  Uiso   1.00
H714   H     0.67739   0.94461   0.25036   0.00000  Uiso   1.00
H715   H     0.58088   0.91158   0.20234   0.00000  Uiso   1.00
H716   H     0.68871   0.03855   0.32986   0.00000  Uiso   1.00
H717   H     0.75945   0.87765   0.24298   0.00000  Uiso   1.00
H718   H     0.47882   0.88457   0.11113   0.00000  Uiso   1.00
H719   H     0.70621   0.15229   0.38003   0.00000  Uiso   1.00
H720   H     0.85538   0.81299   0.19683   0.00000  Uiso   1.00
H721   H     0.71551   0.01849   0.95767   0.00000  Uiso   1.00
H722   H     0.62110   0.98952   0.89359   0.00000  Uiso   1.00
H723   H     0.72892   0.11649   0.02112   0.00000  Uiso   1.00
H724   H     0.79966   0.95558   0.93424   0.00000  Uiso   1.00
H725   H     0.51146   0.94783   0.86054   0.00000  Uiso   1.00
H726   H     0.73885   0.21555   0.12945   0.00000  Uiso   1.00
H727   H     0.88802   0.87625   0.94624   0.00000  Uiso   1.00
O728   O     0.43234   0.89582   0.94896   0.00000  Uiso   1.00
O729   O     0.73067   0.24705   0.30176   0.00000  Uiso   1.00
O730   O     0.92637   0.80190   0.06140   0.00000  Uiso   1.00
N731   N     0.49947   0.90342   0.06094   0.00000  Uiso   1.00
N732   N     0.71205   0.15373   0.31235   0.00000  Uiso   1.00
N733   N     0.85152   0.83652   0.14108   0.00000  Uiso   1.00
N734   N     0.51703   0.93746   0.92610   0.00000  Uiso   1.00
N735   N     0.72961   0.18777   0.17751   0.00000  Uiso   1.00
N736   N     0.86908   0.87056   0.00624   0.00000  Uiso   1.00
