data_job_03849
_audit_creation_date              2018-12-19
_audit_creation_method            'Materials Studio'
_symmetry_space_group_name_H-M    'P1'
_symmetry_Int_Tables_number       1
_symmetry_cell_setting            triclinic
loop_
_symmetry_equiv_pos_as_xyz
  x,y,z
_cell_length_a                    24.4024
_cell_length_b                    24.4024
_cell_length_c                    22.0265
_cell_angle_alpha                 90.0000
_cell_angle_beta                  90.0000
_cell_angle_gamma                 90.0000
loop_
_atom_site_label
_atom_site_type_symbol
_atom_site_fract_x
_atom_site_fract_y
_atom_site_fract_z
_atom_site_U_iso_or_equiv
_atom_site_adp_type
_atom_site_occupancy
C1     C     0.78429   0.87849   0.54932   0.00000  Uiso   1.00
C2     C     0.72730   0.88092   0.57760   0.00000  Uiso   1.00
C3     C     0.70301   0.83988   0.61193   0.00000  Uiso   1.00
C4     C     0.65059   0.85000   0.63374   0.00000  Uiso   1.00
C5     C     0.56621   0.84625   0.67946   0.00000  Uiso   1.00
C6     C     0.77626   0.88858   0.48158   0.00000  Uiso   1.00
C7     C     0.79315   0.85399   0.43519   0.00000  Uiso   1.00
C8     C     0.78197   0.87057   0.37618   0.00000  Uiso   1.00
C9     C     0.77364   0.87873   0.27283   0.00000  Uiso   1.00
C10    C     0.81511   0.92827   0.57349   0.00000  Uiso   1.00
C11    C     0.86467   0.92707   0.60436   0.00000  Uiso   1.00
C12    C     0.88620   0.97706   0.62271   0.00000  Uiso   1.00
C13    C     0.93820   0.04686   0.66207   0.00000  Uiso   1.00
C14    C     0.73440   0.96942   0.52700   0.00000  Uiso   1.00
C15    C     0.70020   0.93031   0.56547   0.00000  Uiso   1.00
C16    C     0.64781   0.94049   0.58723   0.00000  Uiso   1.00
C17    C     0.62345   0.89948   0.62160   0.00000  Uiso   1.00
C18    C     0.74917   0.93797   0.46945   0.00000  Uiso   1.00
C19    C     0.73796   0.95460   0.41049   0.00000  Uiso   1.00
C20    C     0.75482   0.92004   0.36403   0.00000  Uiso   1.00
C21    C     0.78801   0.97767   0.56136   0.00000  Uiso   1.00
C22    C     0.80947   0.02767   0.57967   0.00000  Uiso   1.00
C23    C     0.85906   0.02654   0.61057   0.00000  Uiso   1.00
H24    H     0.80538   0.84003   0.55876   0.00000  Uiso   1.00
H25    H     0.72399   0.80167   0.62130   0.00000  Uiso   1.00
H26    H     0.81413   0.81578   0.44459   0.00000  Uiso   1.00
H27    H     0.88563   0.88884   0.61374   0.00000  Uiso   1.00
H28    H     0.62179   0.78090   0.68528   0.00000  Uiso   1.00
H29    H     0.81186   0.81066   0.31267   0.00000  Uiso   1.00
H30    H     0.96265   0.96473   0.66935   0.00000  Uiso   1.00
H31    H     0.71330   0.00787   0.51756   0.00000  Uiso   1.00
H32    H     0.62685   0.97871   0.57784   0.00000  Uiso   1.00
H33    H     0.71699   0.99282   0.40113   0.00000  Uiso   1.00
H34    H     0.78849   0.06589   0.57027   0.00000  Uiso   1.00
H35    H     0.54295   0.92460   0.65000   0.00000  Uiso   1.00
H36    H     0.73303   0.95436   0.27739   0.00000  Uiso   1.00
H37    H     0.88381   0.10843   0.63407   0.00000  Uiso   1.00
O38    O     0.52715   0.83054   0.70802   0.00000  Uiso   1.00
O39    O     0.77653   0.86958   0.21918   0.00000  Uiso   1.00
O40    O     0.97436   0.07172   0.68713   0.00000  Uiso   1.00
N41    N     0.61510   0.81873   0.66871   0.00000  Uiso   1.00
N42    N     0.79280   0.84655   0.32035   0.00000  Uiso   1.00
N43    N     0.93378   0.99059   0.65379   0.00000  Uiso   1.00
N44    N     0.57268   0.89605   0.64973   0.00000  Uiso   1.00
N45    N     0.75038   0.92387   0.30137   0.00000  Uiso   1.00
N46    N     0.89136   0.06791   0.63481   0.00000  Uiso   1.00
C47    C     0.21571   0.12151   0.54932   0.00000  Uiso   1.00
C48    C     0.27270   0.11908   0.57760   0.00000  Uiso   1.00
C49    C     0.29699   0.16012   0.61193   0.00000  Uiso   1.00
C50    C     0.34941   0.15000   0.63374   0.00000  Uiso   1.00
C51    C     0.43379   0.15375   0.67946   0.00000  Uiso   1.00
C52    C     0.22374   0.11142   0.48158   0.00000  Uiso   1.00
C53    C     0.20685   0.14601   0.43519   0.00000  Uiso   1.00
C54    C     0.21803   0.12943   0.37618   0.00000  Uiso   1.00
C55    C     0.22636   0.12127   0.27283   0.00000  Uiso   1.00
C56    C     0.18489   0.07173   0.57349   0.00000  Uiso   1.00
C57    C     0.13533   0.07293   0.60436   0.00000  Uiso   1.00
C58    C     0.11380   0.02294   0.62271   0.00000  Uiso   1.00
C59    C     0.06180   0.95314   0.66207   0.00000  Uiso   1.00
C60    C     0.26560   0.03058   0.52700   0.00000  Uiso   1.00
C61    C     0.29980   0.06969   0.56547   0.00000  Uiso   1.00
C62    C     0.35219   0.05951   0.58723   0.00000  Uiso   1.00
C63    C     0.37655   0.10052   0.62160   0.00000  Uiso   1.00
C64    C     0.25083   0.06203   0.46945   0.00000  Uiso   1.00
C65    C     0.26204   0.04540   0.41049   0.00000  Uiso   1.00
C66    C     0.24518   0.07996   0.36403   0.00000  Uiso   1.00
C67    C     0.21199   0.02233   0.56136   0.00000  Uiso   1.00
C68    C     0.19053   0.97233   0.57967   0.00000  Uiso   1.00
C69    C     0.14094   0.97346   0.61057   0.00000  Uiso   1.00
H70    H     0.19462   0.15997   0.55876   0.00000  Uiso   1.00
H71    H     0.27601   0.19833   0.62130   0.00000  Uiso   1.00
H72    H     0.18587   0.18422   0.44459   0.00000  Uiso   1.00
H73    H     0.11437   0.11116   0.61374   0.00000  Uiso   1.00
H74    H     0.37821   0.21910   0.68528   0.00000  Uiso   1.00
H75    H     0.18814   0.18934   0.31267   0.00000  Uiso   1.00
H76    H     0.03735   0.03527   0.66935   0.00000  Uiso   1.00
H77    H     0.28670   0.99213   0.51756   0.00000  Uiso   1.00
H78    H     0.37315   0.02129   0.57784   0.00000  Uiso   1.00
H79    H     0.28301   0.00718   0.40113   0.00000  Uiso   1.00
H80    H     0.21151   0.93411   0.57027   0.00000  Uiso   1.00
H81    H     0.45705   0.07540   0.65000   0.00000  Uiso   1.00
H82    H     0.26697   0.04564   0.27739   0.00000  Uiso   1.00
H83    H     0.11619   0.89157   0.63407   0.00000  Uiso   1.00
O84    O     0.47285   0.16946   0.70802   0.00000  Uiso   1.00
O85    O     0.22347   0.13042   0.21918   0.00000  Uiso   1.00
O86    O     0.02564   0.92828   0.68713   0.00000  Uiso   1.00
N87    N     0.38490   0.18127   0.66871   0.00000  Uiso   1.00
N88    N     0.20720   0.15345   0.32035   0.00000  Uiso   1.00
N89    N     0.06622   0.00941   0.65379   0.00000  Uiso   1.00
N90    N     0.42732   0.10395   0.64973   0.00000  Uiso   1.00
N91    N     0.24962   0.07613   0.30137   0.00000  Uiso   1.00
N92    N     0.10864   0.93209   0.63481   0.00000  Uiso   1.00
C93    C     0.62151   0.28429   0.54932   0.00000  Uiso   1.00
C94    C     0.61908   0.22730   0.57760   0.00000  Uiso   1.00
C95    C     0.66012   0.20301   0.61193   0.00000  Uiso   1.00
C96    C     0.65000   0.15059   0.63374   0.00000  Uiso   1.00
C97    C     0.65375   0.06621   0.67946   0.00000  Uiso   1.00
C98    C     0.61142   0.27626   0.48158   0.00000  Uiso   1.00
C99    C     0.64601   0.29315   0.43519   0.00000  Uiso   1.00
C100   C     0.62943   0.28197   0.37618   0.00000  Uiso   1.00
C101   C     0.62127   0.27364   0.27283   0.00000  Uiso   1.00
C102   C     0.57173   0.31511   0.57349   0.00000  Uiso   1.00
C103   C     0.57293   0.36467   0.60436   0.00000  Uiso   1.00
C104   C     0.52294   0.38620   0.62271   0.00000  Uiso   1.00
C105   C     0.45314   0.43820   0.66207   0.00000  Uiso   1.00
C106   C     0.53058   0.23440   0.52700   0.00000  Uiso   1.00
C107   C     0.56969   0.20020   0.56547   0.00000  Uiso   1.00
C108   C     0.55951   0.14781   0.58723   0.00000  Uiso   1.00
C109   C     0.60052   0.12345   0.62160   0.00000  Uiso   1.00
C110   C     0.56203   0.24917   0.46945   0.00000  Uiso   1.00
C111   C     0.54540   0.23796   0.41049   0.00000  Uiso   1.00
C112   C     0.57996   0.25482   0.36403   0.00000  Uiso   1.00
C113   C     0.52233   0.28801   0.56136   0.00000  Uiso   1.00
C114   C     0.47233   0.30947   0.57967   0.00000  Uiso   1.00
C115   C     0.47346   0.35906   0.61057   0.00000  Uiso   1.00
H116   H     0.65997   0.30538   0.55876   0.00000  Uiso   1.00
H117   H     0.69833   0.22399   0.62130   0.00000  Uiso   1.00
H118   H     0.68422   0.31413   0.44459   0.00000  Uiso   1.00
H119   H     0.61116   0.38563   0.61374   0.00000  Uiso   1.00
H120   H     0.71910   0.12179   0.68528   0.00000  Uiso   1.00
H121   H     0.68934   0.31186   0.31267   0.00000  Uiso   1.00
H122   H     0.53527   0.46265   0.66935   0.00000  Uiso   1.00
H123   H     0.49213   0.21330   0.51756   0.00000  Uiso   1.00
H124   H     0.52129   0.12685   0.57784   0.00000  Uiso   1.00
H125   H     0.50718   0.21699   0.40113   0.00000  Uiso   1.00
H126   H     0.43411   0.28849   0.57027   0.00000  Uiso   1.00
H127   H     0.57540   0.04295   0.65000   0.00000  Uiso   1.00
H128   H     0.54564   0.23303   0.27739   0.00000  Uiso   1.00
H129   H     0.39157   0.38381   0.63407   0.00000  Uiso   1.00
O130   O     0.66946   0.02715   0.70802   0.00000  Uiso   1.00
O131   O     0.63042   0.27653   0.21918   0.00000  Uiso   1.00
O132   O     0.42828   0.47436   0.68713   0.00000  Uiso   1.00
N133   N     0.68127   0.11510   0.66871   0.00000  Uiso   1.00
N134   N     0.65345   0.29280   0.32035   0.00000  Uiso   1.00
N135   N     0.50941   0.43378   0.65379   0.00000  Uiso   1.00
N136   N     0.60395   0.07268   0.64973   0.00000  Uiso   1.00
N137   N     0.57613   0.25038   0.30137   0.00000  Uiso   1.00
N138   N     0.43209   0.39136   0.63481   0.00000  Uiso   1.00
C139   C     0.37849   0.71571   0.54932   0.00000  Uiso   1.00
C140   C     0.38092   0.77270   0.57760   0.00000  Uiso   1.00
C141   C     0.33988   0.79699   0.61193   0.00000  Uiso   1.00
C142   C     0.35000   0.84941   0.63374   0.00000  Uiso   1.00
C143   C     0.34625   0.93379   0.67946   0.00000  Uiso   1.00
C144   C     0.38858   0.72374   0.48158   0.00000  Uiso   1.00
C145   C     0.35399   0.70685   0.43519   0.00000  Uiso   1.00
C146   C     0.37057   0.71803   0.37618   0.00000  Uiso   1.00
C147   C     0.37873   0.72636   0.27283   0.00000  Uiso   1.00
C148   C     0.42827   0.68489   0.57349   0.00000  Uiso   1.00
C149   C     0.42707   0.63533   0.60436   0.00000  Uiso   1.00
C150   C     0.47706   0.61380   0.62271   0.00000  Uiso   1.00
C151   C     0.54686   0.56180   0.66207   0.00000  Uiso   1.00
C152   C     0.46942   0.76560   0.52700   0.00000  Uiso   1.00
C153   C     0.43031   0.79980   0.56547   0.00000  Uiso   1.00
C154   C     0.44049   0.85219   0.58723   0.00000  Uiso   1.00
C155   C     0.39948   0.87655   0.62160   0.00000  Uiso   1.00
C156   C     0.43797   0.75083   0.46945   0.00000  Uiso   1.00
C157   C     0.45460   0.76204   0.41049   0.00000  Uiso   1.00
C158   C     0.42004   0.74518   0.36403   0.00000  Uiso   1.00
C159   C     0.47767   0.71199   0.56136   0.00000  Uiso   1.00
C160   C     0.52767   0.69053   0.57967   0.00000  Uiso   1.00
C161   C     0.52654   0.64094   0.61057   0.00000  Uiso   1.00
H162   H     0.34003   0.69462   0.55876   0.00000  Uiso   1.00
H163   H     0.30167   0.77601   0.62130   0.00000  Uiso   1.00
H164   H     0.31578   0.68587   0.44459   0.00000  Uiso   1.00
H165   H     0.38884   0.61437   0.61374   0.00000  Uiso   1.00
H166   H     0.28090   0.87821   0.68528   0.00000  Uiso   1.00
H167   H     0.31066   0.68814   0.31267   0.00000  Uiso   1.00
H168   H     0.46473   0.53735   0.66935   0.00000  Uiso   1.00
H169   H     0.50787   0.78670   0.51756   0.00000  Uiso   1.00
H170   H     0.47871   0.87315   0.57784   0.00000  Uiso   1.00
H171   H     0.49282   0.78301   0.40113   0.00000  Uiso   1.00
H172   H     0.56589   0.71151   0.57027   0.00000  Uiso   1.00
H173   H     0.42460   0.95705   0.65000   0.00000  Uiso   1.00
H174   H     0.45436   0.76697   0.27739   0.00000  Uiso   1.00
H175   H     0.60843   0.61619   0.63407   0.00000  Uiso   1.00
O176   O     0.33054   0.97285   0.70802   0.00000  Uiso   1.00
O177   O     0.36958   0.72347   0.21918   0.00000  Uiso   1.00
O178   O     0.57172   0.52564   0.68713   0.00000  Uiso   1.00
N179   N     0.31873   0.88490   0.66871   0.00000  Uiso   1.00
N180   N     0.34655   0.70720   0.32035   0.00000  Uiso   1.00
N181   N     0.49059   0.56622   0.65379   0.00000  Uiso   1.00
N182   N     0.39605   0.92732   0.64973   0.00000  Uiso   1.00
N183   N     0.42387   0.74962   0.30137   0.00000  Uiso   1.00
N184   N     0.56791   0.60864   0.63481   0.00000  Uiso   1.00
C185   C     0.71571   0.37849   0.95068   0.00000  Uiso   1.00
C186   C     0.77270   0.38092   0.92240   0.00000  Uiso   1.00
C187   C     0.79699   0.33988   0.88807   0.00000  Uiso   1.00
C188   C     0.84941   0.35000   0.86626   0.00000  Uiso   1.00
C189   C     0.93379   0.34625   0.82054   0.00000  Uiso   1.00
C190   C     0.72374   0.38858   0.01842   0.00000  Uiso   1.00
C191   C     0.70685   0.35399   0.06481   0.00000  Uiso   1.00
C192   C     0.71803   0.37057   0.12382   0.00000  Uiso   1.00
C193   C     0.72636   0.37873   0.22717   0.00000  Uiso   1.00
C194   C     0.68489   0.42827   0.92651   0.00000  Uiso   1.00
C195   C     0.63533   0.42707   0.89564   0.00000  Uiso   1.00
C196   C     0.61380   0.47706   0.87729   0.00000  Uiso   1.00
C197   C     0.56180   0.54686   0.83793   0.00000  Uiso   1.00
C198   C     0.76560   0.46942   0.97300   0.00000  Uiso   1.00
C199   C     0.79980   0.43031   0.93453   0.00000  Uiso   1.00
C200   C     0.85219   0.44049   0.91277   0.00000  Uiso   1.00
C201   C     0.87655   0.39948   0.87840   0.00000  Uiso   1.00
C202   C     0.75083   0.43797   0.03055   0.00000  Uiso   1.00
C203   C     0.76204   0.45460   0.08951   0.00000  Uiso   1.00
C204   C     0.74518   0.42004   0.13597   0.00000  Uiso   1.00
C205   C     0.71199   0.47767   0.93864   0.00000  Uiso   1.00
C206   C     0.69053   0.52767   0.92033   0.00000  Uiso   1.00
C207   C     0.64094   0.52654   0.88943   0.00000  Uiso   1.00
H208   H     0.69462   0.34003   0.94124   0.00000  Uiso   1.00
H209   H     0.77601   0.30167   0.87870   0.00000  Uiso   1.00
H210   H     0.68587   0.31578   0.05541   0.00000  Uiso   1.00
H211   H     0.61437   0.38884   0.88626   0.00000  Uiso   1.00
H212   H     0.87821   0.28090   0.81472   0.00000  Uiso   1.00
H213   H     0.68814   0.31066   0.18733   0.00000  Uiso   1.00
H214   H     0.53735   0.46473   0.83065   0.00000  Uiso   1.00
H215   H     0.78670   0.50787   0.98244   0.00000  Uiso   1.00
H216   H     0.87315   0.47871   0.92216   0.00000  Uiso   1.00
H217   H     0.78301   0.49282   0.09887   0.00000  Uiso   1.00
H218   H     0.71151   0.56589   0.92973   0.00000  Uiso   1.00
H219   H     0.95705   0.42460   0.85000   0.00000  Uiso   1.00
H220   H     0.76697   0.45436   0.22261   0.00000  Uiso   1.00
H221   H     0.61619   0.60843   0.86593   0.00000  Uiso   1.00
O222   O     0.97285   0.33054   0.79198   0.00000  Uiso   1.00
O223   O     0.72347   0.36958   0.28082   0.00000  Uiso   1.00
O224   O     0.52564   0.57172   0.81287   0.00000  Uiso   1.00
N225   N     0.88490   0.31873   0.83129   0.00000  Uiso   1.00
N226   N     0.70720   0.34655   0.17965   0.00000  Uiso   1.00
N227   N     0.56622   0.49059   0.84621   0.00000  Uiso   1.00
N228   N     0.92732   0.39605   0.85027   0.00000  Uiso   1.00
N229   N     0.74962   0.42387   0.19863   0.00000  Uiso   1.00
N230   N     0.60864   0.56791   0.86519   0.00000  Uiso   1.00
C231   C     0.28429   0.62151   0.95068   0.00000  Uiso   1.00
C232   C     0.22730   0.61908   0.92240   0.00000  Uiso   1.00
C233   C     0.20301   0.66012   0.88807   0.00000  Uiso   1.00
C234   C     0.15059   0.65000   0.86626   0.00000  Uiso   1.00
C235   C     0.06621   0.65375   0.82054   0.00000  Uiso   1.00
C236   C     0.27626   0.61142   0.01842   0.00000  Uiso   1.00
C237   C     0.29315   0.64601   0.06481   0.00000  Uiso   1.00
C238   C     0.28197   0.62943   0.12382   0.00000  Uiso   1.00
C239   C     0.27364   0.62127   0.22717   0.00000  Uiso   1.00
C240   C     0.31511   0.57173   0.92651   0.00000  Uiso   1.00
C241   C     0.36467   0.57293   0.89564   0.00000  Uiso   1.00
C242   C     0.38620   0.52294   0.87729   0.00000  Uiso   1.00
C243   C     0.43820   0.45314   0.83793   0.00000  Uiso   1.00
C244   C     0.23440   0.53058   0.97300   0.00000  Uiso   1.00
C245   C     0.20020   0.56969   0.93453   0.00000  Uiso   1.00
C246   C     0.14781   0.55951   0.91277   0.00000  Uiso   1.00
C247   C     0.12345   0.60052   0.87840   0.00000  Uiso   1.00
C248   C     0.24917   0.56203   0.03055   0.00000  Uiso   1.00
C249   C     0.23796   0.54540   0.08951   0.00000  Uiso   1.00
C250   C     0.25482   0.57996   0.13597   0.00000  Uiso   1.00
C251   C     0.28801   0.52233   0.93864   0.00000  Uiso   1.00
C252   C     0.30947   0.47233   0.92033   0.00000  Uiso   1.00
C253   C     0.35906   0.47346   0.88943   0.00000  Uiso   1.00
H254   H     0.30538   0.65997   0.94124   0.00000  Uiso   1.00
H255   H     0.22399   0.69833   0.87870   0.00000  Uiso   1.00
H256   H     0.31413   0.68422   0.05541   0.00000  Uiso   1.00
H257   H     0.38563   0.61116   0.88626   0.00000  Uiso   1.00
H258   H     0.12179   0.71910   0.81472   0.00000  Uiso   1.00
H259   H     0.31186   0.68934   0.18733   0.00000  Uiso   1.00
H260   H     0.46265   0.53527   0.83065   0.00000  Uiso   1.00
H261   H     0.21330   0.49213   0.98244   0.00000  Uiso   1.00
H262   H     0.12685   0.52129   0.92216   0.00000  Uiso   1.00
H263   H     0.21699   0.50718   0.09887   0.00000  Uiso   1.00
H264   H     0.28849   0.43411   0.92973   0.00000  Uiso   1.00
H265   H     0.04295   0.57540   0.85000   0.00000  Uiso   1.00
H266   H     0.23303   0.54564   0.22261   0.00000  Uiso   1.00
H267   H     0.38381   0.39157   0.86593   0.00000  Uiso   1.00
O268   O     0.02715   0.66946   0.79198   0.00000  Uiso   1.00
O269   O     0.27653   0.63042   0.28082   0.00000  Uiso   1.00
O270   O     0.47436   0.42828   0.81287   0.00000  Uiso   1.00
N271   N     0.11510   0.68127   0.83129   0.00000  Uiso   1.00
N272   N     0.29280   0.65345   0.17965   0.00000  Uiso   1.00
N273   N     0.43378   0.50941   0.84621   0.00000  Uiso   1.00
N274   N     0.07268   0.60395   0.85027   0.00000  Uiso   1.00
N275   N     0.25038   0.57613   0.19863   0.00000  Uiso   1.00
N276   N     0.39136   0.43209   0.86519   0.00000  Uiso   1.00
C277   C     0.87849   0.78429   0.95068   0.00000  Uiso   1.00
C278   C     0.88092   0.72730   0.92240   0.00000  Uiso   1.00
C279   C     0.83988   0.70301   0.88807   0.00000  Uiso   1.00
C280   C     0.85000   0.65059   0.86626   0.00000  Uiso   1.00
C281   C     0.84625   0.56621   0.82054   0.00000  Uiso   1.00
C282   C     0.88858   0.77626   0.01842   0.00000  Uiso   1.00
C283   C     0.85399   0.79315   0.06481   0.00000  Uiso   1.00
C284   C     0.87057   0.78197   0.12382   0.00000  Uiso   1.00
C285   C     0.87873   0.77364   0.22717   0.00000  Uiso   1.00
C286   C     0.92827   0.81511   0.92651   0.00000  Uiso   1.00
C287   C     0.92707   0.86467   0.89564   0.00000  Uiso   1.00
C288   C     0.97706   0.88620   0.87729   0.00000  Uiso   1.00
C289   C     0.04686   0.93820   0.83793   0.00000  Uiso   1.00
C290   C     0.96942   0.73440   0.97300   0.00000  Uiso   1.00
C291   C     0.93031   0.70020   0.93453   0.00000  Uiso   1.00
C292   C     0.94049   0.64781   0.91277   0.00000  Uiso   1.00
C293   C     0.89948   0.62345   0.87840   0.00000  Uiso   1.00
C294   C     0.93797   0.74917   0.03055   0.00000  Uiso   1.00
C295   C     0.95460   0.73796   0.08951   0.00000  Uiso   1.00
C296   C     0.92004   0.75482   0.13597   0.00000  Uiso   1.00
C297   C     0.97767   0.78801   0.93864   0.00000  Uiso   1.00
C298   C     0.02767   0.80947   0.92033   0.00000  Uiso   1.00
C299   C     0.02654   0.85906   0.88943   0.00000  Uiso   1.00
H300   H     0.84003   0.80538   0.94124   0.00000  Uiso   1.00
H301   H     0.80167   0.72399   0.87870   0.00000  Uiso   1.00
H302   H     0.81578   0.81413   0.05541   0.00000  Uiso   1.00
H303   H     0.88884   0.88563   0.88626   0.00000  Uiso   1.00
H304   H     0.78090   0.62179   0.81472   0.00000  Uiso   1.00
H305   H     0.81066   0.81186   0.18733   0.00000  Uiso   1.00
H306   H     0.96473   0.96265   0.83065   0.00000  Uiso   1.00
H307   H     0.00787   0.71330   0.98244   0.00000  Uiso   1.00
H308   H     0.97871   0.62685   0.92216   0.00000  Uiso   1.00
H309   H     0.99282   0.71699   0.09887   0.00000  Uiso   1.00
H310   H     0.06589   0.78849   0.92973   0.00000  Uiso   1.00
H311   H     0.92460   0.54295   0.85000   0.00000  Uiso   1.00
H312   H     0.95436   0.73303   0.22261   0.00000  Uiso   1.00
H313   H     0.10843   0.88381   0.86593   0.00000  Uiso   1.00
O314   O     0.83054   0.52715   0.79198   0.00000  Uiso   1.00
O315   O     0.86958   0.77653   0.28082   0.00000  Uiso   1.00
O316   O     0.07172   0.97436   0.81287   0.00000  Uiso   1.00
N317   N     0.81873   0.61510   0.83129   0.00000  Uiso   1.00
N318   N     0.84655   0.79280   0.17965   0.00000  Uiso   1.00
N319   N     0.99059   0.93378   0.84621   0.00000  Uiso   1.00
N320   N     0.89605   0.57268   0.85027   0.00000  Uiso   1.00
N321   N     0.92387   0.75038   0.19863   0.00000  Uiso   1.00
N322   N     0.06791   0.89136   0.86519   0.00000  Uiso   1.00
C323   C     0.12151   0.21571   0.95068   0.00000  Uiso   1.00
C324   C     0.11908   0.27270   0.92240   0.00000  Uiso   1.00
C325   C     0.16012   0.29699   0.88807   0.00000  Uiso   1.00
C326   C     0.15000   0.34941   0.86626   0.00000  Uiso   1.00
C327   C     0.15375   0.43379   0.82054   0.00000  Uiso   1.00
C328   C     0.11142   0.22374   0.01842   0.00000  Uiso   1.00
C329   C     0.14601   0.20685   0.06481   0.00000  Uiso   1.00
C330   C     0.12943   0.21803   0.12382   0.00000  Uiso   1.00
C331   C     0.12127   0.22636   0.22717   0.00000  Uiso   1.00
C332   C     0.07173   0.18489   0.92651   0.00000  Uiso   1.00
C333   C     0.07293   0.13533   0.89564   0.00000  Uiso   1.00
C334   C     0.02294   0.11380   0.87729   0.00000  Uiso   1.00
C335   C     0.95314   0.06180   0.83793   0.00000  Uiso   1.00
C336   C     0.03058   0.26560   0.97300   0.00000  Uiso   1.00
C337   C     0.06969   0.29980   0.93453   0.00000  Uiso   1.00
C338   C     0.05951   0.35219   0.91277   0.00000  Uiso   1.00
C339   C     0.10052   0.37655   0.87840   0.00000  Uiso   1.00
C340   C     0.06203   0.25083   0.03055   0.00000  Uiso   1.00
C341   C     0.04540   0.26204   0.08951   0.00000  Uiso   1.00
C342   C     0.07996   0.24518   0.13597   0.00000  Uiso   1.00
C343   C     0.02233   0.21199   0.93864   0.00000  Uiso   1.00
C344   C     0.97233   0.19053   0.92033   0.00000  Uiso   1.00
C345   C     0.97346   0.14094   0.88943   0.00000  Uiso   1.00
H346   H     0.15997   0.19462   0.94124   0.00000  Uiso   1.00
H347   H     0.19833   0.27601   0.87870   0.00000  Uiso   1.00
H348   H     0.18422   0.18587   0.05541   0.00000  Uiso   1.00
H349   H     0.11116   0.11437   0.88626   0.00000  Uiso   1.00
H350   H     0.21910   0.37821   0.81472   0.00000  Uiso   1.00
H351   H     0.18934   0.18814   0.18733   0.00000  Uiso   1.00
H352   H     0.03527   0.03735   0.83065   0.00000  Uiso   1.00
H353   H     0.99213   0.28670   0.98244   0.00000  Uiso   1.00
H354   H     0.02129   0.37315   0.92216   0.00000  Uiso   1.00
H355   H     0.00718   0.28301   0.09887   0.00000  Uiso   1.00
H356   H     0.93411   0.21151   0.92973   0.00000  Uiso   1.00
H357   H     0.07540   0.45705   0.85000   0.00000  Uiso   1.00
H358   H     0.04564   0.26697   0.22261   0.00000  Uiso   1.00
H359   H     0.89157   0.11619   0.86593   0.00000  Uiso   1.00
O360   O     0.16946   0.47285   0.79198   0.00000  Uiso   1.00
O361   O     0.13042   0.22347   0.28082   0.00000  Uiso   1.00
O362   O     0.92828   0.02564   0.81287   0.00000  Uiso   1.00
N363   N     0.18127   0.38490   0.83129   0.00000  Uiso   1.00
N364   N     0.15345   0.20720   0.17965   0.00000  Uiso   1.00
N365   N     0.00941   0.06622   0.84621   0.00000  Uiso   1.00
N366   N     0.10395   0.42732   0.85027   0.00000  Uiso   1.00
N367   N     0.07613   0.24962   0.19863   0.00000  Uiso   1.00
N368   N     0.93209   0.10864   0.86519   0.00000  Uiso   1.00
C369   C     0.71571   0.62151   0.45068   0.00000  Uiso   1.00
C370   C     0.77270   0.61908   0.42240   0.00000  Uiso   1.00
C371   C     0.79699   0.66012   0.38807   0.00000  Uiso   1.00
C372   C     0.84941   0.65000   0.36626   0.00000  Uiso   1.00
C373   C     0.93379   0.65375   0.32054   0.00000  Uiso   1.00
C374   C     0.72374   0.61142   0.51842   0.00000  Uiso   1.00
C375   C     0.70685   0.64601   0.56481   0.00000  Uiso   1.00
C376   C     0.71803   0.62943   0.62382   0.00000  Uiso   1.00
C377   C     0.72636   0.62127   0.72717   0.00000  Uiso   1.00
C378   C     0.68489   0.57173   0.42651   0.00000  Uiso   1.00
C379   C     0.63533   0.57293   0.39564   0.00000  Uiso   1.00
C380   C     0.61380   0.52294   0.37729   0.00000  Uiso   1.00
C381   C     0.56180   0.45314   0.33793   0.00000  Uiso   1.00
C382   C     0.76560   0.53058   0.47300   0.00000  Uiso   1.00
C383   C     0.79980   0.56969   0.43453   0.00000  Uiso   1.00
C384   C     0.85219   0.55951   0.41277   0.00000  Uiso   1.00
C385   C     0.87655   0.60052   0.37840   0.00000  Uiso   1.00
C386   C     0.75083   0.56203   0.53055   0.00000  Uiso   1.00
C387   C     0.76204   0.54540   0.58951   0.00000  Uiso   1.00
C388   C     0.74518   0.57996   0.63597   0.00000  Uiso   1.00
C389   C     0.71199   0.52233   0.43864   0.00000  Uiso   1.00
C390   C     0.69053   0.47233   0.42033   0.00000  Uiso   1.00
C391   C     0.64094   0.47346   0.38943   0.00000  Uiso   1.00
H392   H     0.69462   0.65997   0.44124   0.00000  Uiso   1.00
H393   H     0.77601   0.69833   0.37870   0.00000  Uiso   1.00
H394   H     0.68587   0.68422   0.55541   0.00000  Uiso   1.00
H395   H     0.61437   0.61116   0.38626   0.00000  Uiso   1.00
H396   H     0.87821   0.71910   0.31472   0.00000  Uiso   1.00
H397   H     0.68814   0.68934   0.68733   0.00000  Uiso   1.00
H398   H     0.53735   0.53527   0.33065   0.00000  Uiso   1.00
H399   H     0.78670   0.49213   0.48244   0.00000  Uiso   1.00
H400   H     0.87315   0.52129   0.42216   0.00000  Uiso   1.00
H401   H     0.78301   0.50718   0.59887   0.00000  Uiso   1.00
H402   H     0.71151   0.43411   0.42973   0.00000  Uiso   1.00
H403   H     0.95705   0.57540   0.35000   0.00000  Uiso   1.00
H404   H     0.76697   0.54564   0.72261   0.00000  Uiso   1.00
H405   H     0.61619   0.39157   0.36593   0.00000  Uiso   1.00
O406   O     0.97285   0.66946   0.29198   0.00000  Uiso   1.00
O407   O     0.72347   0.63042   0.78082   0.00000  Uiso   1.00
O408   O     0.52564   0.42828   0.31287   0.00000  Uiso   1.00
N409   N     0.88490   0.68127   0.33129   0.00000  Uiso   1.00
N410   N     0.70720   0.65345   0.67965   0.00000  Uiso   1.00
N411   N     0.56622   0.50941   0.34621   0.00000  Uiso   1.00
N412   N     0.92732   0.60395   0.35027   0.00000  Uiso   1.00
N413   N     0.74962   0.57613   0.69863   0.00000  Uiso   1.00
N414   N     0.60864   0.43209   0.36519   0.00000  Uiso   1.00
C415   C     0.28429   0.37849   0.45068   0.00000  Uiso   1.00
C416   C     0.22730   0.38092   0.42240   0.00000  Uiso   1.00
C417   C     0.20301   0.33988   0.38807   0.00000  Uiso   1.00
C418   C     0.15059   0.35000   0.36626   0.00000  Uiso   1.00
C419   C     0.06621   0.34625   0.32054   0.00000  Uiso   1.00
C420   C     0.27626   0.38858   0.51842   0.00000  Uiso   1.00
C421   C     0.29315   0.35399   0.56481   0.00000  Uiso   1.00
C422   C     0.28197   0.37057   0.62382   0.00000  Uiso   1.00
C423   C     0.27364   0.37873   0.72717   0.00000  Uiso   1.00
C424   C     0.31511   0.42827   0.42651   0.00000  Uiso   1.00
C425   C     0.36467   0.42707   0.39564   0.00000  Uiso   1.00
C426   C     0.38620   0.47706   0.37729   0.00000  Uiso   1.00
C427   C     0.43820   0.54686   0.33793   0.00000  Uiso   1.00
C428   C     0.23440   0.46942   0.47300   0.00000  Uiso   1.00
C429   C     0.20020   0.43031   0.43453   0.00000  Uiso   1.00
C430   C     0.14781   0.44049   0.41277   0.00000  Uiso   1.00
C431   C     0.12345   0.39948   0.37840   0.00000  Uiso   1.00
C432   C     0.24917   0.43797   0.53055   0.00000  Uiso   1.00
C433   C     0.23796   0.45460   0.58951   0.00000  Uiso   1.00
C434   C     0.25482   0.42004   0.63597   0.00000  Uiso   1.00
C435   C     0.28801   0.47767   0.43864   0.00000  Uiso   1.00
C436   C     0.30947   0.52767   0.42033   0.00000  Uiso   1.00
C437   C     0.35906   0.52654   0.38943   0.00000  Uiso   1.00
H438   H     0.30538   0.34003   0.44124   0.00000  Uiso   1.00
H439   H     0.22399   0.30167   0.37870   0.00000  Uiso   1.00
H440   H     0.31413   0.31578   0.55541   0.00000  Uiso   1.00
H441   H     0.38563   0.38884   0.38626   0.00000  Uiso   1.00
H442   H     0.12179   0.28090   0.31472   0.00000  Uiso   1.00
H443   H     0.31186   0.31066   0.68733   0.00000  Uiso   1.00
H444   H     0.46265   0.46473   0.33065   0.00000  Uiso   1.00
H445   H     0.21330   0.50787   0.48244   0.00000  Uiso   1.00
H446   H     0.12685   0.47871   0.42216   0.00000  Uiso   1.00
H447   H     0.21699   0.49282   0.59887   0.00000  Uiso   1.00
H448   H     0.28849   0.56589   0.42973   0.00000  Uiso   1.00
H449   H     0.04295   0.42460   0.35000   0.00000  Uiso   1.00
H450   H     0.23303   0.45436   0.72261   0.00000  Uiso   1.00
H451   H     0.38381   0.60843   0.36593   0.00000  Uiso   1.00
O452   O     0.02715   0.33054   0.29198   0.00000  Uiso   1.00
O453   O     0.27653   0.36958   0.78082   0.00000  Uiso   1.00
O454   O     0.47436   0.57172   0.31287   0.00000  Uiso   1.00
N455   N     0.11510   0.31873   0.33129   0.00000  Uiso   1.00
N456   N     0.29280   0.34655   0.67965   0.00000  Uiso   1.00
N457   N     0.43378   0.49059   0.34621   0.00000  Uiso   1.00
N458   N     0.07268   0.39605   0.35027   0.00000  Uiso   1.00
N459   N     0.25038   0.42387   0.69863   0.00000  Uiso   1.00
N460   N     0.39136   0.56791   0.36519   0.00000  Uiso   1.00
C461   C     0.87849   0.21571   0.45068   0.00000  Uiso   1.00
C462   C     0.88092   0.27270   0.42240   0.00000  Uiso   1.00
C463   C     0.83988   0.29699   0.38807   0.00000  Uiso   1.00
C464   C     0.85000   0.34941   0.36626   0.00000  Uiso   1.00
C465   C     0.84625   0.43379   0.32054   0.00000  Uiso   1.00
C466   C     0.88858   0.22374   0.51842   0.00000  Uiso   1.00
C467   C     0.85399   0.20685   0.56481   0.00000  Uiso   1.00
C468   C     0.87057   0.21803   0.62382   0.00000  Uiso   1.00
C469   C     0.87873   0.22636   0.72717   0.00000  Uiso   1.00
C470   C     0.92827   0.18489   0.42651   0.00000  Uiso   1.00
C471   C     0.92707   0.13533   0.39564   0.00000  Uiso   1.00
C472   C     0.97706   0.11380   0.37729   0.00000  Uiso   1.00
C473   C     0.04686   0.06180   0.33793   0.00000  Uiso   1.00
C474   C     0.96942   0.26560   0.47300   0.00000  Uiso   1.00
C475   C     0.93031   0.29980   0.43453   0.00000  Uiso   1.00
C476   C     0.94049   0.35219   0.41277   0.00000  Uiso   1.00
C477   C     0.89948   0.37655   0.37840   0.00000  Uiso   1.00
C478   C     0.93797   0.25083   0.53055   0.00000  Uiso   1.00
C479   C     0.95460   0.26204   0.58951   0.00000  Uiso   1.00
C480   C     0.92004   0.24518   0.63597   0.00000  Uiso   1.00
C481   C     0.97767   0.21199   0.43864   0.00000  Uiso   1.00
C482   C     0.02767   0.19053   0.42033   0.00000  Uiso   1.00
C483   C     0.02654   0.14094   0.38943   0.00000  Uiso   1.00
H484   H     0.84003   0.19462   0.44124   0.00000  Uiso   1.00
H485   H     0.80167   0.27601   0.37870   0.00000  Uiso   1.00
H486   H     0.81578   0.18587   0.55541   0.00000  Uiso   1.00
H487   H     0.88884   0.11437   0.38626   0.00000  Uiso   1.00
H488   H     0.78090   0.37821   0.31472   0.00000  Uiso   1.00
H489   H     0.81066   0.18814   0.68733   0.00000  Uiso   1.00
H490   H     0.96473   0.03735   0.33065   0.00000  Uiso   1.00
H491   H     0.00787   0.28670   0.48244   0.00000  Uiso   1.00
H492   H     0.97871   0.37315   0.42216   0.00000  Uiso   1.00
H493   H     0.99282   0.28301   0.59887   0.00000  Uiso   1.00
H494   H     0.06589   0.21151   0.42973   0.00000  Uiso   1.00
H495   H     0.92460   0.45705   0.35000   0.00000  Uiso   1.00
H496   H     0.95436   0.26697   0.72261   0.00000  Uiso   1.00
H497   H     0.10843   0.11619   0.36593   0.00000  Uiso   1.00
O498   O     0.83054   0.47285   0.29198   0.00000  Uiso   1.00
O499   O     0.86958   0.22347   0.78082   0.00000  Uiso   1.00
O500   O     0.07172   0.02564   0.31287   0.00000  Uiso   1.00
N501   N     0.81873   0.38490   0.33129   0.00000  Uiso   1.00
N502   N     0.84655   0.20720   0.67965   0.00000  Uiso   1.00
N503   N     0.99059   0.06622   0.34621   0.00000  Uiso   1.00
N504   N     0.89605   0.42732   0.35027   0.00000  Uiso   1.00
N505   N     0.92387   0.24962   0.69863   0.00000  Uiso   1.00
N506   N     0.06791   0.10864   0.36519   0.00000  Uiso   1.00
C507   C     0.12151   0.78429   0.45068   0.00000  Uiso   1.00
C508   C     0.11908   0.72730   0.42240   0.00000  Uiso   1.00
C509   C     0.16012   0.70301   0.38807   0.00000  Uiso   1.00
C510   C     0.15000   0.65059   0.36626   0.00000  Uiso   1.00
C511   C     0.15375   0.56621   0.32054   0.00000  Uiso   1.00
C512   C     0.11142   0.77626   0.51842   0.00000  Uiso   1.00
C513   C     0.14601   0.79315   0.56481   0.00000  Uiso   1.00
C514   C     0.12943   0.78197   0.62382   0.00000  Uiso   1.00
C515   C     0.12127   0.77364   0.72717   0.00000  Uiso   1.00
C516   C     0.07173   0.81511   0.42651   0.00000  Uiso   1.00
C517   C     0.07293   0.86467   0.39564   0.00000  Uiso   1.00
C518   C     0.02294   0.88620   0.37729   0.00000  Uiso   1.00
C519   C     0.95314   0.93820   0.33793   0.00000  Uiso   1.00
C520   C     0.03058   0.73440   0.47300   0.00000  Uiso   1.00
C521   C     0.06969   0.70020   0.43453   0.00000  Uiso   1.00
C522   C     0.05951   0.64781   0.41277   0.00000  Uiso   1.00
C523   C     0.10052   0.62345   0.37840   0.00000  Uiso   1.00
C524   C     0.06203   0.74917   0.53055   0.00000  Uiso   1.00
C525   C     0.04540   0.73796   0.58951   0.00000  Uiso   1.00
C526   C     0.07996   0.75482   0.63597   0.00000  Uiso   1.00
C527   C     0.02233   0.78801   0.43864   0.00000  Uiso   1.00
C528   C     0.97233   0.80947   0.42033   0.00000  Uiso   1.00
C529   C     0.97346   0.85906   0.38943   0.00000  Uiso   1.00
H530   H     0.15997   0.80538   0.44124   0.00000  Uiso   1.00
H531   H     0.19833   0.72399   0.37870   0.00000  Uiso   1.00
H532   H     0.18422   0.81413   0.55541   0.00000  Uiso   1.00
H533   H     0.11116   0.88563   0.38626   0.00000  Uiso   1.00
H534   H     0.21910   0.62179   0.31472   0.00000  Uiso   1.00
H535   H     0.18934   0.81186   0.68733   0.00000  Uiso   1.00
H536   H     0.03527   0.96265   0.33065   0.00000  Uiso   1.00
H537   H     0.99213   0.71330   0.48244   0.00000  Uiso   1.00
H538   H     0.02129   0.62685   0.42216   0.00000  Uiso   1.00
H539   H     0.00718   0.71699   0.59887   0.00000  Uiso   1.00
H540   H     0.93411   0.78849   0.42973   0.00000  Uiso   1.00
H541   H     0.07540   0.54295   0.35000   0.00000  Uiso   1.00
H542   H     0.04564   0.73303   0.72261   0.00000  Uiso   1.00
H543   H     0.89157   0.88381   0.36593   0.00000  Uiso   1.00
O544   O     0.16946   0.52715   0.29198   0.00000  Uiso   1.00
O545   O     0.13042   0.77653   0.78082   0.00000  Uiso   1.00
O546   O     0.92828   0.97436   0.31287   0.00000  Uiso   1.00
N547   N     0.18127   0.61510   0.33129   0.00000  Uiso   1.00
N548   N     0.15345   0.79280   0.67965   0.00000  Uiso   1.00
N549   N     0.00941   0.93378   0.34621   0.00000  Uiso   1.00
N550   N     0.10395   0.57268   0.35027   0.00000  Uiso   1.00
N551   N     0.07613   0.75038   0.69863   0.00000  Uiso   1.00
N552   N     0.93209   0.89136   0.36519   0.00000  Uiso   1.00
C553   C     0.78429   0.12151   0.04932   0.00000  Uiso   1.00
C554   C     0.72730   0.11908   0.07760   0.00000  Uiso   1.00
C555   C     0.70301   0.16012   0.11193   0.00000  Uiso   1.00
C556   C     0.65059   0.15000   0.13374   0.00000  Uiso   1.00
C557   C     0.56621   0.15375   0.17946   0.00000  Uiso   1.00
C558   C     0.77626   0.11142   0.98158   0.00000  Uiso   1.00
C559   C     0.79315   0.14601   0.93519   0.00000  Uiso   1.00
C560   C     0.78197   0.12943   0.87618   0.00000  Uiso   1.00
C561   C     0.77364   0.12127   0.77283   0.00000  Uiso   1.00
C562   C     0.81511   0.07173   0.07349   0.00000  Uiso   1.00
C563   C     0.86467   0.07293   0.10436   0.00000  Uiso   1.00
C564   C     0.88620   0.02294   0.12271   0.00000  Uiso   1.00
C565   C     0.93820   0.95314   0.16207   0.00000  Uiso   1.00
C566   C     0.73440   0.03058   0.02700   0.00000  Uiso   1.00
C567   C     0.70020   0.06969   0.06547   0.00000  Uiso   1.00
C568   C     0.64781   0.05951   0.08723   0.00000  Uiso   1.00
C569   C     0.62345   0.10052   0.12160   0.00000  Uiso   1.00
C570   C     0.74917   0.06203   0.96945   0.00000  Uiso   1.00
C571   C     0.73796   0.04540   0.91049   0.00000  Uiso   1.00
C572   C     0.75482   0.07996   0.86403   0.00000  Uiso   1.00
C573   C     0.78801   0.02233   0.06136   0.00000  Uiso   1.00
C574   C     0.80947   0.97233   0.07967   0.00000  Uiso   1.00
C575   C     0.85906   0.97346   0.11057   0.00000  Uiso   1.00
H576   H     0.80538   0.15997   0.05876   0.00000  Uiso   1.00
H577   H     0.72399   0.19833   0.12130   0.00000  Uiso   1.00
H578   H     0.81413   0.18422   0.94459   0.00000  Uiso   1.00
H579   H     0.88563   0.11116   0.11374   0.00000  Uiso   1.00
H580   H     0.62179   0.21910   0.18528   0.00000  Uiso   1.00
H581   H     0.81186   0.18934   0.81267   0.00000  Uiso   1.00
H582   H     0.96265   0.03527   0.16935   0.00000  Uiso   1.00
H583   H     0.71330   0.99213   0.01756   0.00000  Uiso   1.00
H584   H     0.62685   0.02129   0.07784   0.00000  Uiso   1.00
H585   H     0.71699   0.00718   0.90113   0.00000  Uiso   1.00
H586   H     0.78849   0.93411   0.07027   0.00000  Uiso   1.00
H587   H     0.54295   0.07540   0.15000   0.00000  Uiso   1.00
H588   H     0.73303   0.04564   0.77739   0.00000  Uiso   1.00
H589   H     0.88381   0.89157   0.13407   0.00000  Uiso   1.00
O590   O     0.52715   0.16946   0.20802   0.00000  Uiso   1.00
O591   O     0.77653   0.13042   0.71918   0.00000  Uiso   1.00
O592   O     0.97436   0.92828   0.18713   0.00000  Uiso   1.00
N593   N     0.61510   0.18127   0.16871   0.00000  Uiso   1.00
N594   N     0.79280   0.15345   0.82035   0.00000  Uiso   1.00
N595   N     0.93378   0.00941   0.15379   0.00000  Uiso   1.00
N596   N     0.57268   0.10395   0.14973   0.00000  Uiso   1.00
N597   N     0.75038   0.07613   0.80137   0.00000  Uiso   1.00
N598   N     0.89136   0.93209   0.13481   0.00000  Uiso   1.00
C599   C     0.21571   0.87849   0.04932   0.00000  Uiso   1.00
C600   C     0.27270   0.88092   0.07760   0.00000  Uiso   1.00
C601   C     0.29699   0.83988   0.11193   0.00000  Uiso   1.00
C602   C     0.34941   0.85000   0.13374   0.00000  Uiso   1.00
C603   C     0.43379   0.84625   0.17946   0.00000  Uiso   1.00
C604   C     0.22374   0.88858   0.98158   0.00000  Uiso   1.00
C605   C     0.20685   0.85399   0.93519   0.00000  Uiso   1.00
C606   C     0.21803   0.87057   0.87618   0.00000  Uiso   1.00
C607   C     0.22636   0.87873   0.77283   0.00000  Uiso   1.00
C608   C     0.18489   0.92827   0.07349   0.00000  Uiso   1.00
C609   C     0.13533   0.92707   0.10436   0.00000  Uiso   1.00
C610   C     0.11380   0.97706   0.12271   0.00000  Uiso   1.00
C611   C     0.06180   0.04686   0.16207   0.00000  Uiso   1.00
C612   C     0.26560   0.96942   0.02700   0.00000  Uiso   1.00
C613   C     0.29980   0.93031   0.06547   0.00000  Uiso   1.00
C614   C     0.35219   0.94049   0.08723   0.00000  Uiso   1.00
C615   C     0.37655   0.89948   0.12160   0.00000  Uiso   1.00
C616   C     0.25083   0.93797   0.96945   0.00000  Uiso   1.00
C617   C     0.26204   0.95460   0.91049   0.00000  Uiso   1.00
C618   C     0.24518   0.92004   0.86403   0.00000  Uiso   1.00
C619   C     0.21199   0.97767   0.06136   0.00000  Uiso   1.00
C620   C     0.19053   0.02767   0.07967   0.00000  Uiso   1.00
C621   C     0.14094   0.02654   0.11057   0.00000  Uiso   1.00
H622   H     0.19462   0.84003   0.05876   0.00000  Uiso   1.00
H623   H     0.27601   0.80167   0.12130   0.00000  Uiso   1.00
H624   H     0.18587   0.81578   0.94459   0.00000  Uiso   1.00
H625   H     0.11437   0.88884   0.11374   0.00000  Uiso   1.00
H626   H     0.37821   0.78090   0.18528   0.00000  Uiso   1.00
H627   H     0.18814   0.81066   0.81267   0.00000  Uiso   1.00
H628   H     0.03735   0.96473   0.16935   0.00000  Uiso   1.00
H629   H     0.28670   0.00787   0.01756   0.00000  Uiso   1.00
H630   H     0.37315   0.97871   0.07784   0.00000  Uiso   1.00
H631   H     0.28301   0.99282   0.90113   0.00000  Uiso   1.00
H632   H     0.21151   0.06589   0.07027   0.00000  Uiso   1.00
H633   H     0.45705   0.92460   0.15000   0.00000  Uiso   1.00
H634   H     0.26697   0.95436   0.77739   0.00000  Uiso   1.00
H635   H     0.11619   0.10843   0.13407   0.00000  Uiso   1.00
O636   O     0.47285   0.83054   0.20802   0.00000  Uiso   1.00
O637   O     0.22347   0.86958   0.71918   0.00000  Uiso   1.00
O638   O     0.02564   0.07172   0.18713   0.00000  Uiso   1.00
N639   N     0.38490   0.81873   0.16871   0.00000  Uiso   1.00
N640   N     0.20720   0.84655   0.82035   0.00000  Uiso   1.00
N641   N     0.06622   0.99059   0.15379   0.00000  Uiso   1.00
N642   N     0.42732   0.89605   0.14973   0.00000  Uiso   1.00
N643   N     0.24962   0.92387   0.80137   0.00000  Uiso   1.00
N644   N     0.10864   0.06791   0.13481   0.00000  Uiso   1.00
C645   C     0.62151   0.71571   0.04932   0.00000  Uiso   1.00
C646   C     0.61908   0.77270   0.07760   0.00000  Uiso   1.00
C647   C     0.66012   0.79699   0.11193   0.00000  Uiso   1.00
C648   C     0.65000   0.84941   0.13374   0.00000  Uiso   1.00
C649   C     0.65375   0.93379   0.17946   0.00000  Uiso   1.00
C650   C     0.61142   0.72374   0.98158   0.00000  Uiso   1.00
C651   C     0.64601   0.70685   0.93519   0.00000  Uiso   1.00
C652   C     0.62943   0.71803   0.87618   0.00000  Uiso   1.00
C653   C     0.62127   0.72636   0.77283   0.00000  Uiso   1.00
C654   C     0.57173   0.68489   0.07349   0.00000  Uiso   1.00
C655   C     0.57293   0.63533   0.10436   0.00000  Uiso   1.00
C656   C     0.52294   0.61380   0.12271   0.00000  Uiso   1.00
C657   C     0.45314   0.56180   0.16207   0.00000  Uiso   1.00
C658   C     0.53058   0.76560   0.02700   0.00000  Uiso   1.00
C659   C     0.56969   0.79980   0.06547   0.00000  Uiso   1.00
C660   C     0.55951   0.85219   0.08723   0.00000  Uiso   1.00
C661   C     0.60052   0.87655   0.12160   0.00000  Uiso   1.00
C662   C     0.56203   0.75083   0.96945   0.00000  Uiso   1.00
C663   C     0.54540   0.76204   0.91049   0.00000  Uiso   1.00
C664   C     0.57996   0.74518   0.86403   0.00000  Uiso   1.00
C665   C     0.52233   0.71199   0.06136   0.00000  Uiso   1.00
C666   C     0.47233   0.69053   0.07967   0.00000  Uiso   1.00
C667   C     0.47346   0.64094   0.11057   0.00000  Uiso   1.00
H668   H     0.65997   0.69462   0.05876   0.00000  Uiso   1.00
H669   H     0.69833   0.77601   0.12130   0.00000  Uiso   1.00
H670   H     0.68422   0.68587   0.94459   0.00000  Uiso   1.00
H671   H     0.61116   0.61437   0.11374   0.00000  Uiso   1.00
H672   H     0.71910   0.87821   0.18528   0.00000  Uiso   1.00
H673   H     0.68934   0.68814   0.81267   0.00000  Uiso   1.00
H674   H     0.53527   0.53735   0.16935   0.00000  Uiso   1.00
H675   H     0.49213   0.78670   0.01756   0.00000  Uiso   1.00
H676   H     0.52129   0.87315   0.07784   0.00000  Uiso   1.00
H677   H     0.50718   0.78301   0.90113   0.00000  Uiso   1.00
H678   H     0.43411   0.71151   0.07027   0.00000  Uiso   1.00
H679   H     0.57540   0.95705   0.15000   0.00000  Uiso   1.00
H680   H     0.54564   0.76697   0.77739   0.00000  Uiso   1.00
H681   H     0.39157   0.61619   0.13407   0.00000  Uiso   1.00
O682   O     0.66946   0.97285   0.20802   0.00000  Uiso   1.00
O683   O     0.63042   0.72347   0.71918   0.00000  Uiso   1.00
O684   O     0.42828   0.52564   0.18713   0.00000  Uiso   1.00
N685   N     0.68127   0.88490   0.16871   0.00000  Uiso   1.00
N686   N     0.65345   0.70720   0.82035   0.00000  Uiso   1.00
N687   N     0.50941   0.56622   0.15379   0.00000  Uiso   1.00
N688   N     0.60395   0.92732   0.14973   0.00000  Uiso   1.00
N689   N     0.57613   0.74962   0.80137   0.00000  Uiso   1.00
N690   N     0.43209   0.60864   0.13481   0.00000  Uiso   1.00
C691   C     0.37849   0.28429   0.04932   0.00000  Uiso   1.00
C692   C     0.38092   0.22730   0.07760   0.00000  Uiso   1.00
C693   C     0.33988   0.20301   0.11193   0.00000  Uiso   1.00
C694   C     0.35000   0.15059   0.13374   0.00000  Uiso   1.00
C695   C     0.34625   0.06621   0.17946   0.00000  Uiso   1.00
C696   C     0.38858   0.27626   0.98158   0.00000  Uiso   1.00
C697   C     0.35399   0.29315   0.93519   0.00000  Uiso   1.00
C698   C     0.37057   0.28197   0.87618   0.00000  Uiso   1.00
C699   C     0.37873   0.27364   0.77283   0.00000  Uiso   1.00
C700   C     0.42827   0.31511   0.07349   0.00000  Uiso   1.00
C701   C     0.42707   0.36467   0.10436   0.00000  Uiso   1.00
C702   C     0.47706   0.38620   0.12271   0.00000  Uiso   1.00
C703   C     0.54686   0.43820   0.16207   0.00000  Uiso   1.00
C704   C     0.46942   0.23440   0.02700   0.00000  Uiso   1.00
C705   C     0.43031   0.20020   0.06547   0.00000  Uiso   1.00
C706   C     0.44049   0.14781   0.08723   0.00000  Uiso   1.00
C707   C     0.39948   0.12345   0.12160   0.00000  Uiso   1.00
C708   C     0.43797   0.24917   0.96945   0.00000  Uiso   1.00
C709   C     0.45460   0.23796   0.91049   0.00000  Uiso   1.00
C710   C     0.42004   0.25482   0.86403   0.00000  Uiso   1.00
C711   C     0.47767   0.28801   0.06136   0.00000  Uiso   1.00
C712   C     0.52767   0.30947   0.07967   0.00000  Uiso   1.00
C713   C     0.52654   0.35906   0.11057   0.00000  Uiso   1.00
H714   H     0.34003   0.30538   0.05876   0.00000  Uiso   1.00
H715   H     0.30167   0.22399   0.12130   0.00000  Uiso   1.00
H716   H     0.31578   0.31413   0.94459   0.00000  Uiso   1.00
H717   H     0.38884   0.38563   0.11374   0.00000  Uiso   1.00
H718   H     0.28090   0.12179   0.18528   0.00000  Uiso   1.00
H719   H     0.31066   0.31186   0.81267   0.00000  Uiso   1.00
H720   H     0.46473   0.46265   0.16935   0.00000  Uiso   1.00
H721   H     0.50787   0.21330   0.01756   0.00000  Uiso   1.00
H722   H     0.47871   0.12685   0.07784   0.00000  Uiso   1.00
H723   H     0.49282   0.21699   0.90113   0.00000  Uiso   1.00
H724   H     0.56589   0.28849   0.07027   0.00000  Uiso   1.00
H725   H     0.42460   0.04295   0.15000   0.00000  Uiso   1.00
H726   H     0.45436   0.23303   0.77739   0.00000  Uiso   1.00
H727   H     0.60843   0.38381   0.13407   0.00000  Uiso   1.00
O728   O     0.33054   0.02715   0.20802   0.00000  Uiso   1.00
O729   O     0.36958   0.27653   0.71918   0.00000  Uiso   1.00
O730   O     0.57172   0.47436   0.18713   0.00000  Uiso   1.00
N731   N     0.31873   0.11510   0.16871   0.00000  Uiso   1.00
N732   N     0.34655   0.29280   0.82035   0.00000  Uiso   1.00
N733   N     0.49059   0.43378   0.15379   0.00000  Uiso   1.00
N734   N     0.39605   0.07268   0.14973   0.00000  Uiso   1.00
N735   N     0.42387   0.25038   0.80137   0.00000  Uiso   1.00
N736   N     0.56791   0.39136   0.13481   0.00000  Uiso   1.00
