data_job_02135
_audit_creation_date              2018-12-19
_audit_creation_method            'Materials Studio'
_symmetry_space_group_name_H-M    'P1'
_symmetry_Int_Tables_number       1
_symmetry_cell_setting            triclinic
loop_
_symmetry_equiv_pos_as_xyz
  x,y,z
_cell_length_a                    23.3363
_cell_length_b                    23.3363
_cell_length_c                    19.8296
_cell_angle_alpha                 90.0000
_cell_angle_beta                  90.0000
_cell_angle_gamma                 90.0000
loop_
_atom_site_label
_atom_site_type_symbol
_atom_site_fract_x
_atom_site_fract_y
_atom_site_fract_z
_atom_site_U_iso_or_equiv
_atom_site_adp_type
_atom_site_occupancy
C1     C     0.09722   0.37906   0.57665   0.00000  Uiso   1.00
C2     C     0.15009   0.40974   0.54947   0.00000  Uiso   1.00
C3     C     0.18273   0.44971   0.58425   0.00000  Uiso   1.00
C4     C     0.22945   0.47290   0.55055   0.00000  Uiso   1.00
C5     C     0.30947   0.52303   0.51839   0.00000  Uiso   1.00
C6     C     0.04905   0.39181   0.52690   0.00000  Uiso   1.00
C7     C     0.99673   0.41669   0.54271   0.00000  Uiso   1.00
C8     C     0.95839   0.42477   0.49002   0.00000  Uiso   1.00
C9     C     0.88152   0.44702   0.42283   0.00000  Uiso   1.00
C10    C     0.10960   0.31514   0.57019   0.00000  Uiso   1.00
C11    C     0.10818   0.27555   0.62239   0.00000  Uiso   1.00
C12    C     0.12081   0.21907   0.60614   0.00000  Uiso   1.00
C13    C     0.13796   0.12227   0.60616   0.00000  Uiso   1.00
C14    C     0.12215   0.34915   0.45497   0.00000  Uiso   1.00
C15    C     0.16363   0.39350   0.48337   0.00000  Uiso   1.00
C16    C     0.21031   0.41662   0.44962   0.00000  Uiso   1.00
C17    C     0.24301   0.45662   0.48434   0.00000  Uiso   1.00
C18    C     0.06258   0.37556   0.46081   0.00000  Uiso   1.00
C19    C     0.02431   0.38360   0.40809   0.00000  Uiso   1.00
C20    C     0.97195   0.40850   0.42381   0.00000  Uiso   1.00
C21    C     0.12314   0.29889   0.50409   0.00000  Uiso   1.00
C22    C     0.13577   0.24246   0.48776   0.00000  Uiso   1.00
C23    C     0.13437   0.20279   0.53993   0.00000  Uiso   1.00
H24    H     0.08668   0.39171   0.62810   0.00000  Uiso   1.00
H25    H     0.17224   0.46228   0.63539   0.00000  Uiso   1.00
H26    H     0.98626   0.42926   0.59386   0.00000  Uiso   1.00
H27    H     0.09770   0.28814   0.67353   0.00000  Uiso   1.00
H28    H     0.27305   0.53337   0.61432   0.00000  Uiso   1.00
H29    H     0.88091   0.46372   0.52676   0.00000  Uiso   1.00
H30    H     0.11591   0.16614   0.69474   0.00000  Uiso   1.00
H31    H     0.13269   0.33650   0.40351   0.00000  Uiso   1.00
H32    H     0.22078   0.40404   0.39847   0.00000  Uiso   1.00
H33    H     0.03480   0.37102   0.35695   0.00000  Uiso   1.00
H34    H     0.14624   0.22990   0.43661   0.00000  Uiso   1.00
H35    H     0.31245   0.48610   0.42203   0.00000  Uiso   1.00
H36    H     0.92030   0.41646   0.33447   0.00000  Uiso   1.00
H37    H     0.15530   0.11887   0.50245   0.00000  Uiso   1.00
O38    O     0.34986   0.55518   0.51890   0.00000  Uiso   1.00
O39    O     0.83538   0.46380   0.40403   0.00000  Uiso   1.00
O40    O     0.14369   0.07338   0.62443   0.00000  Uiso   1.00
N41    N     0.27024   0.51297   0.56976   0.00000  Uiso   1.00
N42    N     0.90362   0.44786   0.48789   0.00000  Uiso   1.00
N43    N     0.12330   0.16964   0.64494   0.00000  Uiso   1.00
N44    N     0.29144   0.48753   0.46629   0.00000  Uiso   1.00
N45    N     0.92481   0.42243   0.38442   0.00000  Uiso   1.00
N46    N     0.14450   0.14421   0.54147   0.00000  Uiso   1.00
C47    C     0.59722   0.87906   0.07665   0.00000  Uiso   1.00
C48    C     0.65009   0.90974   0.04947   0.00000  Uiso   1.00
C49    C     0.68273   0.94971   0.08425   0.00000  Uiso   1.00
C50    C     0.72945   0.97290   0.05055   0.00000  Uiso   1.00
C51    C     0.80947   0.02303   0.01839   0.00000  Uiso   1.00
C52    C     0.54905   0.89181   0.02690   0.00000  Uiso   1.00
C53    C     0.49673   0.91669   0.04271   0.00000  Uiso   1.00
C54    C     0.45839   0.92477   0.99002   0.00000  Uiso   1.00
C55    C     0.38152   0.94702   0.92283   0.00000  Uiso   1.00
C56    C     0.60960   0.81514   0.07019   0.00000  Uiso   1.00
C57    C     0.60818   0.77555   0.12239   0.00000  Uiso   1.00
C58    C     0.62081   0.71907   0.10614   0.00000  Uiso   1.00
C59    C     0.63796   0.62227   0.10616   0.00000  Uiso   1.00
C60    C     0.62215   0.84915   0.95497   0.00000  Uiso   1.00
C61    C     0.66363   0.89350   0.98337   0.00000  Uiso   1.00
C62    C     0.71031   0.91662   0.94962   0.00000  Uiso   1.00
C63    C     0.74301   0.95662   0.98434   0.00000  Uiso   1.00
C64    C     0.56258   0.87556   0.96081   0.00000  Uiso   1.00
C65    C     0.52431   0.88360   0.90809   0.00000  Uiso   1.00
C66    C     0.47195   0.90850   0.92381   0.00000  Uiso   1.00
C67    C     0.62314   0.79889   0.00409   0.00000  Uiso   1.00
C68    C     0.63577   0.74246   0.98776   0.00000  Uiso   1.00
C69    C     0.63437   0.70279   0.03993   0.00000  Uiso   1.00
H70    H     0.58668   0.89171   0.12810   0.00000  Uiso   1.00
H71    H     0.67224   0.96228   0.13539   0.00000  Uiso   1.00
H72    H     0.48626   0.92926   0.09386   0.00000  Uiso   1.00
H73    H     0.59770   0.78814   0.17353   0.00000  Uiso   1.00
H74    H     0.77305   0.03337   0.11432   0.00000  Uiso   1.00
H75    H     0.38091   0.96372   0.02676   0.00000  Uiso   1.00
H76    H     0.61591   0.66614   0.19474   0.00000  Uiso   1.00
H77    H     0.63269   0.83650   0.90351   0.00000  Uiso   1.00
H78    H     0.72078   0.90404   0.89847   0.00000  Uiso   1.00
H79    H     0.53480   0.87102   0.85695   0.00000  Uiso   1.00
H80    H     0.64624   0.72990   0.93661   0.00000  Uiso   1.00
H81    H     0.81245   0.98610   0.92203   0.00000  Uiso   1.00
H82    H     0.42030   0.91646   0.83447   0.00000  Uiso   1.00
H83    H     0.65530   0.61887   0.00245   0.00000  Uiso   1.00
O84    O     0.84986   0.05518   0.01890   0.00000  Uiso   1.00
O85    O     0.33538   0.96380   0.90403   0.00000  Uiso   1.00
O86    O     0.64369   0.57338   0.12443   0.00000  Uiso   1.00
N87    N     0.77024   0.01297   0.06976   0.00000  Uiso   1.00
N88    N     0.40362   0.94786   0.98789   0.00000  Uiso   1.00
N89    N     0.62330   0.66964   0.14494   0.00000  Uiso   1.00
N90    N     0.79144   0.98753   0.96629   0.00000  Uiso   1.00
N91    N     0.42481   0.92243   0.88442   0.00000  Uiso   1.00
N92    N     0.64450   0.64421   0.04147   0.00000  Uiso   1.00
C93    C     0.40278   0.12094   0.07665   0.00000  Uiso   1.00
C94    C     0.34991   0.09026   0.04947   0.00000  Uiso   1.00
C95    C     0.31727   0.05029   0.08425   0.00000  Uiso   1.00
C96    C     0.27055   0.02710   0.05055   0.00000  Uiso   1.00
C97    C     0.19053   0.97697   0.01839   0.00000  Uiso   1.00
C98    C     0.45095   0.10819   0.02690   0.00000  Uiso   1.00
C99    C     0.50327   0.08331   0.04271   0.00000  Uiso   1.00
C100   C     0.54161   0.07523   0.99002   0.00000  Uiso   1.00
C101   C     0.61848   0.05298   0.92283   0.00000  Uiso   1.00
C102   C     0.39040   0.18486   0.07019   0.00000  Uiso   1.00
C103   C     0.39182   0.22445   0.12239   0.00000  Uiso   1.00
C104   C     0.37919   0.28093   0.10614   0.00000  Uiso   1.00
C105   C     0.36204   0.37773   0.10616   0.00000  Uiso   1.00
C106   C     0.37785   0.15085   0.95497   0.00000  Uiso   1.00
C107   C     0.33637   0.10650   0.98337   0.00000  Uiso   1.00
C108   C     0.28969   0.08338   0.94962   0.00000  Uiso   1.00
C109   C     0.25699   0.04338   0.98434   0.00000  Uiso   1.00
C110   C     0.43742   0.12444   0.96081   0.00000  Uiso   1.00
C111   C     0.47569   0.11640   0.90809   0.00000  Uiso   1.00
C112   C     0.52805   0.09150   0.92381   0.00000  Uiso   1.00
C113   C     0.37686   0.20111   0.00409   0.00000  Uiso   1.00
C114   C     0.36423   0.25754   0.98776   0.00000  Uiso   1.00
C115   C     0.36563   0.29721   0.03993   0.00000  Uiso   1.00
H116   H     0.41332   0.10829   0.12810   0.00000  Uiso   1.00
H117   H     0.32776   0.03772   0.13539   0.00000  Uiso   1.00
H118   H     0.51374   0.07074   0.09386   0.00000  Uiso   1.00
H119   H     0.40230   0.21186   0.17353   0.00000  Uiso   1.00
H120   H     0.22695   0.96663   0.11432   0.00000  Uiso   1.00
H121   H     0.61909   0.03628   0.02676   0.00000  Uiso   1.00
H122   H     0.38409   0.33386   0.19474   0.00000  Uiso   1.00
H123   H     0.36731   0.16350   0.90351   0.00000  Uiso   1.00
H124   H     0.27922   0.09596   0.89847   0.00000  Uiso   1.00
H125   H     0.46520   0.12898   0.85695   0.00000  Uiso   1.00
H126   H     0.35376   0.27010   0.93661   0.00000  Uiso   1.00
H127   H     0.18755   0.01390   0.92203   0.00000  Uiso   1.00
H128   H     0.57970   0.08354   0.83447   0.00000  Uiso   1.00
H129   H     0.34470   0.38113   0.00245   0.00000  Uiso   1.00
O130   O     0.15014   0.94482   0.01890   0.00000  Uiso   1.00
O131   O     0.66462   0.03620   0.90403   0.00000  Uiso   1.00
O132   O     0.35631   0.42662   0.12443   0.00000  Uiso   1.00
N133   N     0.22976   0.98703   0.06976   0.00000  Uiso   1.00
N134   N     0.59638   0.05214   0.98789   0.00000  Uiso   1.00
N135   N     0.37670   0.33036   0.14494   0.00000  Uiso   1.00
N136   N     0.20856   0.01247   0.96629   0.00000  Uiso   1.00
N137   N     0.57519   0.07757   0.88442   0.00000  Uiso   1.00
N138   N     0.35550   0.35579   0.04147   0.00000  Uiso   1.00
C139   C     0.90278   0.62094   0.57665   0.00000  Uiso   1.00
C140   C     0.84991   0.59026   0.54947   0.00000  Uiso   1.00
C141   C     0.81727   0.55029   0.58425   0.00000  Uiso   1.00
C142   C     0.77055   0.52710   0.55055   0.00000  Uiso   1.00
C143   C     0.69053   0.47697   0.51839   0.00000  Uiso   1.00
C144   C     0.95095   0.60819   0.52690   0.00000  Uiso   1.00
C145   C     0.00327   0.58331   0.54271   0.00000  Uiso   1.00
C146   C     0.04161   0.57523   0.49002   0.00000  Uiso   1.00
C147   C     0.11848   0.55298   0.42283   0.00000  Uiso   1.00
C148   C     0.89040   0.68486   0.57019   0.00000  Uiso   1.00
C149   C     0.89182   0.72445   0.62239   0.00000  Uiso   1.00
C150   C     0.87919   0.78093   0.60614   0.00000  Uiso   1.00
C151   C     0.86204   0.87773   0.60616   0.00000  Uiso   1.00
C152   C     0.87785   0.65085   0.45497   0.00000  Uiso   1.00
C153   C     0.83637   0.60650   0.48337   0.00000  Uiso   1.00
C154   C     0.78969   0.58338   0.44962   0.00000  Uiso   1.00
C155   C     0.75699   0.54338   0.48434   0.00000  Uiso   1.00
C156   C     0.93742   0.62444   0.46081   0.00000  Uiso   1.00
C157   C     0.97569   0.61640   0.40809   0.00000  Uiso   1.00
C158   C     0.02805   0.59150   0.42381   0.00000  Uiso   1.00
C159   C     0.87686   0.70111   0.50409   0.00000  Uiso   1.00
C160   C     0.86423   0.75754   0.48776   0.00000  Uiso   1.00
C161   C     0.86563   0.79721   0.53993   0.00000  Uiso   1.00
H162   H     0.91332   0.60829   0.62810   0.00000  Uiso   1.00
H163   H     0.82776   0.53772   0.63539   0.00000  Uiso   1.00
H164   H     0.01374   0.57074   0.59386   0.00000  Uiso   1.00
H165   H     0.90230   0.71186   0.67353   0.00000  Uiso   1.00
H166   H     0.72695   0.46663   0.61432   0.00000  Uiso   1.00
H167   H     0.11909   0.53628   0.52676   0.00000  Uiso   1.00
H168   H     0.88409   0.83386   0.69474   0.00000  Uiso   1.00
H169   H     0.86731   0.66350   0.40351   0.00000  Uiso   1.00
H170   H     0.77922   0.59596   0.39847   0.00000  Uiso   1.00
H171   H     0.96520   0.62898   0.35695   0.00000  Uiso   1.00
H172   H     0.85376   0.77010   0.43661   0.00000  Uiso   1.00
H173   H     0.68755   0.51390   0.42203   0.00000  Uiso   1.00
H174   H     0.07970   0.58354   0.33447   0.00000  Uiso   1.00
H175   H     0.84470   0.88113   0.50245   0.00000  Uiso   1.00
O176   O     0.65014   0.44482   0.51890   0.00000  Uiso   1.00
O177   O     0.16462   0.53620   0.40403   0.00000  Uiso   1.00
O178   O     0.85631   0.92662   0.62443   0.00000  Uiso   1.00
N179   N     0.72976   0.48703   0.56976   0.00000  Uiso   1.00
N180   N     0.09638   0.55214   0.48789   0.00000  Uiso   1.00
N181   N     0.87670   0.83036   0.64494   0.00000  Uiso   1.00
N182   N     0.70856   0.51247   0.46629   0.00000  Uiso   1.00
N183   N     0.07519   0.57757   0.38442   0.00000  Uiso   1.00
N184   N     0.85550   0.85579   0.54147   0.00000  Uiso   1.00
C185   C     0.62094   0.59722   0.82665   0.00000  Uiso   1.00
C186   C     0.59026   0.65009   0.79947   0.00000  Uiso   1.00
C187   C     0.55029   0.68273   0.83425   0.00000  Uiso   1.00
C188   C     0.52710   0.72945   0.80055   0.00000  Uiso   1.00
C189   C     0.47697   0.80947   0.76839   0.00000  Uiso   1.00
C190   C     0.60819   0.54905   0.77690   0.00000  Uiso   1.00
C191   C     0.58331   0.49673   0.79271   0.00000  Uiso   1.00
C192   C     0.57523   0.45839   0.74002   0.00000  Uiso   1.00
C193   C     0.55298   0.38152   0.67283   0.00000  Uiso   1.00
C194   C     0.68486   0.60960   0.82019   0.00000  Uiso   1.00
C195   C     0.72445   0.60818   0.87239   0.00000  Uiso   1.00
C196   C     0.78093   0.62081   0.85614   0.00000  Uiso   1.00
C197   C     0.87773   0.63796   0.85616   0.00000  Uiso   1.00
C198   C     0.65085   0.62215   0.70497   0.00000  Uiso   1.00
C199   C     0.60650   0.66363   0.73337   0.00000  Uiso   1.00
C200   C     0.58338   0.71031   0.69962   0.00000  Uiso   1.00
C201   C     0.54338   0.74301   0.73434   0.00000  Uiso   1.00
C202   C     0.62444   0.56258   0.71081   0.00000  Uiso   1.00
C203   C     0.61640   0.52431   0.65809   0.00000  Uiso   1.00
C204   C     0.59150   0.47195   0.67381   0.00000  Uiso   1.00
C205   C     0.70111   0.62314   0.75409   0.00000  Uiso   1.00
C206   C     0.75754   0.63577   0.73776   0.00000  Uiso   1.00
C207   C     0.79721   0.63437   0.78993   0.00000  Uiso   1.00
H208   H     0.60829   0.58668   0.87810   0.00000  Uiso   1.00
H209   H     0.53772   0.67224   0.88539   0.00000  Uiso   1.00
H210   H     0.57074   0.48626   0.84386   0.00000  Uiso   1.00
H211   H     0.71186   0.59770   0.92353   0.00000  Uiso   1.00
H212   H     0.46663   0.77305   0.86432   0.00000  Uiso   1.00
H213   H     0.53628   0.38091   0.77676   0.00000  Uiso   1.00
H214   H     0.83386   0.61591   0.94474   0.00000  Uiso   1.00
H215   H     0.66350   0.63269   0.65351   0.00000  Uiso   1.00
H216   H     0.59596   0.72078   0.64847   0.00000  Uiso   1.00
H217   H     0.62898   0.53480   0.60695   0.00000  Uiso   1.00
H218   H     0.77010   0.64624   0.68661   0.00000  Uiso   1.00
H219   H     0.51390   0.81245   0.67203   0.00000  Uiso   1.00
H220   H     0.58354   0.42030   0.58447   0.00000  Uiso   1.00
H221   H     0.88113   0.65530   0.75245   0.00000  Uiso   1.00
O222   O     0.44482   0.84986   0.76890   0.00000  Uiso   1.00
O223   O     0.53620   0.33538   0.65403   0.00000  Uiso   1.00
O224   O     0.92662   0.64369   0.87443   0.00000  Uiso   1.00
N225   N     0.48703   0.77024   0.81976   0.00000  Uiso   1.00
N226   N     0.55214   0.40362   0.73789   0.00000  Uiso   1.00
N227   N     0.83036   0.62330   0.89494   0.00000  Uiso   1.00
N228   N     0.51247   0.79144   0.71629   0.00000  Uiso   1.00
N229   N     0.57757   0.42481   0.63442   0.00000  Uiso   1.00
N230   N     0.85579   0.64450   0.79147   0.00000  Uiso   1.00
C231   C     0.12094   0.09722   0.32665   0.00000  Uiso   1.00
C232   C     0.09026   0.15009   0.29947   0.00000  Uiso   1.00
C233   C     0.05029   0.18273   0.33425   0.00000  Uiso   1.00
C234   C     0.02710   0.22945   0.30055   0.00000  Uiso   1.00
C235   C     0.97697   0.30947   0.26839   0.00000  Uiso   1.00
C236   C     0.10819   0.04905   0.27690   0.00000  Uiso   1.00
C237   C     0.08331   0.99673   0.29271   0.00000  Uiso   1.00
C238   C     0.07523   0.95839   0.24002   0.00000  Uiso   1.00
C239   C     0.05298   0.88152   0.17283   0.00000  Uiso   1.00
C240   C     0.18486   0.10960   0.32019   0.00000  Uiso   1.00
C241   C     0.22445   0.10818   0.37239   0.00000  Uiso   1.00
C242   C     0.28093   0.12081   0.35614   0.00000  Uiso   1.00
C243   C     0.37773   0.13796   0.35616   0.00000  Uiso   1.00
C244   C     0.15085   0.12215   0.20497   0.00000  Uiso   1.00
C245   C     0.10650   0.16363   0.23337   0.00000  Uiso   1.00
C246   C     0.08338   0.21031   0.19962   0.00000  Uiso   1.00
C247   C     0.04338   0.24301   0.23434   0.00000  Uiso   1.00
C248   C     0.12444   0.06258   0.21081   0.00000  Uiso   1.00
C249   C     0.11640   0.02431   0.15809   0.00000  Uiso   1.00
C250   C     0.09150   0.97195   0.17381   0.00000  Uiso   1.00
C251   C     0.20111   0.12314   0.25409   0.00000  Uiso   1.00
C252   C     0.25754   0.13577   0.23776   0.00000  Uiso   1.00
C253   C     0.29721   0.13437   0.28993   0.00000  Uiso   1.00
H254   H     0.10829   0.08668   0.37810   0.00000  Uiso   1.00
H255   H     0.03772   0.17224   0.38539   0.00000  Uiso   1.00
H256   H     0.07074   0.98626   0.34386   0.00000  Uiso   1.00
H257   H     0.21186   0.09770   0.42353   0.00000  Uiso   1.00
H258   H     0.96663   0.27305   0.36432   0.00000  Uiso   1.00
H259   H     0.03628   0.88091   0.27676   0.00000  Uiso   1.00
H260   H     0.33386   0.11591   0.44474   0.00000  Uiso   1.00
H261   H     0.16350   0.13269   0.15351   0.00000  Uiso   1.00
H262   H     0.09596   0.22078   0.14847   0.00000  Uiso   1.00
H263   H     0.12898   0.03480   0.10695   0.00000  Uiso   1.00
H264   H     0.27010   0.14624   0.18661   0.00000  Uiso   1.00
H265   H     0.01390   0.31245   0.17203   0.00000  Uiso   1.00
H266   H     0.08354   0.92030   0.08447   0.00000  Uiso   1.00
H267   H     0.38113   0.15530   0.25245   0.00000  Uiso   1.00
O268   O     0.94482   0.34986   0.26890   0.00000  Uiso   1.00
O269   O     0.03620   0.83538   0.15403   0.00000  Uiso   1.00
O270   O     0.42662   0.14369   0.37443   0.00000  Uiso   1.00
N271   N     0.98703   0.27024   0.31976   0.00000  Uiso   1.00
N272   N     0.05214   0.90362   0.23789   0.00000  Uiso   1.00
N273   N     0.33036   0.12330   0.39494   0.00000  Uiso   1.00
N274   N     0.01247   0.29144   0.21629   0.00000  Uiso   1.00
N275   N     0.07757   0.92481   0.13442   0.00000  Uiso   1.00
N276   N     0.35579   0.14450   0.29147   0.00000  Uiso   1.00
C277   C     0.87906   0.90278   0.32665   0.00000  Uiso   1.00
C278   C     0.90974   0.84991   0.29947   0.00000  Uiso   1.00
C279   C     0.94971   0.81727   0.33425   0.00000  Uiso   1.00
C280   C     0.97290   0.77055   0.30055   0.00000  Uiso   1.00
C281   C     0.02303   0.69053   0.26839   0.00000  Uiso   1.00
C282   C     0.89181   0.95095   0.27690   0.00000  Uiso   1.00
C283   C     0.91669   0.00327   0.29271   0.00000  Uiso   1.00
C284   C     0.92477   0.04161   0.24002   0.00000  Uiso   1.00
C285   C     0.94702   0.11848   0.17283   0.00000  Uiso   1.00
C286   C     0.81514   0.89040   0.32019   0.00000  Uiso   1.00
C287   C     0.77555   0.89182   0.37239   0.00000  Uiso   1.00
C288   C     0.71907   0.87919   0.35614   0.00000  Uiso   1.00
C289   C     0.62227   0.86204   0.35616   0.00000  Uiso   1.00
C290   C     0.84915   0.87785   0.20497   0.00000  Uiso   1.00
C291   C     0.89350   0.83637   0.23337   0.00000  Uiso   1.00
C292   C     0.91662   0.78969   0.19962   0.00000  Uiso   1.00
C293   C     0.95662   0.75699   0.23434   0.00000  Uiso   1.00
C294   C     0.87556   0.93742   0.21081   0.00000  Uiso   1.00
C295   C     0.88360   0.97569   0.15809   0.00000  Uiso   1.00
C296   C     0.90850   0.02805   0.17381   0.00000  Uiso   1.00
C297   C     0.79889   0.87686   0.25409   0.00000  Uiso   1.00
C298   C     0.74246   0.86423   0.23776   0.00000  Uiso   1.00
C299   C     0.70279   0.86563   0.28993   0.00000  Uiso   1.00
H300   H     0.89171   0.91332   0.37810   0.00000  Uiso   1.00
H301   H     0.96228   0.82776   0.38539   0.00000  Uiso   1.00
H302   H     0.92926   0.01374   0.34386   0.00000  Uiso   1.00
H303   H     0.78814   0.90230   0.42353   0.00000  Uiso   1.00
H304   H     0.03337   0.72695   0.36432   0.00000  Uiso   1.00
H305   H     0.96372   0.11909   0.27676   0.00000  Uiso   1.00
H306   H     0.66614   0.88409   0.44474   0.00000  Uiso   1.00
H307   H     0.83650   0.86731   0.15351   0.00000  Uiso   1.00
H308   H     0.90404   0.77922   0.14847   0.00000  Uiso   1.00
H309   H     0.87102   0.96520   0.10695   0.00000  Uiso   1.00
H310   H     0.72990   0.85376   0.18661   0.00000  Uiso   1.00
H311   H     0.98610   0.68755   0.17203   0.00000  Uiso   1.00
H312   H     0.91646   0.07970   0.08447   0.00000  Uiso   1.00
H313   H     0.61887   0.84470   0.25245   0.00000  Uiso   1.00
O314   O     0.05518   0.65014   0.26890   0.00000  Uiso   1.00
O315   O     0.96380   0.16462   0.15403   0.00000  Uiso   1.00
O316   O     0.57338   0.85631   0.37443   0.00000  Uiso   1.00
N317   N     0.01297   0.72976   0.31976   0.00000  Uiso   1.00
N318   N     0.94786   0.09638   0.23789   0.00000  Uiso   1.00
N319   N     0.66964   0.87670   0.39494   0.00000  Uiso   1.00
N320   N     0.98753   0.70856   0.21629   0.00000  Uiso   1.00
N321   N     0.92243   0.07519   0.13442   0.00000  Uiso   1.00
N322   N     0.64421   0.85550   0.29147   0.00000  Uiso   1.00
C323   C     0.37906   0.40278   0.82665   0.00000  Uiso   1.00
C324   C     0.40974   0.34991   0.79947   0.00000  Uiso   1.00
C325   C     0.44971   0.31727   0.83425   0.00000  Uiso   1.00
C326   C     0.47290   0.27055   0.80055   0.00000  Uiso   1.00
C327   C     0.52303   0.19053   0.76839   0.00000  Uiso   1.00
C328   C     0.39181   0.45095   0.77690   0.00000  Uiso   1.00
C329   C     0.41669   0.50327   0.79271   0.00000  Uiso   1.00
C330   C     0.42477   0.54161   0.74002   0.00000  Uiso   1.00
C331   C     0.44702   0.61848   0.67283   0.00000  Uiso   1.00
C332   C     0.31514   0.39040   0.82019   0.00000  Uiso   1.00
C333   C     0.27555   0.39182   0.87239   0.00000  Uiso   1.00
C334   C     0.21907   0.37919   0.85614   0.00000  Uiso   1.00
C335   C     0.12227   0.36204   0.85616   0.00000  Uiso   1.00
C336   C     0.34915   0.37785   0.70497   0.00000  Uiso   1.00
C337   C     0.39350   0.33637   0.73337   0.00000  Uiso   1.00
C338   C     0.41662   0.28969   0.69962   0.00000  Uiso   1.00
C339   C     0.45662   0.25699   0.73434   0.00000  Uiso   1.00
C340   C     0.37556   0.43742   0.71081   0.00000  Uiso   1.00
C341   C     0.38360   0.47569   0.65809   0.00000  Uiso   1.00
C342   C     0.40850   0.52805   0.67381   0.00000  Uiso   1.00
C343   C     0.29889   0.37686   0.75409   0.00000  Uiso   1.00
C344   C     0.24246   0.36423   0.73776   0.00000  Uiso   1.00
C345   C     0.20279   0.36563   0.78993   0.00000  Uiso   1.00
H346   H     0.39171   0.41332   0.87810   0.00000  Uiso   1.00
H347   H     0.46228   0.32776   0.88539   0.00000  Uiso   1.00
H348   H     0.42926   0.51374   0.84386   0.00000  Uiso   1.00
H349   H     0.28814   0.40230   0.92353   0.00000  Uiso   1.00
H350   H     0.53337   0.22695   0.86432   0.00000  Uiso   1.00
H351   H     0.46372   0.61909   0.77676   0.00000  Uiso   1.00
H352   H     0.16614   0.38409   0.94474   0.00000  Uiso   1.00
H353   H     0.33650   0.36731   0.65351   0.00000  Uiso   1.00
H354   H     0.40404   0.27922   0.64847   0.00000  Uiso   1.00
H355   H     0.37102   0.46520   0.60695   0.00000  Uiso   1.00
H356   H     0.22990   0.35376   0.68661   0.00000  Uiso   1.00
H357   H     0.48610   0.18755   0.67203   0.00000  Uiso   1.00
H358   H     0.41646   0.57970   0.58447   0.00000  Uiso   1.00
H359   H     0.11887   0.34470   0.75245   0.00000  Uiso   1.00
O360   O     0.55518   0.15014   0.76890   0.00000  Uiso   1.00
O361   O     0.46380   0.66462   0.65403   0.00000  Uiso   1.00
O362   O     0.07338   0.35631   0.87443   0.00000  Uiso   1.00
N363   N     0.51297   0.22976   0.81976   0.00000  Uiso   1.00
N364   N     0.44786   0.59638   0.73789   0.00000  Uiso   1.00
N365   N     0.16964   0.37670   0.89494   0.00000  Uiso   1.00
N366   N     0.48753   0.20856   0.71629   0.00000  Uiso   1.00
N367   N     0.42243   0.57519   0.63442   0.00000  Uiso   1.00
N368   N     0.14421   0.35550   0.79147   0.00000  Uiso   1.00
C369   C     0.90278   0.12094   0.67335   0.00000  Uiso   1.00
C370   C     0.84991   0.09026   0.70053   0.00000  Uiso   1.00
C371   C     0.81727   0.05029   0.66575   0.00000  Uiso   1.00
C372   C     0.77055   0.02710   0.69945   0.00000  Uiso   1.00
C373   C     0.69053   0.97697   0.73161   0.00000  Uiso   1.00
C374   C     0.95095   0.10819   0.72310   0.00000  Uiso   1.00
C375   C     0.00327   0.08331   0.70729   0.00000  Uiso   1.00
C376   C     0.04161   0.07523   0.75998   0.00000  Uiso   1.00
C377   C     0.11848   0.05298   0.82717   0.00000  Uiso   1.00
C378   C     0.89040   0.18486   0.67981   0.00000  Uiso   1.00
C379   C     0.89182   0.22445   0.62761   0.00000  Uiso   1.00
C380   C     0.87919   0.28093   0.64386   0.00000  Uiso   1.00
C381   C     0.86204   0.37773   0.64384   0.00000  Uiso   1.00
C382   C     0.87785   0.15085   0.79503   0.00000  Uiso   1.00
C383   C     0.83637   0.10650   0.76663   0.00000  Uiso   1.00
C384   C     0.78969   0.08338   0.80038   0.00000  Uiso   1.00
C385   C     0.75699   0.04338   0.76566   0.00000  Uiso   1.00
C386   C     0.93742   0.12444   0.78919   0.00000  Uiso   1.00
C387   C     0.97569   0.11640   0.84191   0.00000  Uiso   1.00
C388   C     0.02805   0.09150   0.82619   0.00000  Uiso   1.00
C389   C     0.87686   0.20111   0.74591   0.00000  Uiso   1.00
C390   C     0.86423   0.25754   0.76224   0.00000  Uiso   1.00
C391   C     0.86563   0.29721   0.71007   0.00000  Uiso   1.00
H392   H     0.91332   0.10829   0.62190   0.00000  Uiso   1.00
H393   H     0.82776   0.03772   0.61461   0.00000  Uiso   1.00
H394   H     0.01374   0.07074   0.65614   0.00000  Uiso   1.00
H395   H     0.90230   0.21186   0.57647   0.00000  Uiso   1.00
H396   H     0.72695   0.96663   0.63568   0.00000  Uiso   1.00
H397   H     0.11909   0.03628   0.72324   0.00000  Uiso   1.00
H398   H     0.88409   0.33386   0.55526   0.00000  Uiso   1.00
H399   H     0.86731   0.16350   0.84649   0.00000  Uiso   1.00
H400   H     0.77922   0.09596   0.85153   0.00000  Uiso   1.00
H401   H     0.96520   0.12898   0.89305   0.00000  Uiso   1.00
H402   H     0.85376   0.27010   0.81339   0.00000  Uiso   1.00
H403   H     0.68755   0.01390   0.82797   0.00000  Uiso   1.00
H404   H     0.07970   0.08354   0.91553   0.00000  Uiso   1.00
H405   H     0.84470   0.38113   0.74755   0.00000  Uiso   1.00
O406   O     0.65014   0.94482   0.73110   0.00000  Uiso   1.00
O407   O     0.16462   0.03620   0.84597   0.00000  Uiso   1.00
O408   O     0.85631   0.42662   0.62557   0.00000  Uiso   1.00
N409   N     0.72976   0.98703   0.68024   0.00000  Uiso   1.00
N410   N     0.09638   0.05214   0.76211   0.00000  Uiso   1.00
N411   N     0.87670   0.33036   0.60506   0.00000  Uiso   1.00
N412   N     0.70856   0.01247   0.78371   0.00000  Uiso   1.00
N413   N     0.07519   0.07757   0.86558   0.00000  Uiso   1.00
N414   N     0.85550   0.35579   0.70853   0.00000  Uiso   1.00
C415   C     0.40278   0.62094   0.17335   0.00000  Uiso   1.00
C416   C     0.34991   0.59026   0.20053   0.00000  Uiso   1.00
C417   C     0.31727   0.55029   0.16575   0.00000  Uiso   1.00
C418   C     0.27055   0.52710   0.19945   0.00000  Uiso   1.00
C419   C     0.19053   0.47697   0.23161   0.00000  Uiso   1.00
C420   C     0.45095   0.60819   0.22310   0.00000  Uiso   1.00
C421   C     0.50327   0.58331   0.20729   0.00000  Uiso   1.00
C422   C     0.54161   0.57523   0.25998   0.00000  Uiso   1.00
C423   C     0.61848   0.55298   0.32717   0.00000  Uiso   1.00
C424   C     0.39040   0.68486   0.17981   0.00000  Uiso   1.00
C425   C     0.39182   0.72445   0.12761   0.00000  Uiso   1.00
C426   C     0.37919   0.78093   0.14386   0.00000  Uiso   1.00
C427   C     0.36204   0.87773   0.14384   0.00000  Uiso   1.00
C428   C     0.37785   0.65085   0.29503   0.00000  Uiso   1.00
C429   C     0.33637   0.60650   0.26663   0.00000  Uiso   1.00
C430   C     0.28969   0.58338   0.30038   0.00000  Uiso   1.00
C431   C     0.25699   0.54338   0.26566   0.00000  Uiso   1.00
C432   C     0.43742   0.62444   0.28919   0.00000  Uiso   1.00
C433   C     0.47569   0.61640   0.34191   0.00000  Uiso   1.00
C434   C     0.52805   0.59150   0.32619   0.00000  Uiso   1.00
C435   C     0.37686   0.70111   0.24591   0.00000  Uiso   1.00
C436   C     0.36423   0.75754   0.26224   0.00000  Uiso   1.00
C437   C     0.36563   0.79721   0.21007   0.00000  Uiso   1.00
H438   H     0.41332   0.60829   0.12190   0.00000  Uiso   1.00
H439   H     0.32776   0.53772   0.11461   0.00000  Uiso   1.00
H440   H     0.51374   0.57074   0.15614   0.00000  Uiso   1.00
H441   H     0.40230   0.71186   0.07647   0.00000  Uiso   1.00
H442   H     0.22695   0.46663   0.13568   0.00000  Uiso   1.00
H443   H     0.61909   0.53628   0.22324   0.00000  Uiso   1.00
H444   H     0.38409   0.83386   0.05526   0.00000  Uiso   1.00
H445   H     0.36731   0.66350   0.34649   0.00000  Uiso   1.00
H446   H     0.27922   0.59596   0.35153   0.00000  Uiso   1.00
H447   H     0.46520   0.62898   0.39305   0.00000  Uiso   1.00
H448   H     0.35376   0.77010   0.31339   0.00000  Uiso   1.00
H449   H     0.18755   0.51390   0.32797   0.00000  Uiso   1.00
H450   H     0.57970   0.58354   0.41553   0.00000  Uiso   1.00
H451   H     0.34470   0.88113   0.24755   0.00000  Uiso   1.00
O452   O     0.15014   0.44482   0.23110   0.00000  Uiso   1.00
O453   O     0.66462   0.53620   0.34597   0.00000  Uiso   1.00
O454   O     0.35631   0.92662   0.12557   0.00000  Uiso   1.00
N455   N     0.22976   0.48703   0.18024   0.00000  Uiso   1.00
N456   N     0.59638   0.55214   0.26211   0.00000  Uiso   1.00
N457   N     0.37670   0.83036   0.10506   0.00000  Uiso   1.00
N458   N     0.20856   0.51247   0.28371   0.00000  Uiso   1.00
N459   N     0.57519   0.57757   0.36558   0.00000  Uiso   1.00
N460   N     0.35550   0.85579   0.20853   0.00000  Uiso   1.00
C461   C     0.59722   0.37906   0.17335   0.00000  Uiso   1.00
C462   C     0.65009   0.40974   0.20053   0.00000  Uiso   1.00
C463   C     0.68273   0.44971   0.16575   0.00000  Uiso   1.00
C464   C     0.72945   0.47290   0.19945   0.00000  Uiso   1.00
C465   C     0.80947   0.52303   0.23161   0.00000  Uiso   1.00
C466   C     0.54905   0.39181   0.22310   0.00000  Uiso   1.00
C467   C     0.49673   0.41669   0.20729   0.00000  Uiso   1.00
C468   C     0.45839   0.42477   0.25998   0.00000  Uiso   1.00
C469   C     0.38152   0.44702   0.32717   0.00000  Uiso   1.00
C470   C     0.60960   0.31514   0.17981   0.00000  Uiso   1.00
C471   C     0.60818   0.27555   0.12761   0.00000  Uiso   1.00
C472   C     0.62081   0.21907   0.14386   0.00000  Uiso   1.00
C473   C     0.63796   0.12227   0.14384   0.00000  Uiso   1.00
C474   C     0.62215   0.34915   0.29503   0.00000  Uiso   1.00
C475   C     0.66363   0.39350   0.26663   0.00000  Uiso   1.00
C476   C     0.71031   0.41662   0.30038   0.00000  Uiso   1.00
C477   C     0.74301   0.45662   0.26566   0.00000  Uiso   1.00
C478   C     0.56258   0.37556   0.28919   0.00000  Uiso   1.00
C479   C     0.52431   0.38360   0.34191   0.00000  Uiso   1.00
C480   C     0.47195   0.40850   0.32619   0.00000  Uiso   1.00
C481   C     0.62314   0.29889   0.24591   0.00000  Uiso   1.00
C482   C     0.63577   0.24246   0.26224   0.00000  Uiso   1.00
C483   C     0.63437   0.20279   0.21007   0.00000  Uiso   1.00
H484   H     0.58668   0.39171   0.12190   0.00000  Uiso   1.00
H485   H     0.67224   0.46228   0.11461   0.00000  Uiso   1.00
H486   H     0.48626   0.42926   0.15614   0.00000  Uiso   1.00
H487   H     0.59770   0.28814   0.07647   0.00000  Uiso   1.00
H488   H     0.77305   0.53337   0.13568   0.00000  Uiso   1.00
H489   H     0.38091   0.46372   0.22324   0.00000  Uiso   1.00
H490   H     0.61591   0.16614   0.05526   0.00000  Uiso   1.00
H491   H     0.63269   0.33650   0.34649   0.00000  Uiso   1.00
H492   H     0.72078   0.40404   0.35153   0.00000  Uiso   1.00
H493   H     0.53480   0.37102   0.39305   0.00000  Uiso   1.00
H494   H     0.64624   0.22990   0.31339   0.00000  Uiso   1.00
H495   H     0.81245   0.48610   0.32797   0.00000  Uiso   1.00
H496   H     0.42030   0.41646   0.41553   0.00000  Uiso   1.00
H497   H     0.65530   0.11887   0.24755   0.00000  Uiso   1.00
O498   O     0.84986   0.55518   0.23110   0.00000  Uiso   1.00
O499   O     0.33538   0.46380   0.34597   0.00000  Uiso   1.00
O500   O     0.64369   0.07338   0.12557   0.00000  Uiso   1.00
N501   N     0.77024   0.51297   0.18024   0.00000  Uiso   1.00
N502   N     0.40362   0.44786   0.26211   0.00000  Uiso   1.00
N503   N     0.62330   0.16964   0.10506   0.00000  Uiso   1.00
N504   N     0.79144   0.48753   0.28371   0.00000  Uiso   1.00
N505   N     0.42481   0.42243   0.36558   0.00000  Uiso   1.00
N506   N     0.64450   0.14421   0.20853   0.00000  Uiso   1.00
C507   C     0.09722   0.87906   0.67335   0.00000  Uiso   1.00
C508   C     0.15009   0.90974   0.70053   0.00000  Uiso   1.00
C509   C     0.18273   0.94971   0.66575   0.00000  Uiso   1.00
C510   C     0.22945   0.97290   0.69945   0.00000  Uiso   1.00
C511   C     0.30947   0.02303   0.73161   0.00000  Uiso   1.00
C512   C     0.04905   0.89181   0.72310   0.00000  Uiso   1.00
C513   C     0.99673   0.91669   0.70729   0.00000  Uiso   1.00
C514   C     0.95839   0.92477   0.75998   0.00000  Uiso   1.00
C515   C     0.88152   0.94702   0.82717   0.00000  Uiso   1.00
C516   C     0.10960   0.81514   0.67981   0.00000  Uiso   1.00
C517   C     0.10818   0.77555   0.62761   0.00000  Uiso   1.00
C518   C     0.12081   0.71907   0.64386   0.00000  Uiso   1.00
C519   C     0.13796   0.62227   0.64384   0.00000  Uiso   1.00
C520   C     0.12215   0.84915   0.79503   0.00000  Uiso   1.00
C521   C     0.16363   0.89350   0.76663   0.00000  Uiso   1.00
C522   C     0.21031   0.91662   0.80038   0.00000  Uiso   1.00
C523   C     0.24301   0.95662   0.76566   0.00000  Uiso   1.00
C524   C     0.06258   0.87556   0.78919   0.00000  Uiso   1.00
C525   C     0.02431   0.88360   0.84191   0.00000  Uiso   1.00
C526   C     0.97195   0.90850   0.82619   0.00000  Uiso   1.00
C527   C     0.12314   0.79889   0.74591   0.00000  Uiso   1.00
C528   C     0.13577   0.74246   0.76224   0.00000  Uiso   1.00
C529   C     0.13437   0.70279   0.71007   0.00000  Uiso   1.00
H530   H     0.08668   0.89171   0.62190   0.00000  Uiso   1.00
H531   H     0.17224   0.96228   0.61461   0.00000  Uiso   1.00
H532   H     0.98626   0.92926   0.65614   0.00000  Uiso   1.00
H533   H     0.09770   0.78814   0.57647   0.00000  Uiso   1.00
H534   H     0.27305   0.03337   0.63568   0.00000  Uiso   1.00
H535   H     0.88091   0.96372   0.72324   0.00000  Uiso   1.00
H536   H     0.11591   0.66614   0.55526   0.00000  Uiso   1.00
H537   H     0.13269   0.83650   0.84649   0.00000  Uiso   1.00
H538   H     0.22078   0.90404   0.85153   0.00000  Uiso   1.00
H539   H     0.03480   0.87102   0.89305   0.00000  Uiso   1.00
H540   H     0.14624   0.72990   0.81339   0.00000  Uiso   1.00
H541   H     0.31245   0.98610   0.82797   0.00000  Uiso   1.00
H542   H     0.92030   0.91646   0.91553   0.00000  Uiso   1.00
H543   H     0.15530   0.61887   0.74755   0.00000  Uiso   1.00
O544   O     0.34986   0.05518   0.73110   0.00000  Uiso   1.00
O545   O     0.83538   0.96380   0.84597   0.00000  Uiso   1.00
O546   O     0.14369   0.57338   0.62557   0.00000  Uiso   1.00
N547   N     0.27024   0.01297   0.68024   0.00000  Uiso   1.00
N548   N     0.90362   0.94786   0.76211   0.00000  Uiso   1.00
N549   N     0.12330   0.66964   0.60506   0.00000  Uiso   1.00
N550   N     0.29144   0.98753   0.78371   0.00000  Uiso   1.00
N551   N     0.92481   0.92243   0.86558   0.00000  Uiso   1.00
N552   N     0.14450   0.64421   0.70853   0.00000  Uiso   1.00
C553   C     0.37906   0.90278   0.42335   0.00000  Uiso   1.00
C554   C     0.40974   0.84991   0.45053   0.00000  Uiso   1.00
C555   C     0.44971   0.81727   0.41575   0.00000  Uiso   1.00
C556   C     0.47290   0.77055   0.44945   0.00000  Uiso   1.00
C557   C     0.52303   0.69053   0.48161   0.00000  Uiso   1.00
C558   C     0.39181   0.95095   0.47310   0.00000  Uiso   1.00
C559   C     0.41669   0.00327   0.45729   0.00000  Uiso   1.00
C560   C     0.42477   0.04161   0.50998   0.00000  Uiso   1.00
C561   C     0.44702   0.11848   0.57717   0.00000  Uiso   1.00
C562   C     0.31514   0.89040   0.42981   0.00000  Uiso   1.00
C563   C     0.27555   0.89182   0.37761   0.00000  Uiso   1.00
C564   C     0.21907   0.87919   0.39386   0.00000  Uiso   1.00
C565   C     0.12227   0.86204   0.39384   0.00000  Uiso   1.00
C566   C     0.34915   0.87785   0.54503   0.00000  Uiso   1.00
C567   C     0.39350   0.83637   0.51663   0.00000  Uiso   1.00
C568   C     0.41662   0.78969   0.55038   0.00000  Uiso   1.00
C569   C     0.45662   0.75699   0.51566   0.00000  Uiso   1.00
C570   C     0.37556   0.93742   0.53919   0.00000  Uiso   1.00
C571   C     0.38360   0.97569   0.59191   0.00000  Uiso   1.00
C572   C     0.40850   0.02805   0.57619   0.00000  Uiso   1.00
C573   C     0.29889   0.87686   0.49591   0.00000  Uiso   1.00
C574   C     0.24246   0.86423   0.51224   0.00000  Uiso   1.00
C575   C     0.20279   0.86563   0.46007   0.00000  Uiso   1.00
H576   H     0.39171   0.91332   0.37190   0.00000  Uiso   1.00
H577   H     0.46228   0.82776   0.36461   0.00000  Uiso   1.00
H578   H     0.42926   0.01374   0.40614   0.00000  Uiso   1.00
H579   H     0.28814   0.90230   0.32647   0.00000  Uiso   1.00
H580   H     0.53337   0.72695   0.38568   0.00000  Uiso   1.00
H581   H     0.46372   0.11909   0.47324   0.00000  Uiso   1.00
H582   H     0.16614   0.88409   0.30526   0.00000  Uiso   1.00
H583   H     0.33650   0.86731   0.59649   0.00000  Uiso   1.00
H584   H     0.40404   0.77922   0.60153   0.00000  Uiso   1.00
H585   H     0.37102   0.96520   0.64305   0.00000  Uiso   1.00
H586   H     0.22990   0.85376   0.56339   0.00000  Uiso   1.00
H587   H     0.48610   0.68755   0.57797   0.00000  Uiso   1.00
H588   H     0.41646   0.07970   0.66553   0.00000  Uiso   1.00
H589   H     0.11887   0.84470   0.49755   0.00000  Uiso   1.00
O590   O     0.55518   0.65014   0.48110   0.00000  Uiso   1.00
O591   O     0.46380   0.16462   0.59597   0.00000  Uiso   1.00
O592   O     0.07338   0.85631   0.37557   0.00000  Uiso   1.00
N593   N     0.51297   0.72976   0.43024   0.00000  Uiso   1.00
N594   N     0.44786   0.09638   0.51211   0.00000  Uiso   1.00
N595   N     0.16964   0.87670   0.35506   0.00000  Uiso   1.00
N596   N     0.48753   0.70856   0.53371   0.00000  Uiso   1.00
N597   N     0.42243   0.07519   0.61558   0.00000  Uiso   1.00
N598   N     0.14421   0.85550   0.45853   0.00000  Uiso   1.00
C599   C     0.87906   0.40278   0.92335   0.00000  Uiso   1.00
C600   C     0.90974   0.34991   0.95053   0.00000  Uiso   1.00
C601   C     0.94971   0.31727   0.91575   0.00000  Uiso   1.00
C602   C     0.97290   0.27055   0.94945   0.00000  Uiso   1.00
C603   C     0.02303   0.19053   0.98161   0.00000  Uiso   1.00
C604   C     0.89181   0.45095   0.97310   0.00000  Uiso   1.00
C605   C     0.91669   0.50327   0.95729   0.00000  Uiso   1.00
C606   C     0.92477   0.54161   0.00998   0.00000  Uiso   1.00
C607   C     0.94702   0.61848   0.07717   0.00000  Uiso   1.00
C608   C     0.81514   0.39040   0.92981   0.00000  Uiso   1.00
C609   C     0.77555   0.39182   0.87761   0.00000  Uiso   1.00
C610   C     0.71907   0.37919   0.89386   0.00000  Uiso   1.00
C611   C     0.62227   0.36204   0.89384   0.00000  Uiso   1.00
C612   C     0.84915   0.37785   0.04503   0.00000  Uiso   1.00
C613   C     0.89350   0.33637   0.01663   0.00000  Uiso   1.00
C614   C     0.91662   0.28969   0.05038   0.00000  Uiso   1.00
C615   C     0.95662   0.25699   0.01566   0.00000  Uiso   1.00
C616   C     0.87556   0.43742   0.03919   0.00000  Uiso   1.00
C617   C     0.88360   0.47569   0.09191   0.00000  Uiso   1.00
C618   C     0.90850   0.52805   0.07619   0.00000  Uiso   1.00
C619   C     0.79889   0.37686   0.99591   0.00000  Uiso   1.00
C620   C     0.74246   0.36423   0.01224   0.00000  Uiso   1.00
C621   C     0.70279   0.36563   0.96007   0.00000  Uiso   1.00
H622   H     0.89171   0.41332   0.87190   0.00000  Uiso   1.00
H623   H     0.96228   0.32776   0.86461   0.00000  Uiso   1.00
H624   H     0.92926   0.51374   0.90614   0.00000  Uiso   1.00
H625   H     0.78814   0.40230   0.82647   0.00000  Uiso   1.00
H626   H     0.03337   0.22695   0.88568   0.00000  Uiso   1.00
H627   H     0.96372   0.61909   0.97324   0.00000  Uiso   1.00
H628   H     0.66614   0.38409   0.80526   0.00000  Uiso   1.00
H629   H     0.83650   0.36731   0.09649   0.00000  Uiso   1.00
H630   H     0.90404   0.27922   0.10153   0.00000  Uiso   1.00
H631   H     0.87102   0.46520   0.14305   0.00000  Uiso   1.00
H632   H     0.72990   0.35376   0.06339   0.00000  Uiso   1.00
H633   H     0.98610   0.18755   0.07797   0.00000  Uiso   1.00
H634   H     0.91646   0.57970   0.16553   0.00000  Uiso   1.00
H635   H     0.61887   0.34470   0.99755   0.00000  Uiso   1.00
O636   O     0.05518   0.15014   0.98110   0.00000  Uiso   1.00
O637   O     0.96380   0.66462   0.09597   0.00000  Uiso   1.00
O638   O     0.57338   0.35631   0.87557   0.00000  Uiso   1.00
N639   N     0.01297   0.22976   0.93024   0.00000  Uiso   1.00
N640   N     0.94786   0.59638   0.01211   0.00000  Uiso   1.00
N641   N     0.66964   0.37670   0.85506   0.00000  Uiso   1.00
N642   N     0.98753   0.20856   0.03371   0.00000  Uiso   1.00
N643   N     0.92243   0.57519   0.11558   0.00000  Uiso   1.00
N644   N     0.64421   0.35550   0.95853   0.00000  Uiso   1.00
C645   C     0.12094   0.59722   0.92335   0.00000  Uiso   1.00
C646   C     0.09026   0.65009   0.95053   0.00000  Uiso   1.00
C647   C     0.05029   0.68273   0.91575   0.00000  Uiso   1.00
C648   C     0.02710   0.72945   0.94945   0.00000  Uiso   1.00
C649   C     0.97697   0.80947   0.98161   0.00000  Uiso   1.00
C650   C     0.10819   0.54905   0.97310   0.00000  Uiso   1.00
C651   C     0.08331   0.49673   0.95729   0.00000  Uiso   1.00
C652   C     0.07523   0.45839   0.00998   0.00000  Uiso   1.00
C653   C     0.05298   0.38152   0.07717   0.00000  Uiso   1.00
C654   C     0.18486   0.60960   0.92981   0.00000  Uiso   1.00
C655   C     0.22445   0.60818   0.87761   0.00000  Uiso   1.00
C656   C     0.28093   0.62081   0.89386   0.00000  Uiso   1.00
C657   C     0.37773   0.63796   0.89384   0.00000  Uiso   1.00
C658   C     0.15085   0.62215   0.04503   0.00000  Uiso   1.00
C659   C     0.10650   0.66363   0.01663   0.00000  Uiso   1.00
C660   C     0.08338   0.71031   0.05038   0.00000  Uiso   1.00
C661   C     0.04338   0.74301   0.01566   0.00000  Uiso   1.00
C662   C     0.12444   0.56258   0.03919   0.00000  Uiso   1.00
C663   C     0.11640   0.52431   0.09191   0.00000  Uiso   1.00
C664   C     0.09150   0.47195   0.07619   0.00000  Uiso   1.00
C665   C     0.20111   0.62314   0.99591   0.00000  Uiso   1.00
C666   C     0.25754   0.63577   0.01224   0.00000  Uiso   1.00
C667   C     0.29721   0.63437   0.96007   0.00000  Uiso   1.00
H668   H     0.10829   0.58668   0.87190   0.00000  Uiso   1.00
H669   H     0.03772   0.67224   0.86461   0.00000  Uiso   1.00
H670   H     0.07074   0.48626   0.90614   0.00000  Uiso   1.00
H671   H     0.21186   0.59770   0.82647   0.00000  Uiso   1.00
H672   H     0.96663   0.77305   0.88568   0.00000  Uiso   1.00
H673   H     0.03628   0.38091   0.97324   0.00000  Uiso   1.00
H674   H     0.33386   0.61591   0.80526   0.00000  Uiso   1.00
H675   H     0.16350   0.63269   0.09649   0.00000  Uiso   1.00
H676   H     0.09596   0.72078   0.10153   0.00000  Uiso   1.00
H677   H     0.12898   0.53480   0.14305   0.00000  Uiso   1.00
H678   H     0.27010   0.64624   0.06339   0.00000  Uiso   1.00
H679   H     0.01390   0.81245   0.07797   0.00000  Uiso   1.00
H680   H     0.08354   0.42030   0.16553   0.00000  Uiso   1.00
H681   H     0.38113   0.65530   0.99755   0.00000  Uiso   1.00
O682   O     0.94482   0.84986   0.98110   0.00000  Uiso   1.00
O683   O     0.03620   0.33538   0.09597   0.00000  Uiso   1.00
O684   O     0.42662   0.64369   0.87557   0.00000  Uiso   1.00
N685   N     0.98703   0.77024   0.93024   0.00000  Uiso   1.00
N686   N     0.05214   0.40362   0.01211   0.00000  Uiso   1.00
N687   N     0.33036   0.62330   0.85506   0.00000  Uiso   1.00
N688   N     0.01247   0.79144   0.03371   0.00000  Uiso   1.00
N689   N     0.07757   0.42481   0.11558   0.00000  Uiso   1.00
N690   N     0.35579   0.64450   0.95853   0.00000  Uiso   1.00
C691   C     0.62094   0.09722   0.42335   0.00000  Uiso   1.00
C692   C     0.59026   0.15009   0.45053   0.00000  Uiso   1.00
C693   C     0.55029   0.18273   0.41575   0.00000  Uiso   1.00
C694   C     0.52710   0.22945   0.44945   0.00000  Uiso   1.00
C695   C     0.47697   0.30947   0.48161   0.00000  Uiso   1.00
C696   C     0.60819   0.04905   0.47310   0.00000  Uiso   1.00
C697   C     0.58331   0.99673   0.45729   0.00000  Uiso   1.00
C698   C     0.57523   0.95839   0.50998   0.00000  Uiso   1.00
C699   C     0.55298   0.88152   0.57717   0.00000  Uiso   1.00
C700   C     0.68486   0.10960   0.42981   0.00000  Uiso   1.00
C701   C     0.72445   0.10818   0.37761   0.00000  Uiso   1.00
C702   C     0.78093   0.12081   0.39386   0.00000  Uiso   1.00
C703   C     0.87773   0.13796   0.39384   0.00000  Uiso   1.00
C704   C     0.65085   0.12215   0.54503   0.00000  Uiso   1.00
C705   C     0.60650   0.16363   0.51663   0.00000  Uiso   1.00
C706   C     0.58338   0.21031   0.55038   0.00000  Uiso   1.00
C707   C     0.54338   0.24301   0.51566   0.00000  Uiso   1.00
C708   C     0.62444   0.06258   0.53919   0.00000  Uiso   1.00
C709   C     0.61640   0.02431   0.59191   0.00000  Uiso   1.00
C710   C     0.59150   0.97195   0.57619   0.00000  Uiso   1.00
C711   C     0.70111   0.12314   0.49591   0.00000  Uiso   1.00
C712   C     0.75754   0.13577   0.51224   0.00000  Uiso   1.00
C713   C     0.79721   0.13437   0.46007   0.00000  Uiso   1.00
H714   H     0.60829   0.08668   0.37190   0.00000  Uiso   1.00
H715   H     0.53772   0.17224   0.36461   0.00000  Uiso   1.00
H716   H     0.57074   0.98626   0.40614   0.00000  Uiso   1.00
H717   H     0.71186   0.09770   0.32647   0.00000  Uiso   1.00
H718   H     0.46663   0.27305   0.38568   0.00000  Uiso   1.00
H719   H     0.53628   0.88091   0.47324   0.00000  Uiso   1.00
H720   H     0.83386   0.11591   0.30526   0.00000  Uiso   1.00
H721   H     0.66350   0.13269   0.59649   0.00000  Uiso   1.00
H722   H     0.59596   0.22078   0.60153   0.00000  Uiso   1.00
H723   H     0.62898   0.03480   0.64305   0.00000  Uiso   1.00
H724   H     0.77010   0.14624   0.56339   0.00000  Uiso   1.00
H725   H     0.51390   0.31245   0.57797   0.00000  Uiso   1.00
H726   H     0.58354   0.92030   0.66553   0.00000  Uiso   1.00
H727   H     0.88113   0.15530   0.49755   0.00000  Uiso   1.00
O728   O     0.44482   0.34986   0.48110   0.00000  Uiso   1.00
O729   O     0.53620   0.83538   0.59597   0.00000  Uiso   1.00
O730   O     0.92662   0.14369   0.37557   0.00000  Uiso   1.00
N731   N     0.48703   0.27024   0.43024   0.00000  Uiso   1.00
N732   N     0.55214   0.90362   0.51211   0.00000  Uiso   1.00
N733   N     0.83036   0.12330   0.35506   0.00000  Uiso   1.00
N734   N     0.51247   0.29144   0.53371   0.00000  Uiso   1.00
N735   N     0.57757   0.92481   0.61558   0.00000  Uiso   1.00
N736   N     0.85579   0.14450   0.45853   0.00000  Uiso   1.00
