data_job_03118
_audit_creation_date              2018-12-19
_audit_creation_method            'Materials Studio'
_symmetry_space_group_name_H-M    'P1'
_symmetry_Int_Tables_number       1
_symmetry_cell_setting            triclinic
loop_
_symmetry_equiv_pos_as_xyz
  x,y,z
_cell_length_a                    24.5222
_cell_length_b                    23.7551
_cell_length_c                    20.8798
_cell_angle_alpha                 90.0000
_cell_angle_beta                  90.0000
_cell_angle_gamma                 90.0000
loop_
_atom_site_label
_atom_site_type_symbol
_atom_site_fract_x
_atom_site_fract_y
_atom_site_fract_z
_atom_site_U_iso_or_equiv
_atom_site_adp_type
_atom_site_occupancy
C1     C     0.66205   0.82417   0.35019   0.00000  Uiso   1.00
C2     C     0.65932   0.85805   0.28823   0.00000  Uiso   1.00
C3     C     0.64212   0.83785   0.22923   0.00000  Uiso   1.00
C4     C     0.64262   0.87550   0.17836   0.00000  Uiso   1.00
C5     C     0.63581   0.91960   0.08095   0.00000  Uiso   1.00
C6     C     0.72081   0.82862   0.37354   0.00000  Uiso   1.00
C7     C     0.75532   0.78368   0.38626   0.00000  Uiso   1.00
C8     C     0.80758   0.79655   0.40722   0.00000  Uiso   1.00
C9     C     0.89623   0.79496   0.44230   0.00000  Uiso   1.00
C10    C     0.62759   0.85626   0.39879   0.00000  Uiso   1.00
C11    C     0.58372   0.83457   0.43276   0.00000  Uiso   1.00
C12    C     0.55751   0.87072   0.47499   0.00000  Uiso   1.00
C13    C     0.50141   0.91206   0.54927   0.00000  Uiso   1.00
C14    C     0.69352   0.92693   0.36479   0.00000  Uiso   1.00
C15    C     0.67641   0.91386   0.29617   0.00000  Uiso   1.00
C16    C     0.67694   0.95155   0.24538   0.00000  Uiso   1.00
C17    C     0.65975   0.93141   0.18631   0.00000  Uiso   1.00
C18    C     0.73791   0.88443   0.38147   0.00000  Uiso   1.00
C19    C     0.79014   0.89737   0.40242   0.00000  Uiso   1.00
C20    C     0.82471   0.85246   0.41517   0.00000  Uiso   1.00
C21    C     0.64468   0.91208   0.40672   0.00000  Uiso   1.00
C22    C     0.61854   0.94827   0.44891   0.00000  Uiso   1.00
C23    C     0.57464   0.92663   0.48294   0.00000  Uiso   1.00
H24    H     0.64874   0.78071   0.34401   0.00000  Uiso   1.00
H25    H     0.62890   0.79465   0.22311   0.00000  Uiso   1.00
H26    H     0.74207   0.74049   0.38013   0.00000  Uiso   1.00
H27    H     0.57050   0.79137   0.42661   0.00000  Uiso   1.00
H28    H     0.61446   0.83472   0.09255   0.00000  Uiso   1.00
H29    H     0.85309   0.72050   0.42366   0.00000  Uiso   1.00
H30    H     0.49130   0.82781   0.52168   0.00000  Uiso   1.00
H31    H     0.70683   0.97039   0.37096   0.00000  Uiso   1.00
H32    H     0.69017   0.99474   0.25153   0.00000  Uiso   1.00
H33    H     0.80335   0.94057   0.40855   0.00000  Uiso   1.00
H34    H     0.63178   0.99146   0.45504   0.00000  Uiso   1.00
H35    H     0.66419   0.99711   0.11562   0.00000  Uiso   1.00
H36    H     0.90282   0.88290   0.44673   0.00000  Uiso   1.00
H37    H     0.54103   0.99020   0.54475   0.00000  Uiso   1.00
O38    O     0.62733   0.92851   0.02503   0.00000  Uiso   1.00
O39    O     0.94040   0.77866   0.45944   0.00000  Uiso   1.00
O40    O     0.46574   0.91944   0.58804   0.00000  Uiso   1.00
N41    N     0.62844   0.86960   0.11437   0.00000  Uiso   1.00
N42    N     0.85154   0.76281   0.42393   0.00000  Uiso   1.00
N43    N     0.51331   0.86313   0.51559   0.00000  Uiso   1.00
N44    N     0.65520   0.95698   0.12679   0.00000  Uiso   1.00
N45    N     0.87830   0.85020   0.43635   0.00000  Uiso   1.00
N46    N     0.54007   0.95052   0.52800   0.00000  Uiso   1.00
C47    C     0.40638   0.82477   0.10765   0.00000  Uiso   1.00
C48    C     0.41095   0.86212   0.16681   0.00000  Uiso   1.00
C49    C     0.43029   0.84542   0.22631   0.00000  Uiso   1.00
C50    C     0.43123   0.88588   0.27428   0.00000  Uiso   1.00
C51    C     0.44102   0.93548   0.36785   0.00000  Uiso   1.00
C52    C     0.34684   0.82755   0.08682   0.00000  Uiso   1.00
C53    C     0.31227   0.78180   0.07907   0.00000  Uiso   1.00
C54    C     0.25924   0.79316   0.05970   0.00000  Uiso   1.00
C55    C     0.16949   0.78910   0.02904   0.00000  Uiso   1.00
C56    C     0.43891   0.85421   0.05520   0.00000  Uiso   1.00
C57    C     0.48176   0.83086   0.02084   0.00000  Uiso   1.00
C58    C     0.50624   0.86467   0.97484   0.00000  Uiso   1.00
C59    C     0.55945   0.90200   0.89508   0.00000  Uiso   1.00
C60    C     0.37365   0.92631   0.08703   0.00000  Uiso   1.00
C61    C     0.39318   0.91727   0.15561   0.00000  Uiso   1.00
C62    C     0.39409   0.95776   0.20350   0.00000  Uiso   1.00
C63    C     0.41343   0.94113   0.26307   0.00000  Uiso   1.00
C64    C     0.32906   0.88270   0.07562   0.00000  Uiso   1.00
C65    C     0.27607   0.89414   0.05626   0.00000  Uiso   1.00
C66    C     0.24143   0.84841   0.04848   0.00000  Uiso   1.00
C67    C     0.42114   0.90937   0.04400   0.00000  Uiso   1.00
C68    C     0.44555   0.94321   0.99804   0.00000  Uiso   1.00
C69    C     0.48843   0.91992   0.96362   0.00000  Uiso   1.00
H70    H     0.42021   0.78183   0.11637   0.00000  Uiso   1.00
H71    H     0.44404   0.80273   0.23496   0.00000  Uiso   1.00
H72    H     0.32604   0.73912   0.08773   0.00000  Uiso   1.00
H73    H     0.49550   0.78818   0.02952   0.00000  Uiso   1.00
H74    H     0.46260   0.85023   0.36151   0.00000  Uiso   1.00
H75    H     0.21379   0.71610   0.05105   0.00000  Uiso   1.00
H76    H     0.57114   0.81955   0.92830   0.00000  Uiso   1.00
H77    H     0.35982   0.96925   0.07831   0.00000  Uiso   1.00
H78    H     0.38033   0.00044   0.19482   0.00000  Uiso   1.00
H79    H     0.26233   0.93683   0.04759   0.00000  Uiso   1.00
H80    H     0.43179   0.98589   0.98938   0.00000  Uiso   1.00
H81    H     0.41089   0.01070   0.32893   0.00000  Uiso   1.00
H82    H     0.16208   0.87656   0.01847   0.00000  Uiso   1.00
H83    H     0.51942   0.98002   0.89572   0.00000  Uiso   1.00
O84    O     0.45132   0.94760   0.42255   0.00000  Uiso   1.00
O85    O     0.12489   0.77162   0.01523   0.00000  Uiso   1.00
O86    O     0.59372   0.90735   0.85419   0.00000  Uiso   1.00
N87    N     0.44763   0.88372   0.33785   0.00000  Uiso   1.00
N88    N     0.21500   0.75831   0.04760   0.00000  Uiso   1.00
N89    N     0.54908   0.85503   0.93282   0.00000  Uiso   1.00
N90    N     0.41980   0.97006   0.32032   0.00000  Uiso   1.00
N91    N     0.18718   0.84466   0.03007   0.00000  Uiso   1.00
N92    N     0.52125   0.94138   0.91529   0.00000  Uiso   1.00
C93    C     0.83795   0.17583   0.35019   0.00000  Uiso   1.00
C94    C     0.84068   0.14195   0.28823   0.00000  Uiso   1.00
C95    C     0.85788   0.16215   0.22923   0.00000  Uiso   1.00
C96    C     0.85738   0.12450   0.17836   0.00000  Uiso   1.00
C97    C     0.86419   0.08040   0.08095   0.00000  Uiso   1.00
C98    C     0.77919   0.17138   0.37354   0.00000  Uiso   1.00
C99    C     0.74468   0.21632   0.38626   0.00000  Uiso   1.00
C100   C     0.69242   0.20345   0.40722   0.00000  Uiso   1.00
C101   C     0.60377   0.20504   0.44230   0.00000  Uiso   1.00
C102   C     0.87241   0.14374   0.39879   0.00000  Uiso   1.00
C103   C     0.91628   0.16543   0.43276   0.00000  Uiso   1.00
C104   C     0.94249   0.12928   0.47499   0.00000  Uiso   1.00
C105   C     0.99859   0.08794   0.54927   0.00000  Uiso   1.00
C106   C     0.80648   0.07307   0.36479   0.00000  Uiso   1.00
C107   C     0.82359   0.08614   0.29617   0.00000  Uiso   1.00
C108   C     0.82306   0.04845   0.24538   0.00000  Uiso   1.00
C109   C     0.84025   0.06859   0.18631   0.00000  Uiso   1.00
C110   C     0.76209   0.11557   0.38147   0.00000  Uiso   1.00
C111   C     0.70986   0.10263   0.40242   0.00000  Uiso   1.00
C112   C     0.67529   0.14754   0.41517   0.00000  Uiso   1.00
C113   C     0.85532   0.08792   0.40672   0.00000  Uiso   1.00
C114   C     0.88146   0.05173   0.44891   0.00000  Uiso   1.00
C115   C     0.92536   0.07337   0.48294   0.00000  Uiso   1.00
H116   H     0.85126   0.21929   0.34401   0.00000  Uiso   1.00
H117   H     0.87110   0.20535   0.22311   0.00000  Uiso   1.00
H118   H     0.75793   0.25951   0.38013   0.00000  Uiso   1.00
H119   H     0.92950   0.20863   0.42661   0.00000  Uiso   1.00
H120   H     0.88554   0.16528   0.09255   0.00000  Uiso   1.00
H121   H     0.64691   0.27950   0.42366   0.00000  Uiso   1.00
H122   H     0.00870   0.17219   0.52168   0.00000  Uiso   1.00
H123   H     0.79317   0.02961   0.37096   0.00000  Uiso   1.00
H124   H     0.80983   0.00526   0.25153   0.00000  Uiso   1.00
H125   H     0.69665   0.05943   0.40855   0.00000  Uiso   1.00
H126   H     0.86822   0.00854   0.45504   0.00000  Uiso   1.00
H127   H     0.83581   0.00289   0.11562   0.00000  Uiso   1.00
H128   H     0.59718   0.11710   0.44673   0.00000  Uiso   1.00
H129   H     0.95897   0.00980   0.54475   0.00000  Uiso   1.00
O130   O     0.87267   0.07149   0.02503   0.00000  Uiso   1.00
O131   O     0.55960   0.22134   0.45944   0.00000  Uiso   1.00
O132   O     0.03426   0.08056   0.58804   0.00000  Uiso   1.00
N133   N     0.87156   0.13040   0.11437   0.00000  Uiso   1.00
N134   N     0.64846   0.23719   0.42393   0.00000  Uiso   1.00
N135   N     0.98669   0.13687   0.51559   0.00000  Uiso   1.00
N136   N     0.84480   0.04302   0.12679   0.00000  Uiso   1.00
N137   N     0.62170   0.14980   0.43635   0.00000  Uiso   1.00
N138   N     0.95993   0.04948   0.52800   0.00000  Uiso   1.00
C139   C     0.09362   0.17523   0.10765   0.00000  Uiso   1.00
C140   C     0.08905   0.13788   0.16681   0.00000  Uiso   1.00
C141   C     0.06971   0.15458   0.22631   0.00000  Uiso   1.00
C142   C     0.06877   0.11412   0.27428   0.00000  Uiso   1.00
C143   C     0.05898   0.06452   0.36785   0.00000  Uiso   1.00
C144   C     0.15316   0.17245   0.08682   0.00000  Uiso   1.00
C145   C     0.18773   0.21820   0.07907   0.00000  Uiso   1.00
C146   C     0.24076   0.20684   0.05970   0.00000  Uiso   1.00
C147   C     0.33051   0.21090   0.02904   0.00000  Uiso   1.00
C148   C     0.06109   0.14579   0.05520   0.00000  Uiso   1.00
C149   C     0.01824   0.16914   0.02084   0.00000  Uiso   1.00
C150   C     0.99376   0.13533   0.97484   0.00000  Uiso   1.00
C151   C     0.94055   0.09800   0.89508   0.00000  Uiso   1.00
C152   C     0.12635   0.07369   0.08703   0.00000  Uiso   1.00
C153   C     0.10682   0.08273   0.15561   0.00000  Uiso   1.00
C154   C     0.10591   0.04224   0.20350   0.00000  Uiso   1.00
C155   C     0.08657   0.05887   0.26307   0.00000  Uiso   1.00
C156   C     0.17094   0.11730   0.07562   0.00000  Uiso   1.00
C157   C     0.22393   0.10586   0.05626   0.00000  Uiso   1.00
C158   C     0.25857   0.15159   0.04848   0.00000  Uiso   1.00
C159   C     0.07886   0.09063   0.04400   0.00000  Uiso   1.00
C160   C     0.05445   0.05679   0.99804   0.00000  Uiso   1.00
C161   C     0.01157   0.08008   0.96362   0.00000  Uiso   1.00
H162   H     0.07979   0.21817   0.11637   0.00000  Uiso   1.00
H163   H     0.05596   0.19727   0.23496   0.00000  Uiso   1.00
H164   H     0.17396   0.26088   0.08773   0.00000  Uiso   1.00
H165   H     0.00450   0.21182   0.02952   0.00000  Uiso   1.00
H166   H     0.03740   0.14977   0.36151   0.00000  Uiso   1.00
H167   H     0.28621   0.28390   0.05105   0.00000  Uiso   1.00
H168   H     0.92886   0.18045   0.92830   0.00000  Uiso   1.00
H169   H     0.14018   0.03075   0.07831   0.00000  Uiso   1.00
H170   H     0.11967   0.99956   0.19482   0.00000  Uiso   1.00
H171   H     0.23767   0.06317   0.04759   0.00000  Uiso   1.00
H172   H     0.06821   0.01411   0.98938   0.00000  Uiso   1.00
H173   H     0.08911   0.98930   0.32893   0.00000  Uiso   1.00
H174   H     0.33792   0.12344   0.01847   0.00000  Uiso   1.00
H175   H     0.98058   0.01998   0.89572   0.00000  Uiso   1.00
O176   O     0.04868   0.05240   0.42255   0.00000  Uiso   1.00
O177   O     0.37511   0.22838   0.01523   0.00000  Uiso   1.00
O178   O     0.90628   0.09265   0.85419   0.00000  Uiso   1.00
N179   N     0.05237   0.11628   0.33785   0.00000  Uiso   1.00
N180   N     0.28500   0.24169   0.04760   0.00000  Uiso   1.00
N181   N     0.95092   0.14497   0.93282   0.00000  Uiso   1.00
N182   N     0.08020   0.02994   0.32032   0.00000  Uiso   1.00
N183   N     0.31282   0.15534   0.03007   0.00000  Uiso   1.00
N184   N     0.97875   0.05862   0.91529   0.00000  Uiso   1.00
C185   C     0.83795   0.32417   0.14981   0.00000  Uiso   1.00
C186   C     0.84068   0.35805   0.21177   0.00000  Uiso   1.00
C187   C     0.85788   0.33785   0.27077   0.00000  Uiso   1.00
C188   C     0.85738   0.37550   0.32164   0.00000  Uiso   1.00
C189   C     0.86419   0.41960   0.41905   0.00000  Uiso   1.00
C190   C     0.77919   0.32862   0.12646   0.00000  Uiso   1.00
C191   C     0.74468   0.28368   0.11374   0.00000  Uiso   1.00
C192   C     0.69242   0.29655   0.09278   0.00000  Uiso   1.00
C193   C     0.60377   0.29496   0.05770   0.00000  Uiso   1.00
C194   C     0.87241   0.35626   0.10121   0.00000  Uiso   1.00
C195   C     0.91628   0.33457   0.06724   0.00000  Uiso   1.00
C196   C     0.94249   0.37072   0.02501   0.00000  Uiso   1.00
C197   C     0.99859   0.41206   0.95073   0.00000  Uiso   1.00
C198   C     0.80648   0.42693   0.13521   0.00000  Uiso   1.00
C199   C     0.82359   0.41386   0.20383   0.00000  Uiso   1.00
C200   C     0.82306   0.45155   0.25462   0.00000  Uiso   1.00
C201   C     0.84025   0.43141   0.31369   0.00000  Uiso   1.00
C202   C     0.76209   0.38443   0.11853   0.00000  Uiso   1.00
C203   C     0.70986   0.39737   0.09758   0.00000  Uiso   1.00
C204   C     0.67529   0.35246   0.08483   0.00000  Uiso   1.00
C205   C     0.85532   0.41208   0.09328   0.00000  Uiso   1.00
C206   C     0.88146   0.44827   0.05109   0.00000  Uiso   1.00
C207   C     0.92536   0.42663   0.01706   0.00000  Uiso   1.00
H208   H     0.85126   0.28071   0.15599   0.00000  Uiso   1.00
H209   H     0.87110   0.29465   0.27689   0.00000  Uiso   1.00
H210   H     0.75793   0.24049   0.11987   0.00000  Uiso   1.00
H211   H     0.92950   0.29137   0.07339   0.00000  Uiso   1.00
H212   H     0.88554   0.33472   0.40745   0.00000  Uiso   1.00
H213   H     0.64691   0.22050   0.07634   0.00000  Uiso   1.00
H214   H     0.00870   0.32781   0.97832   0.00000  Uiso   1.00
H215   H     0.79317   0.47039   0.12904   0.00000  Uiso   1.00
H216   H     0.80983   0.49474   0.24847   0.00000  Uiso   1.00
H217   H     0.69665   0.44057   0.09145   0.00000  Uiso   1.00
H218   H     0.86822   0.49146   0.04496   0.00000  Uiso   1.00
H219   H     0.83581   0.49711   0.38438   0.00000  Uiso   1.00
H220   H     0.59718   0.38290   0.05327   0.00000  Uiso   1.00
H221   H     0.95897   0.49020   0.95525   0.00000  Uiso   1.00
O222   O     0.87267   0.42851   0.47497   0.00000  Uiso   1.00
O223   O     0.55960   0.27866   0.04056   0.00000  Uiso   1.00
O224   O     0.03426   0.41944   0.91196   0.00000  Uiso   1.00
N225   N     0.87156   0.36960   0.38563   0.00000  Uiso   1.00
N226   N     0.64846   0.26281   0.07607   0.00000  Uiso   1.00
N227   N     0.98669   0.36313   0.98441   0.00000  Uiso   1.00
N228   N     0.84480   0.45698   0.37321   0.00000  Uiso   1.00
N229   N     0.62170   0.35020   0.06365   0.00000  Uiso   1.00
N230   N     0.95993   0.45052   0.97200   0.00000  Uiso   1.00
C231   C     0.09362   0.32477   0.39235   0.00000  Uiso   1.00
C232   C     0.08905   0.36212   0.33319   0.00000  Uiso   1.00
C233   C     0.06971   0.34542   0.27369   0.00000  Uiso   1.00
C234   C     0.06877   0.38588   0.22572   0.00000  Uiso   1.00
C235   C     0.05898   0.43548   0.13215   0.00000  Uiso   1.00
C236   C     0.15316   0.32755   0.41318   0.00000  Uiso   1.00
C237   C     0.18773   0.28180   0.42093   0.00000  Uiso   1.00
C238   C     0.24076   0.29316   0.44030   0.00000  Uiso   1.00
C239   C     0.33051   0.28910   0.47096   0.00000  Uiso   1.00
C240   C     0.06109   0.35421   0.44480   0.00000  Uiso   1.00
C241   C     0.01824   0.33086   0.47916   0.00000  Uiso   1.00
C242   C     0.99376   0.36467   0.52516   0.00000  Uiso   1.00
C243   C     0.94055   0.40200   0.60492   0.00000  Uiso   1.00
C244   C     0.12635   0.42631   0.41297   0.00000  Uiso   1.00
C245   C     0.10682   0.41727   0.34439   0.00000  Uiso   1.00
C246   C     0.10591   0.45776   0.29650   0.00000  Uiso   1.00
C247   C     0.08657   0.44113   0.23693   0.00000  Uiso   1.00
C248   C     0.17094   0.38270   0.42438   0.00000  Uiso   1.00
C249   C     0.22393   0.39414   0.44374   0.00000  Uiso   1.00
C250   C     0.25857   0.34841   0.45152   0.00000  Uiso   1.00
C251   C     0.07886   0.40937   0.45600   0.00000  Uiso   1.00
C252   C     0.05445   0.44321   0.50196   0.00000  Uiso   1.00
C253   C     0.01157   0.41992   0.53638   0.00000  Uiso   1.00
H254   H     0.07979   0.28183   0.38363   0.00000  Uiso   1.00
H255   H     0.05596   0.30273   0.26504   0.00000  Uiso   1.00
H256   H     0.17396   0.23912   0.41227   0.00000  Uiso   1.00
H257   H     0.00450   0.28818   0.47048   0.00000  Uiso   1.00
H258   H     0.03740   0.35023   0.13849   0.00000  Uiso   1.00
H259   H     0.28621   0.21610   0.44895   0.00000  Uiso   1.00
H260   H     0.92886   0.31955   0.57170   0.00000  Uiso   1.00
H261   H     0.14018   0.46925   0.42169   0.00000  Uiso   1.00
H262   H     0.11967   0.50044   0.30518   0.00000  Uiso   1.00
H263   H     0.23767   0.43683   0.45241   0.00000  Uiso   1.00
H264   H     0.06821   0.48589   0.51062   0.00000  Uiso   1.00
H265   H     0.08911   0.51070   0.17107   0.00000  Uiso   1.00
H266   H     0.33792   0.37656   0.48153   0.00000  Uiso   1.00
H267   H     0.98058   0.48002   0.60428   0.00000  Uiso   1.00
O268   O     0.04868   0.44760   0.07745   0.00000  Uiso   1.00
O269   O     0.37511   0.27162   0.48477   0.00000  Uiso   1.00
O270   O     0.90628   0.40735   0.64581   0.00000  Uiso   1.00
N271   N     0.05237   0.38372   0.16215   0.00000  Uiso   1.00
N272   N     0.28500   0.25831   0.45240   0.00000  Uiso   1.00
N273   N     0.95092   0.35503   0.56718   0.00000  Uiso   1.00
N274   N     0.08020   0.47006   0.17968   0.00000  Uiso   1.00
N275   N     0.31282   0.34466   0.46993   0.00000  Uiso   1.00
N276   N     0.97875   0.44138   0.58471   0.00000  Uiso   1.00
C277   C     0.66205   0.67583   0.14981   0.00000  Uiso   1.00
C278   C     0.65932   0.64195   0.21177   0.00000  Uiso   1.00
C279   C     0.64212   0.66215   0.27077   0.00000  Uiso   1.00
C280   C     0.64262   0.62450   0.32164   0.00000  Uiso   1.00
C281   C     0.63581   0.58040   0.41905   0.00000  Uiso   1.00
C282   C     0.72081   0.67138   0.12646   0.00000  Uiso   1.00
C283   C     0.75532   0.71632   0.11374   0.00000  Uiso   1.00
C284   C     0.80758   0.70345   0.09278   0.00000  Uiso   1.00
C285   C     0.89623   0.70504   0.05770   0.00000  Uiso   1.00
C286   C     0.62759   0.64374   0.10121   0.00000  Uiso   1.00
C287   C     0.58372   0.66543   0.06724   0.00000  Uiso   1.00
C288   C     0.55751   0.62928   0.02501   0.00000  Uiso   1.00
C289   C     0.50141   0.58794   0.95073   0.00000  Uiso   1.00
C290   C     0.69352   0.57307   0.13521   0.00000  Uiso   1.00
C291   C     0.67641   0.58614   0.20383   0.00000  Uiso   1.00
C292   C     0.67694   0.54845   0.25462   0.00000  Uiso   1.00
C293   C     0.65975   0.56859   0.31369   0.00000  Uiso   1.00
C294   C     0.73791   0.61557   0.11853   0.00000  Uiso   1.00
C295   C     0.79014   0.60263   0.09758   0.00000  Uiso   1.00
C296   C     0.82471   0.64754   0.08483   0.00000  Uiso   1.00
C297   C     0.64468   0.58792   0.09328   0.00000  Uiso   1.00
C298   C     0.61854   0.55173   0.05109   0.00000  Uiso   1.00
C299   C     0.57464   0.57337   0.01706   0.00000  Uiso   1.00
H300   H     0.64874   0.71929   0.15599   0.00000  Uiso   1.00
H301   H     0.62890   0.70535   0.27689   0.00000  Uiso   1.00
H302   H     0.74207   0.75951   0.11987   0.00000  Uiso   1.00
H303   H     0.57050   0.70863   0.07339   0.00000  Uiso   1.00
H304   H     0.61446   0.66528   0.40745   0.00000  Uiso   1.00
H305   H     0.85309   0.77950   0.07634   0.00000  Uiso   1.00
H306   H     0.49130   0.67219   0.97832   0.00000  Uiso   1.00
H307   H     0.70683   0.52961   0.12904   0.00000  Uiso   1.00
H308   H     0.69017   0.50526   0.24847   0.00000  Uiso   1.00
H309   H     0.80335   0.55943   0.09145   0.00000  Uiso   1.00
H310   H     0.63178   0.50854   0.04496   0.00000  Uiso   1.00
H311   H     0.66419   0.50289   0.38438   0.00000  Uiso   1.00
H312   H     0.90282   0.61710   0.05327   0.00000  Uiso   1.00
H313   H     0.54103   0.50980   0.95525   0.00000  Uiso   1.00
O314   O     0.62733   0.57149   0.47497   0.00000  Uiso   1.00
O315   O     0.94040   0.72134   0.04056   0.00000  Uiso   1.00
O316   O     0.46574   0.58056   0.91196   0.00000  Uiso   1.00
N317   N     0.62844   0.63040   0.38563   0.00000  Uiso   1.00
N318   N     0.85154   0.73719   0.07607   0.00000  Uiso   1.00
N319   N     0.51331   0.63687   0.98441   0.00000  Uiso   1.00
N320   N     0.65520   0.54302   0.37321   0.00000  Uiso   1.00
N321   N     0.87830   0.64980   0.06365   0.00000  Uiso   1.00
N322   N     0.54007   0.54948   0.97200   0.00000  Uiso   1.00
C323   C     0.40638   0.67523   0.39235   0.00000  Uiso   1.00
C324   C     0.41095   0.63788   0.33319   0.00000  Uiso   1.00
C325   C     0.43029   0.65458   0.27369   0.00000  Uiso   1.00
C326   C     0.43123   0.61412   0.22572   0.00000  Uiso   1.00
C327   C     0.44102   0.56452   0.13215   0.00000  Uiso   1.00
C328   C     0.34684   0.67245   0.41318   0.00000  Uiso   1.00
C329   C     0.31227   0.71820   0.42093   0.00000  Uiso   1.00
C330   C     0.25924   0.70684   0.44030   0.00000  Uiso   1.00
C331   C     0.16949   0.71090   0.47096   0.00000  Uiso   1.00
C332   C     0.43891   0.64579   0.44480   0.00000  Uiso   1.00
C333   C     0.48176   0.66914   0.47916   0.00000  Uiso   1.00
C334   C     0.50624   0.63533   0.52516   0.00000  Uiso   1.00
C335   C     0.55945   0.59800   0.60492   0.00000  Uiso   1.00
C336   C     0.37365   0.57369   0.41297   0.00000  Uiso   1.00
C337   C     0.39318   0.58273   0.34439   0.00000  Uiso   1.00
C338   C     0.39409   0.54224   0.29650   0.00000  Uiso   1.00
C339   C     0.41343   0.55887   0.23693   0.00000  Uiso   1.00
C340   C     0.32906   0.61730   0.42438   0.00000  Uiso   1.00
C341   C     0.27607   0.60586   0.44374   0.00000  Uiso   1.00
C342   C     0.24143   0.65159   0.45152   0.00000  Uiso   1.00
C343   C     0.42114   0.59063   0.45600   0.00000  Uiso   1.00
C344   C     0.44555   0.55679   0.50196   0.00000  Uiso   1.00
C345   C     0.48843   0.58008   0.53638   0.00000  Uiso   1.00
H346   H     0.42021   0.71817   0.38363   0.00000  Uiso   1.00
H347   H     0.44404   0.69727   0.26504   0.00000  Uiso   1.00
H348   H     0.32604   0.76088   0.41227   0.00000  Uiso   1.00
H349   H     0.49550   0.71182   0.47048   0.00000  Uiso   1.00
H350   H     0.46260   0.64977   0.13849   0.00000  Uiso   1.00
H351   H     0.21379   0.78390   0.44895   0.00000  Uiso   1.00
H352   H     0.57114   0.68045   0.57170   0.00000  Uiso   1.00
H353   H     0.35982   0.53075   0.42169   0.00000  Uiso   1.00
H354   H     0.38033   0.49956   0.30518   0.00000  Uiso   1.00
H355   H     0.26233   0.56317   0.45241   0.00000  Uiso   1.00
H356   H     0.43179   0.51411   0.51062   0.00000  Uiso   1.00
H357   H     0.41089   0.48930   0.17107   0.00000  Uiso   1.00
H358   H     0.16208   0.62344   0.48153   0.00000  Uiso   1.00
H359   H     0.51942   0.51998   0.60428   0.00000  Uiso   1.00
O360   O     0.45132   0.55240   0.07745   0.00000  Uiso   1.00
O361   O     0.12489   0.72838   0.48477   0.00000  Uiso   1.00
O362   O     0.59372   0.59265   0.64581   0.00000  Uiso   1.00
N363   N     0.44763   0.61628   0.16215   0.00000  Uiso   1.00
N364   N     0.21500   0.74169   0.45240   0.00000  Uiso   1.00
N365   N     0.54908   0.64497   0.56718   0.00000  Uiso   1.00
N366   N     0.41980   0.52994   0.17968   0.00000  Uiso   1.00
N367   N     0.18718   0.65534   0.46993   0.00000  Uiso   1.00
N368   N     0.52125   0.55862   0.58471   0.00000  Uiso   1.00
C369   C     0.33795   0.17583   0.64981   0.00000  Uiso   1.00
C370   C     0.34068   0.14195   0.71177   0.00000  Uiso   1.00
C371   C     0.35788   0.16215   0.77077   0.00000  Uiso   1.00
C372   C     0.35738   0.12450   0.82164   0.00000  Uiso   1.00
C373   C     0.36419   0.08040   0.91905   0.00000  Uiso   1.00
C374   C     0.27919   0.17138   0.62646   0.00000  Uiso   1.00
C375   C     0.24468   0.21632   0.61374   0.00000  Uiso   1.00
C376   C     0.19242   0.20345   0.59278   0.00000  Uiso   1.00
C377   C     0.10377   0.20504   0.55770   0.00000  Uiso   1.00
C378   C     0.37241   0.14374   0.60121   0.00000  Uiso   1.00
C379   C     0.41628   0.16543   0.56724   0.00000  Uiso   1.00
C380   C     0.44249   0.12928   0.52501   0.00000  Uiso   1.00
C381   C     0.49859   0.08794   0.45073   0.00000  Uiso   1.00
C382   C     0.30648   0.07307   0.63521   0.00000  Uiso   1.00
C383   C     0.32359   0.08614   0.70383   0.00000  Uiso   1.00
C384   C     0.32306   0.04845   0.75462   0.00000  Uiso   1.00
C385   C     0.34025   0.06859   0.81369   0.00000  Uiso   1.00
C386   C     0.26209   0.11557   0.61853   0.00000  Uiso   1.00
C387   C     0.20986   0.10263   0.59758   0.00000  Uiso   1.00
C388   C     0.17529   0.14754   0.58483   0.00000  Uiso   1.00
C389   C     0.35532   0.08792   0.59328   0.00000  Uiso   1.00
C390   C     0.38146   0.05173   0.55109   0.00000  Uiso   1.00
C391   C     0.42536   0.07337   0.51706   0.00000  Uiso   1.00
H392   H     0.35126   0.21929   0.65599   0.00000  Uiso   1.00
H393   H     0.37110   0.20535   0.77689   0.00000  Uiso   1.00
H394   H     0.25793   0.25951   0.61987   0.00000  Uiso   1.00
H395   H     0.42950   0.20863   0.57339   0.00000  Uiso   1.00
H396   H     0.38554   0.16528   0.90745   0.00000  Uiso   1.00
H397   H     0.14691   0.27950   0.57634   0.00000  Uiso   1.00
H398   H     0.50870   0.17219   0.47832   0.00000  Uiso   1.00
H399   H     0.29317   0.02961   0.62904   0.00000  Uiso   1.00
H400   H     0.30983   0.00526   0.74847   0.00000  Uiso   1.00
H401   H     0.19665   0.05943   0.59145   0.00000  Uiso   1.00
H402   H     0.36822   0.00854   0.54496   0.00000  Uiso   1.00
H403   H     0.33581   0.00289   0.88438   0.00000  Uiso   1.00
H404   H     0.09718   0.11710   0.55327   0.00000  Uiso   1.00
H405   H     0.45897   0.00980   0.45525   0.00000  Uiso   1.00
O406   O     0.37267   0.07149   0.97497   0.00000  Uiso   1.00
O407   O     0.05960   0.22134   0.54056   0.00000  Uiso   1.00
O408   O     0.53426   0.08056   0.41196   0.00000  Uiso   1.00
N409   N     0.37156   0.13040   0.88563   0.00000  Uiso   1.00
N410   N     0.14846   0.23719   0.57607   0.00000  Uiso   1.00
N411   N     0.48669   0.13687   0.48441   0.00000  Uiso   1.00
N412   N     0.34480   0.04302   0.87321   0.00000  Uiso   1.00
N413   N     0.12170   0.14980   0.56365   0.00000  Uiso   1.00
N414   N     0.45993   0.04948   0.47200   0.00000  Uiso   1.00
C415   C     0.59362   0.17523   0.89235   0.00000  Uiso   1.00
C416   C     0.58905   0.13788   0.83319   0.00000  Uiso   1.00
C417   C     0.56971   0.15458   0.77369   0.00000  Uiso   1.00
C418   C     0.56877   0.11412   0.72572   0.00000  Uiso   1.00
C419   C     0.55898   0.06452   0.63215   0.00000  Uiso   1.00
C420   C     0.65316   0.17245   0.91318   0.00000  Uiso   1.00
C421   C     0.68773   0.21820   0.92093   0.00000  Uiso   1.00
C422   C     0.74076   0.20684   0.94030   0.00000  Uiso   1.00
C423   C     0.83051   0.21090   0.97096   0.00000  Uiso   1.00
C424   C     0.56109   0.14579   0.94480   0.00000  Uiso   1.00
C425   C     0.51824   0.16914   0.97916   0.00000  Uiso   1.00
C426   C     0.49376   0.13533   0.02516   0.00000  Uiso   1.00
C427   C     0.44055   0.09800   0.10492   0.00000  Uiso   1.00
C428   C     0.62635   0.07369   0.91297   0.00000  Uiso   1.00
C429   C     0.60682   0.08273   0.84439   0.00000  Uiso   1.00
C430   C     0.60591   0.04224   0.79650   0.00000  Uiso   1.00
C431   C     0.58657   0.05887   0.73693   0.00000  Uiso   1.00
C432   C     0.67094   0.11730   0.92438   0.00000  Uiso   1.00
C433   C     0.72393   0.10586   0.94374   0.00000  Uiso   1.00
C434   C     0.75857   0.15159   0.95152   0.00000  Uiso   1.00
C435   C     0.57886   0.09063   0.95600   0.00000  Uiso   1.00
C436   C     0.55445   0.05679   0.00196   0.00000  Uiso   1.00
C437   C     0.51157   0.08008   0.03638   0.00000  Uiso   1.00
H438   H     0.57979   0.21817   0.88363   0.00000  Uiso   1.00
H439   H     0.55596   0.19727   0.76504   0.00000  Uiso   1.00
H440   H     0.67396   0.26088   0.91227   0.00000  Uiso   1.00
H441   H     0.50450   0.21182   0.97048   0.00000  Uiso   1.00
H442   H     0.53740   0.14977   0.63849   0.00000  Uiso   1.00
H443   H     0.78621   0.28390   0.94895   0.00000  Uiso   1.00
H444   H     0.42886   0.18045   0.07170   0.00000  Uiso   1.00
H445   H     0.64018   0.03075   0.92169   0.00000  Uiso   1.00
H446   H     0.61967   0.99956   0.80518   0.00000  Uiso   1.00
H447   H     0.73767   0.06317   0.95241   0.00000  Uiso   1.00
H448   H     0.56821   0.01411   0.01062   0.00000  Uiso   1.00
H449   H     0.58911   0.98930   0.67107   0.00000  Uiso   1.00
H450   H     0.83792   0.12344   0.98153   0.00000  Uiso   1.00
H451   H     0.48058   0.01998   0.10428   0.00000  Uiso   1.00
O452   O     0.54868   0.05240   0.57745   0.00000  Uiso   1.00
O453   O     0.87511   0.22838   0.98477   0.00000  Uiso   1.00
O454   O     0.40628   0.09265   0.14581   0.00000  Uiso   1.00
N455   N     0.55237   0.11628   0.66215   0.00000  Uiso   1.00
N456   N     0.78500   0.24169   0.95240   0.00000  Uiso   1.00
N457   N     0.45092   0.14497   0.06718   0.00000  Uiso   1.00
N458   N     0.58020   0.02994   0.67968   0.00000  Uiso   1.00
N459   N     0.81282   0.15534   0.96993   0.00000  Uiso   1.00
N460   N     0.47875   0.05862   0.08471   0.00000  Uiso   1.00
C461   C     0.16205   0.82417   0.64981   0.00000  Uiso   1.00
C462   C     0.15932   0.85805   0.71177   0.00000  Uiso   1.00
C463   C     0.14212   0.83785   0.77077   0.00000  Uiso   1.00
C464   C     0.14262   0.87550   0.82164   0.00000  Uiso   1.00
C465   C     0.13581   0.91960   0.91905   0.00000  Uiso   1.00
C466   C     0.22081   0.82862   0.62646   0.00000  Uiso   1.00
C467   C     0.25532   0.78368   0.61374   0.00000  Uiso   1.00
C468   C     0.30758   0.79655   0.59278   0.00000  Uiso   1.00
C469   C     0.39623   0.79496   0.55770   0.00000  Uiso   1.00
C470   C     0.12759   0.85626   0.60121   0.00000  Uiso   1.00
C471   C     0.08372   0.83457   0.56724   0.00000  Uiso   1.00
C472   C     0.05751   0.87072   0.52501   0.00000  Uiso   1.00
C473   C     0.00141   0.91206   0.45073   0.00000  Uiso   1.00
C474   C     0.19352   0.92693   0.63521   0.00000  Uiso   1.00
C475   C     0.17641   0.91386   0.70383   0.00000  Uiso   1.00
C476   C     0.17694   0.95155   0.75462   0.00000  Uiso   1.00
C477   C     0.15975   0.93141   0.81369   0.00000  Uiso   1.00
C478   C     0.23791   0.88443   0.61853   0.00000  Uiso   1.00
C479   C     0.29014   0.89737   0.59758   0.00000  Uiso   1.00
C480   C     0.32471   0.85246   0.58483   0.00000  Uiso   1.00
C481   C     0.14468   0.91208   0.59328   0.00000  Uiso   1.00
C482   C     0.11854   0.94827   0.55109   0.00000  Uiso   1.00
C483   C     0.07464   0.92663   0.51706   0.00000  Uiso   1.00
H484   H     0.14874   0.78071   0.65599   0.00000  Uiso   1.00
H485   H     0.12890   0.79465   0.77689   0.00000  Uiso   1.00
H486   H     0.24207   0.74049   0.61987   0.00000  Uiso   1.00
H487   H     0.07050   0.79137   0.57339   0.00000  Uiso   1.00
H488   H     0.11446   0.83472   0.90745   0.00000  Uiso   1.00
H489   H     0.35309   0.72050   0.57634   0.00000  Uiso   1.00
H490   H     0.99130   0.82781   0.47832   0.00000  Uiso   1.00
H491   H     0.20683   0.97039   0.62904   0.00000  Uiso   1.00
H492   H     0.19017   0.99474   0.74847   0.00000  Uiso   1.00
H493   H     0.30335   0.94057   0.59145   0.00000  Uiso   1.00
H494   H     0.13178   0.99146   0.54496   0.00000  Uiso   1.00
H495   H     0.16419   0.99711   0.88438   0.00000  Uiso   1.00
H496   H     0.40282   0.88290   0.55327   0.00000  Uiso   1.00
H497   H     0.04103   0.99020   0.45525   0.00000  Uiso   1.00
O498   O     0.12733   0.92851   0.97497   0.00000  Uiso   1.00
O499   O     0.44040   0.77866   0.54056   0.00000  Uiso   1.00
O500   O     0.96574   0.91944   0.41196   0.00000  Uiso   1.00
N501   N     0.12844   0.86960   0.88563   0.00000  Uiso   1.00
N502   N     0.35154   0.76281   0.57607   0.00000  Uiso   1.00
N503   N     0.01331   0.86313   0.48441   0.00000  Uiso   1.00
N504   N     0.15520   0.95698   0.87321   0.00000  Uiso   1.00
N505   N     0.37830   0.85020   0.56365   0.00000  Uiso   1.00
N506   N     0.04007   0.95052   0.47200   0.00000  Uiso   1.00
C507   C     0.90638   0.82477   0.89235   0.00000  Uiso   1.00
C508   C     0.91095   0.86212   0.83319   0.00000  Uiso   1.00
C509   C     0.93029   0.84542   0.77369   0.00000  Uiso   1.00
C510   C     0.93123   0.88588   0.72572   0.00000  Uiso   1.00
C511   C     0.94102   0.93548   0.63215   0.00000  Uiso   1.00
C512   C     0.84684   0.82755   0.91318   0.00000  Uiso   1.00
C513   C     0.81227   0.78180   0.92093   0.00000  Uiso   1.00
C514   C     0.75924   0.79316   0.94030   0.00000  Uiso   1.00
C515   C     0.66949   0.78910   0.97096   0.00000  Uiso   1.00
C516   C     0.93891   0.85421   0.94480   0.00000  Uiso   1.00
C517   C     0.98176   0.83086   0.97916   0.00000  Uiso   1.00
C518   C     0.00624   0.86467   0.02516   0.00000  Uiso   1.00
C519   C     0.05945   0.90200   0.10492   0.00000  Uiso   1.00
C520   C     0.87365   0.92631   0.91297   0.00000  Uiso   1.00
C521   C     0.89318   0.91727   0.84439   0.00000  Uiso   1.00
C522   C     0.89409   0.95776   0.79650   0.00000  Uiso   1.00
C523   C     0.91343   0.94113   0.73693   0.00000  Uiso   1.00
C524   C     0.82906   0.88270   0.92438   0.00000  Uiso   1.00
C525   C     0.77607   0.89414   0.94374   0.00000  Uiso   1.00
C526   C     0.74143   0.84841   0.95152   0.00000  Uiso   1.00
C527   C     0.92114   0.90937   0.95600   0.00000  Uiso   1.00
C528   C     0.94555   0.94321   0.00196   0.00000  Uiso   1.00
C529   C     0.98843   0.91992   0.03638   0.00000  Uiso   1.00
H530   H     0.92021   0.78183   0.88363   0.00000  Uiso   1.00
H531   H     0.94404   0.80273   0.76504   0.00000  Uiso   1.00
H532   H     0.82604   0.73912   0.91227   0.00000  Uiso   1.00
H533   H     0.99550   0.78818   0.97048   0.00000  Uiso   1.00
H534   H     0.96260   0.85023   0.63849   0.00000  Uiso   1.00
H535   H     0.71379   0.71610   0.94895   0.00000  Uiso   1.00
H536   H     0.07114   0.81955   0.07170   0.00000  Uiso   1.00
H537   H     0.85982   0.96925   0.92169   0.00000  Uiso   1.00
H538   H     0.88033   0.00044   0.80518   0.00000  Uiso   1.00
H539   H     0.76233   0.93683   0.95241   0.00000  Uiso   1.00
H540   H     0.93179   0.98589   0.01062   0.00000  Uiso   1.00
H541   H     0.91089   0.01070   0.67107   0.00000  Uiso   1.00
H542   H     0.66208   0.87656   0.98153   0.00000  Uiso   1.00
H543   H     0.01942   0.98002   0.10428   0.00000  Uiso   1.00
O544   O     0.95132   0.94760   0.57745   0.00000  Uiso   1.00
O545   O     0.62489   0.77162   0.98477   0.00000  Uiso   1.00
O546   O     0.09372   0.90735   0.14581   0.00000  Uiso   1.00
N547   N     0.94763   0.88372   0.66215   0.00000  Uiso   1.00
N548   N     0.71500   0.75831   0.95240   0.00000  Uiso   1.00
N549   N     0.04908   0.85503   0.06718   0.00000  Uiso   1.00
N550   N     0.91980   0.97006   0.67968   0.00000  Uiso   1.00
N551   N     0.68718   0.84466   0.96993   0.00000  Uiso   1.00
N552   N     0.02125   0.94138   0.08471   0.00000  Uiso   1.00
C553   C     0.16205   0.67583   0.85019   0.00000  Uiso   1.00
C554   C     0.15932   0.64195   0.78823   0.00000  Uiso   1.00
C555   C     0.14212   0.66215   0.72923   0.00000  Uiso   1.00
C556   C     0.14262   0.62450   0.67836   0.00000  Uiso   1.00
C557   C     0.13581   0.58040   0.58095   0.00000  Uiso   1.00
C558   C     0.22081   0.67138   0.87354   0.00000  Uiso   1.00
C559   C     0.25532   0.71632   0.88626   0.00000  Uiso   1.00
C560   C     0.30758   0.70345   0.90722   0.00000  Uiso   1.00
C561   C     0.39623   0.70504   0.94230   0.00000  Uiso   1.00
C562   C     0.12759   0.64374   0.89879   0.00000  Uiso   1.00
C563   C     0.08372   0.66543   0.93276   0.00000  Uiso   1.00
C564   C     0.05751   0.62928   0.97499   0.00000  Uiso   1.00
C565   C     0.00141   0.58794   0.04927   0.00000  Uiso   1.00
C566   C     0.19352   0.57307   0.86479   0.00000  Uiso   1.00
C567   C     0.17641   0.58614   0.79617   0.00000  Uiso   1.00
C568   C     0.17694   0.54845   0.74538   0.00000  Uiso   1.00
C569   C     0.15975   0.56859   0.68631   0.00000  Uiso   1.00
C570   C     0.23791   0.61557   0.88147   0.00000  Uiso   1.00
C571   C     0.29014   0.60263   0.90242   0.00000  Uiso   1.00
C572   C     0.32471   0.64754   0.91517   0.00000  Uiso   1.00
C573   C     0.14468   0.58792   0.90672   0.00000  Uiso   1.00
C574   C     0.11854   0.55173   0.94891   0.00000  Uiso   1.00
C575   C     0.07464   0.57337   0.98294   0.00000  Uiso   1.00
H576   H     0.14874   0.71929   0.84401   0.00000  Uiso   1.00
H577   H     0.12890   0.70535   0.72311   0.00000  Uiso   1.00
H578   H     0.24207   0.75951   0.88013   0.00000  Uiso   1.00
H579   H     0.07050   0.70863   0.92661   0.00000  Uiso   1.00
H580   H     0.11446   0.66528   0.59255   0.00000  Uiso   1.00
H581   H     0.35309   0.77950   0.92366   0.00000  Uiso   1.00
H582   H     0.99130   0.67219   0.02168   0.00000  Uiso   1.00
H583   H     0.20683   0.52961   0.87096   0.00000  Uiso   1.00
H584   H     0.19017   0.50526   0.75153   0.00000  Uiso   1.00
H585   H     0.30335   0.55943   0.90855   0.00000  Uiso   1.00
H586   H     0.13178   0.50854   0.95504   0.00000  Uiso   1.00
H587   H     0.16419   0.50289   0.61562   0.00000  Uiso   1.00
H588   H     0.40282   0.61710   0.94673   0.00000  Uiso   1.00
H589   H     0.04103   0.50980   0.04475   0.00000  Uiso   1.00
O590   O     0.12733   0.57149   0.52503   0.00000  Uiso   1.00
O591   O     0.44040   0.72134   0.95944   0.00000  Uiso   1.00
O592   O     0.96574   0.58056   0.08804   0.00000  Uiso   1.00
N593   N     0.12844   0.63040   0.61437   0.00000  Uiso   1.00
N594   N     0.35154   0.73719   0.92393   0.00000  Uiso   1.00
N595   N     0.01331   0.63687   0.01559   0.00000  Uiso   1.00
N596   N     0.15520   0.54302   0.62679   0.00000  Uiso   1.00
N597   N     0.37830   0.64980   0.93635   0.00000  Uiso   1.00
N598   N     0.04007   0.54948   0.02800   0.00000  Uiso   1.00
C599   C     0.90638   0.67523   0.60765   0.00000  Uiso   1.00
C600   C     0.91095   0.63788   0.66681   0.00000  Uiso   1.00
C601   C     0.93029   0.65458   0.72631   0.00000  Uiso   1.00
C602   C     0.93123   0.61412   0.77428   0.00000  Uiso   1.00
C603   C     0.94102   0.56452   0.86785   0.00000  Uiso   1.00
C604   C     0.84684   0.67245   0.58682   0.00000  Uiso   1.00
C605   C     0.81227   0.71820   0.57907   0.00000  Uiso   1.00
C606   C     0.75924   0.70684   0.55970   0.00000  Uiso   1.00
C607   C     0.66949   0.71090   0.52904   0.00000  Uiso   1.00
C608   C     0.93891   0.64579   0.55520   0.00000  Uiso   1.00
C609   C     0.98176   0.66914   0.52084   0.00000  Uiso   1.00
C610   C     0.00624   0.63533   0.47484   0.00000  Uiso   1.00
C611   C     0.05945   0.59800   0.39508   0.00000  Uiso   1.00
C612   C     0.87365   0.57369   0.58703   0.00000  Uiso   1.00
C613   C     0.89318   0.58273   0.65561   0.00000  Uiso   1.00
C614   C     0.89409   0.54224   0.70350   0.00000  Uiso   1.00
C615   C     0.91343   0.55887   0.76307   0.00000  Uiso   1.00
C616   C     0.82906   0.61730   0.57562   0.00000  Uiso   1.00
C617   C     0.77607   0.60586   0.55626   0.00000  Uiso   1.00
C618   C     0.74143   0.65159   0.54848   0.00000  Uiso   1.00
C619   C     0.92114   0.59063   0.54400   0.00000  Uiso   1.00
C620   C     0.94555   0.55679   0.49804   0.00000  Uiso   1.00
C621   C     0.98843   0.58008   0.46362   0.00000  Uiso   1.00
H622   H     0.92021   0.71817   0.61637   0.00000  Uiso   1.00
H623   H     0.94404   0.69727   0.73496   0.00000  Uiso   1.00
H624   H     0.82604   0.76088   0.58773   0.00000  Uiso   1.00
H625   H     0.99550   0.71182   0.52952   0.00000  Uiso   1.00
H626   H     0.96260   0.64977   0.86151   0.00000  Uiso   1.00
H627   H     0.71379   0.78390   0.55105   0.00000  Uiso   1.00
H628   H     0.07114   0.68045   0.42830   0.00000  Uiso   1.00
H629   H     0.85982   0.53075   0.57831   0.00000  Uiso   1.00
H630   H     0.88033   0.49956   0.69482   0.00000  Uiso   1.00
H631   H     0.76233   0.56317   0.54759   0.00000  Uiso   1.00
H632   H     0.93179   0.51411   0.48938   0.00000  Uiso   1.00
H633   H     0.91089   0.48930   0.82893   0.00000  Uiso   1.00
H634   H     0.66208   0.62344   0.51847   0.00000  Uiso   1.00
H635   H     0.01942   0.51998   0.39572   0.00000  Uiso   1.00
O636   O     0.95132   0.55240   0.92255   0.00000  Uiso   1.00
O637   O     0.62489   0.72838   0.51523   0.00000  Uiso   1.00
O638   O     0.09372   0.59265   0.35419   0.00000  Uiso   1.00
N639   N     0.94763   0.61628   0.83785   0.00000  Uiso   1.00
N640   N     0.71500   0.74169   0.54760   0.00000  Uiso   1.00
N641   N     0.04908   0.64497   0.43282   0.00000  Uiso   1.00
N642   N     0.91980   0.52994   0.82032   0.00000  Uiso   1.00
N643   N     0.68718   0.65534   0.53007   0.00000  Uiso   1.00
N644   N     0.02125   0.55862   0.41529   0.00000  Uiso   1.00
C645   C     0.33795   0.32417   0.85019   0.00000  Uiso   1.00
C646   C     0.34068   0.35805   0.78823   0.00000  Uiso   1.00
C647   C     0.35788   0.33785   0.72923   0.00000  Uiso   1.00
C648   C     0.35738   0.37550   0.67836   0.00000  Uiso   1.00
C649   C     0.36419   0.41960   0.58095   0.00000  Uiso   1.00
C650   C     0.27919   0.32862   0.87354   0.00000  Uiso   1.00
C651   C     0.24468   0.28368   0.88626   0.00000  Uiso   1.00
C652   C     0.19242   0.29655   0.90722   0.00000  Uiso   1.00
C653   C     0.10377   0.29496   0.94230   0.00000  Uiso   1.00
C654   C     0.37241   0.35626   0.89879   0.00000  Uiso   1.00
C655   C     0.41628   0.33457   0.93276   0.00000  Uiso   1.00
C656   C     0.44249   0.37072   0.97499   0.00000  Uiso   1.00
C657   C     0.49859   0.41206   0.04927   0.00000  Uiso   1.00
C658   C     0.30648   0.42693   0.86479   0.00000  Uiso   1.00
C659   C     0.32359   0.41386   0.79617   0.00000  Uiso   1.00
C660   C     0.32306   0.45155   0.74538   0.00000  Uiso   1.00
C661   C     0.34025   0.43141   0.68631   0.00000  Uiso   1.00
C662   C     0.26209   0.38443   0.88147   0.00000  Uiso   1.00
C663   C     0.20986   0.39737   0.90242   0.00000  Uiso   1.00
C664   C     0.17529   0.35246   0.91517   0.00000  Uiso   1.00
C665   C     0.35532   0.41208   0.90672   0.00000  Uiso   1.00
C666   C     0.38146   0.44827   0.94891   0.00000  Uiso   1.00
C667   C     0.42536   0.42663   0.98294   0.00000  Uiso   1.00
H668   H     0.35126   0.28071   0.84401   0.00000  Uiso   1.00
H669   H     0.37110   0.29465   0.72311   0.00000  Uiso   1.00
H670   H     0.25793   0.24049   0.88013   0.00000  Uiso   1.00
H671   H     0.42950   0.29137   0.92661   0.00000  Uiso   1.00
H672   H     0.38554   0.33472   0.59255   0.00000  Uiso   1.00
H673   H     0.14691   0.22050   0.92366   0.00000  Uiso   1.00
H674   H     0.50870   0.32781   0.02168   0.00000  Uiso   1.00
H675   H     0.29317   0.47039   0.87096   0.00000  Uiso   1.00
H676   H     0.30983   0.49474   0.75153   0.00000  Uiso   1.00
H677   H     0.19665   0.44057   0.90855   0.00000  Uiso   1.00
H678   H     0.36822   0.49146   0.95504   0.00000  Uiso   1.00
H679   H     0.33581   0.49711   0.61562   0.00000  Uiso   1.00
H680   H     0.09718   0.38290   0.94673   0.00000  Uiso   1.00
H681   H     0.45897   0.49020   0.04475   0.00000  Uiso   1.00
O682   O     0.37267   0.42851   0.52503   0.00000  Uiso   1.00
O683   O     0.05960   0.27866   0.95944   0.00000  Uiso   1.00
O684   O     0.53426   0.41944   0.08804   0.00000  Uiso   1.00
N685   N     0.37156   0.36960   0.61437   0.00000  Uiso   1.00
N686   N     0.14846   0.26281   0.92393   0.00000  Uiso   1.00
N687   N     0.48669   0.36313   0.01559   0.00000  Uiso   1.00
N688   N     0.34480   0.45698   0.62679   0.00000  Uiso   1.00
N689   N     0.12170   0.35020   0.93635   0.00000  Uiso   1.00
N690   N     0.45993   0.45052   0.02800   0.00000  Uiso   1.00
C691   C     0.59362   0.32477   0.60765   0.00000  Uiso   1.00
C692   C     0.58905   0.36212   0.66681   0.00000  Uiso   1.00
C693   C     0.56971   0.34542   0.72631   0.00000  Uiso   1.00
C694   C     0.56877   0.38588   0.77428   0.00000  Uiso   1.00
C695   C     0.55898   0.43548   0.86785   0.00000  Uiso   1.00
C696   C     0.65316   0.32755   0.58682   0.00000  Uiso   1.00
C697   C     0.68773   0.28180   0.57907   0.00000  Uiso   1.00
C698   C     0.74076   0.29316   0.55970   0.00000  Uiso   1.00
C699   C     0.83051   0.28910   0.52904   0.00000  Uiso   1.00
C700   C     0.56109   0.35421   0.55520   0.00000  Uiso   1.00
C701   C     0.51824   0.33086   0.52084   0.00000  Uiso   1.00
C702   C     0.49376   0.36467   0.47484   0.00000  Uiso   1.00
C703   C     0.44055   0.40200   0.39508   0.00000  Uiso   1.00
C704   C     0.62635   0.42631   0.58703   0.00000  Uiso   1.00
C705   C     0.60682   0.41727   0.65561   0.00000  Uiso   1.00
C706   C     0.60591   0.45776   0.70350   0.00000  Uiso   1.00
C707   C     0.58657   0.44113   0.76307   0.00000  Uiso   1.00
C708   C     0.67094   0.38270   0.57562   0.00000  Uiso   1.00
C709   C     0.72393   0.39414   0.55626   0.00000  Uiso   1.00
C710   C     0.75857   0.34841   0.54848   0.00000  Uiso   1.00
C711   C     0.57886   0.40937   0.54400   0.00000  Uiso   1.00
C712   C     0.55445   0.44321   0.49804   0.00000  Uiso   1.00
C713   C     0.51157   0.41992   0.46362   0.00000  Uiso   1.00
H714   H     0.57979   0.28183   0.61637   0.00000  Uiso   1.00
H715   H     0.55596   0.30273   0.73496   0.00000  Uiso   1.00
H716   H     0.67396   0.23912   0.58773   0.00000  Uiso   1.00
H717   H     0.50450   0.28818   0.52952   0.00000  Uiso   1.00
H718   H     0.53740   0.35023   0.86151   0.00000  Uiso   1.00
H719   H     0.78621   0.21610   0.55105   0.00000  Uiso   1.00
H720   H     0.42886   0.31955   0.42830   0.00000  Uiso   1.00
H721   H     0.64018   0.46925   0.57831   0.00000  Uiso   1.00
H722   H     0.61967   0.50044   0.69482   0.00000  Uiso   1.00
H723   H     0.73767   0.43683   0.54759   0.00000  Uiso   1.00
H724   H     0.56821   0.48589   0.48938   0.00000  Uiso   1.00
H725   H     0.58911   0.51070   0.82893   0.00000  Uiso   1.00
H726   H     0.83792   0.37656   0.51847   0.00000  Uiso   1.00
H727   H     0.48058   0.48002   0.39572   0.00000  Uiso   1.00
O728   O     0.54868   0.44760   0.92255   0.00000  Uiso   1.00
O729   O     0.87511   0.27162   0.51523   0.00000  Uiso   1.00
O730   O     0.40628   0.40735   0.35419   0.00000  Uiso   1.00
N731   N     0.55237   0.38372   0.83785   0.00000  Uiso   1.00
N732   N     0.78500   0.25831   0.54760   0.00000  Uiso   1.00
N733   N     0.45092   0.35503   0.43282   0.00000  Uiso   1.00
N734   N     0.58020   0.47006   0.82032   0.00000  Uiso   1.00
N735   N     0.81282   0.34466   0.53007   0.00000  Uiso   1.00
N736   N     0.47875   0.44138   0.41529   0.00000  Uiso   1.00
