data_job_06467
_audit_creation_date              2018-12-19
_audit_creation_method            'Materials Studio'
_symmetry_space_group_name_H-M    'P1'
_symmetry_Int_Tables_number       1
_symmetry_cell_setting            triclinic
loop_
_symmetry_equiv_pos_as_xyz
  x,y,z
_cell_length_a                    21.0000
_cell_length_b                    21.0000
_cell_length_c                    56.7708
_cell_angle_alpha                 90.0000
_cell_angle_beta                  90.0000
_cell_angle_gamma                 120.0000
loop_
_atom_site_label
_atom_site_type_symbol
_atom_site_fract_x
_atom_site_fract_y
_atom_site_fract_z
_atom_site_U_iso_or_equiv
_atom_site_adp_type
_atom_site_occupancy
C1     C     0.46395   0.36738   0.45254   0.00000  Uiso   1.00
C2     C     0.38304   0.34059   0.45746   0.00000  Uiso   1.00
C3     C     0.34485   0.37546   0.45043   0.00000  Uiso   1.00
C4     C     0.27114   0.34215   0.45666   0.00000  Uiso   1.00
C5     C     0.15072   0.31057   0.46236   0.00000  Uiso   1.00
C6     C     0.49961   0.37403   0.47650   0.00000  Uiso   1.00
C7     C     0.55944   0.43701   0.48548   0.00000  Uiso   1.00
C8     C     0.91720   0.09851   0.17441   0.00000  Uiso   1.00
C9     C     0.97779   0.11884   0.20966   0.00000  Uiso   1.00
C10    C     0.46604   0.30450   0.43982   0.00000  Uiso   1.00
C11    C     0.49766   0.30903   0.41797   0.00000  Uiso   1.00
C12    C     0.49384   0.24533   0.40935   0.00000  Uiso   1.00
C13    C     0.50231   0.15771   0.38765   0.00000  Uiso   1.00
C14    C     0.40097   0.24622   0.47611   0.00000  Uiso   1.00
C15    C     0.34883   0.27477   0.47026   0.00000  Uiso   1.00
C16    C     0.27516   0.24140   0.47650   0.00000  Uiso   1.00
C17    C     0.23687   0.27621   0.46948   0.00000  Uiso   1.00
C18    C     0.46541   0.30822   0.48930   0.00000  Uiso   1.00
C19    C     0.82309   0.96962   0.17822   0.00000  Uiso   1.00
C20    C     0.88293   0.03258   0.18723   0.00000  Uiso   1.00
C21    C     0.43183   0.23869   0.45262   0.00000  Uiso   1.00
C22    C     0.42797   0.17497   0.44404   0.00000  Uiso   1.00
C23    C     0.45957   0.17940   0.42217   0.00000  Uiso   1.00
H24    H     0.15726   0.75195   0.77591   0.00000  Uiso   1.00
H25    H     0.03801   0.75972   0.77386   0.00000  Uiso   1.00
H26    H     0.58590   0.48793   0.47557   0.00000  Uiso   1.00
H27    H     0.19080   0.69330   0.74140   0.00000  Uiso   1.00
H28    H     0.89072   0.73933   0.77724   0.00000  Uiso   1.00
H29    H     0.67649   0.53575   0.51779   0.00000  Uiso   1.00
H30    H     0.54623   0.26591   0.37545   0.00000  Uiso   1.00
H31    H     0.37434   0.19498   0.48607   0.00000  Uiso   1.00
H32    H     0.24871   0.19047   0.48640   0.00000  Uiso   1.00
H33    H     0.46327   0.25202   0.52145   0.00000  Uiso   1.00
H34    H     0.40149   0.12405   0.45394   0.00000  Uiso   1.00
H35    H     0.12452   0.21452   0.48114   0.00000  Uiso   1.00
H36    H     0.91029   0.01094   0.22170   0.00000  Uiso   1.00
H37    H     0.44669   0.07443   0.41268   0.00000  Uiso   1.00
O38    O     0.09375   0.31134   0.46197   0.00000  Uiso   1.00
O39    O     0.02066   0.14824   0.22557   0.00000  Uiso   1.00
O40    O     0.51643   0.12755   0.37215   0.00000  Uiso   1.00
N41    N     0.21787   0.36154   0.45262   0.00000  Uiso   1.00
N42    N     0.64086   0.48286   0.52170   0.00000  Uiso   1.00
N43    N     0.51909   0.23059   0.38862   0.00000  Uiso   1.00
N44    N     0.16431   0.25851   0.47266   0.00000  Uiso   1.00
N45    N     0.92063   0.04649   0.20840   0.00000  Uiso   1.00
N46    N     0.46553   0.12755   0.40866   0.00000  Uiso   1.00
C47    C     0.93279   0.17961   0.60860   0.00000  Uiso   1.00
C48    C     0.28557   0.92647   0.27706   0.00000  Uiso   1.00
C49    C     0.23937   0.95374   0.27147   0.00000  Uiso   1.00
C50    C     0.26746   0.02878   0.27432   0.00000  Uiso   1.00
C51    C     0.28673   0.14629   0.27587   0.00000  Uiso   1.00
C52    C     0.94578   0.15820   0.63305   0.00000  Uiso   1.00
C53    C     0.89415   0.10004   0.64650   0.00000  Uiso   1.00
C54    C     0.91681   0.08955   0.66842   0.00000  Uiso   1.00
C55    C     0.92608   0.04929   0.70514   0.00000  Uiso   1.00
C56    C     0.99084   0.17891   0.59264   0.00000  Uiso   1.00
C57    C     0.97710   0.13815   0.57212   0.00000  Uiso   1.00
C58    C     0.03771   0.14508   0.56002   0.00000  Uiso   1.00
C59    C     0.11694   0.13698   0.53400   0.00000  Uiso   1.00
C60    C     0.06484   0.26438   0.62360   0.00000  Uiso   1.00
C61    C     0.02396   0.30584   0.61855   0.00000  Uiso   1.00
C62    C     0.38547   0.04753   0.28807   0.00000  Uiso   1.00
C63    C     0.33932   0.07491   0.28248   0.00000  Uiso   1.00
C64    C     0.01750   0.20424   0.64120   0.00000  Uiso   1.00
C65    C     0.04025   0.19383   0.66310   0.00000  Uiso   1.00
C66    C     0.98867   0.13567   0.67658   0.00000  Uiso   1.00
C67    C     0.06257   0.22496   0.60079   0.00000  Uiso   1.00
C68    C     0.12320   0.23194   0.58872   0.00000  Uiso   1.00
C69    C     0.10956   0.19121   0.56818   0.00000  Uiso   1.00
H70    H     0.87694   0.14376   0.60226   0.00000  Uiso   1.00
H71    H     0.18386   0.91809   0.26517   0.00000  Uiso   1.00
H72    H     0.83865   0.06442   0.64019   0.00000  Uiso   1.00
H73    H     0.92159   0.10253   0.56583   0.00000  Uiso   1.00
H74    H     0.18619   0.05776   0.26460   0.00000  Uiso   1.00
H75    H     0.82782   0.99676   0.68584   0.00000  Uiso   1.00
H76    H     0.00272   0.07712   0.52902   0.00000  Uiso   1.00
H77    H     0.12068   0.30022   0.62995   0.00000  Uiso   1.00
H78    H     0.44098   0.08314   0.29437   0.00000  Uiso   1.00
H79    H     0.09576   0.22946   0.66939   0.00000  Uiso   1.00
H80    H     0.17870   0.26758   0.59503   0.00000  Uiso   1.00
H81    H     0.39487   0.19172   0.28830   0.00000  Uiso   1.00
H82    H     0.03650   0.13071   0.70954   0.00000  Uiso   1.00
H83    H     0.21140   0.21108   0.55272   0.00000  Uiso   1.00
O84    O     0.27755   0.19839   0.27449   0.00000  Uiso   1.00
O85    O     0.91137   0.01436   0.72314   0.00000  Uiso   1.00
O86    O     0.14083   0.11980   0.51740   0.00000  Uiso   1.00
N87    N     0.23710   0.07333   0.27048   0.00000  Uiso   1.00
N88    N     0.88035   0.03800   0.68600   0.00000  Uiso   1.00
N89    N     0.04387   0.11311   0.53939   0.00000  Uiso   1.00
N90    N     0.34939   0.14542   0.28324   0.00000  Uiso   1.00
N91    N     0.99264   0.11008   0.69875   0.00000  Uiso   1.00
N92    N     0.15616   0.18520   0.55215   0.00000  Uiso   1.00
C93    C     0.13062   0.70071   0.78588   0.00000  Uiso   1.00
C94    C     0.04971   0.67392   0.79079   0.00000  Uiso   1.00
C95    C     0.01151   0.70879   0.78377   0.00000  Uiso   1.00
C96    C     0.93781   0.67548   0.79000   0.00000  Uiso   1.00
C97    C     0.81739   0.64390   0.79569   0.00000  Uiso   1.00
C98    C     0.16628   0.70736   0.80983   0.00000  Uiso   1.00
C99    C     0.22610   0.77035   0.81882   0.00000  Uiso   1.00
C100   C     0.58387   0.43185   0.50774   0.00000  Uiso   1.00
C101   C     0.64446   0.45218   0.54299   0.00000  Uiso   1.00
C102   C     0.13271   0.63783   0.77316   0.00000  Uiso   1.00
C103   C     0.16433   0.64236   0.75130   0.00000  Uiso   1.00
C104   C     0.16051   0.57866   0.74269   0.00000  Uiso   1.00
C105   C     0.16898   0.49104   0.72099   0.00000  Uiso   1.00
C106   C     0.06764   0.57955   0.80944   0.00000  Uiso   1.00
C107   C     0.01550   0.60811   0.80359   0.00000  Uiso   1.00
C108   C     0.94183   0.57473   0.80983   0.00000  Uiso   1.00
C109   C     0.90353   0.60955   0.80282   0.00000  Uiso   1.00
C110   C     0.13207   0.64155   0.82263   0.00000  Uiso   1.00
C111   C     0.48975   0.30296   0.51155   0.00000  Uiso   1.00
C112   C     0.54960   0.36592   0.52056   0.00000  Uiso   1.00
C113   C     0.09850   0.57202   0.78595   0.00000  Uiso   1.00
C114   C     0.09464   0.50830   0.77737   0.00000  Uiso   1.00
C115   C     0.12624   0.51273   0.75551   0.00000  Uiso   1.00
H116   H     0.82392   0.08529   0.10925   0.00000  Uiso   1.00
H117   H     0.70468   0.09306   0.10720   0.00000  Uiso   1.00
H118   H     0.25257   0.82126   0.80891   0.00000  Uiso   1.00
H119   H     0.85746   0.02663   0.07474   0.00000  Uiso   1.00
H120   H     0.55739   0.07266   0.11057   0.00000  Uiso   1.00
H121   H     0.34315   0.86909   0.85113   0.00000  Uiso   1.00
H122   H     0.21289   0.59925   0.70878   0.00000  Uiso   1.00
H123   H     0.04100   0.52831   0.81940   0.00000  Uiso   1.00
H124   H     0.91537   0.52380   0.81974   0.00000  Uiso   1.00
H125   H     0.12994   0.58535   0.85478   0.00000  Uiso   1.00
H126   H     0.06816   0.45738   0.78728   0.00000  Uiso   1.00
H127   H     0.79119   0.54785   0.81448   0.00000  Uiso   1.00
H128   H     0.57695   0.34428   0.55503   0.00000  Uiso   1.00
H129   H     0.11336   0.40777   0.74602   0.00000  Uiso   1.00
O130   O     0.76042   0.64467   0.79530   0.00000  Uiso   1.00
O131   O     0.68733   0.48158   0.55890   0.00000  Uiso   1.00
O132   O     0.18309   0.46088   0.70548   0.00000  Uiso   1.00
N133   N     0.88454   0.69487   0.78595   0.00000  Uiso   1.00
N134   N     0.30752   0.81619   0.85504   0.00000  Uiso   1.00
N135   N     0.18576   0.56392   0.72196   0.00000  Uiso   1.00
N136   N     0.83098   0.59184   0.80599   0.00000  Uiso   1.00
N137   N     0.58730   0.37983   0.54174   0.00000  Uiso   1.00
N138   N     0.13220   0.46089   0.74199   0.00000  Uiso   1.00
C139   C     0.59945   0.51294   0.94194   0.00000  Uiso   1.00
C140   C     0.95223   0.25980   0.61040   0.00000  Uiso   1.00
C141   C     0.90603   0.28708   0.60480   0.00000  Uiso   1.00
C142   C     0.93413   0.36211   0.60765   0.00000  Uiso   1.00
C143   C     0.95340   0.47962   0.60921   0.00000  Uiso   1.00
C144   C     0.61244   0.49154   0.96638   0.00000  Uiso   1.00
C145   C     0.56081   0.43338   0.97984   0.00000  Uiso   1.00
C146   C     0.58348   0.42288   0.00175   0.00000  Uiso   1.00
C147   C     0.59274   0.38262   0.03847   0.00000  Uiso   1.00
C148   C     0.65751   0.51225   0.92598   0.00000  Uiso   1.00
C149   C     0.64377   0.47149   0.90546   0.00000  Uiso   1.00
C150   C     0.70437   0.47842   0.89336   0.00000  Uiso   1.00
C151   C     0.78360   0.47031   0.86734   0.00000  Uiso   1.00
C152   C     0.73151   0.59771   0.95694   0.00000  Uiso   1.00
C153   C     0.69063   0.63918   0.95188   0.00000  Uiso   1.00
C154   C     0.05213   0.38086   0.62140   0.00000  Uiso   1.00
C155   C     0.00598   0.40824   0.61581   0.00000  Uiso   1.00
C156   C     0.68417   0.53757   0.97453   0.00000  Uiso   1.00
C157   C     0.70692   0.52716   0.99643   0.00000  Uiso   1.00
C158   C     0.65533   0.46900   0.00991   0.00000  Uiso   1.00
C159   C     0.72923   0.55829   0.93412   0.00000  Uiso   1.00
C160   C     0.78987   0.56528   0.92205   0.00000  Uiso   1.00
C161   C     0.77623   0.52454   0.90152   0.00000  Uiso   1.00
H162   H     0.54361   0.47710   0.93560   0.00000  Uiso   1.00
H163   H     0.85052   0.25143   0.59850   0.00000  Uiso   1.00
H164   H     0.50531   0.39775   0.97353   0.00000  Uiso   1.00
H165   H     0.58826   0.43586   0.89916   0.00000  Uiso   1.00
H166   H     0.85286   0.39109   0.59793   0.00000  Uiso   1.00
H167   H     0.49449   0.33009   0.01917   0.00000  Uiso   1.00
H168   H     0.66938   0.41046   0.86235   0.00000  Uiso   1.00
H169   H     0.78735   0.63355   0.96328   0.00000  Uiso   1.00
H170   H     0.10764   0.41648   0.62770   0.00000  Uiso   1.00
H171   H     0.76243   0.56280   0.00273   0.00000  Uiso   1.00
H172   H     0.84537   0.60091   0.92836   0.00000  Uiso   1.00
H173   H     0.06154   0.52505   0.62164   0.00000  Uiso   1.00
H174   H     0.70317   0.46405   0.04287   0.00000  Uiso   1.00
H175   H     0.87807   0.54441   0.88606   0.00000  Uiso   1.00
O176   O     0.94421   0.53172   0.60782   0.00000  Uiso   1.00
O177   O     0.57803   0.34770   0.05647   0.00000  Uiso   1.00
O178   O     0.80749   0.45313   0.85073   0.00000  Uiso   1.00
N179   N     0.90377   0.40667   0.60382   0.00000  Uiso   1.00
N180   N     0.54702   0.37133   0.01933   0.00000  Uiso   1.00
N181   N     0.71053   0.44645   0.87273   0.00000  Uiso   1.00
N182   N     0.01606   0.47875   0.61657   0.00000  Uiso   1.00
N183   N     0.65931   0.44341   0.03209   0.00000  Uiso   1.00
N184   N     0.82282   0.51853   0.88548   0.00000  Uiso   1.00
C185   C     0.79728   0.03405   0.11921   0.00000  Uiso   1.00
C186   C     0.71637   0.00725   0.12412   0.00000  Uiso   1.00
C187   C     0.67818   0.04212   0.11710   0.00000  Uiso   1.00
C188   C     0.60447   0.00881   0.12333   0.00000  Uiso   1.00
C189   C     0.48405   0.97724   0.12903   0.00000  Uiso   1.00
C190   C     0.83295   0.04069   0.14317   0.00000  Uiso   1.00
C191   C     0.89277   0.10368   0.15215   0.00000  Uiso   1.00
C192   C     0.25053   0.76518   0.84108   0.00000  Uiso   1.00
C193   C     0.31113   0.78551   0.87633   0.00000  Uiso   1.00
C194   C     0.79938   0.97117   0.10649   0.00000  Uiso   1.00
C195   C     0.83099   0.97569   0.08463   0.00000  Uiso   1.00
C196   C     0.82717   0.91199   0.07602   0.00000  Uiso   1.00
C197   C     0.83565   0.82437   0.05432   0.00000  Uiso   1.00
C198   C     0.73430   0.91288   0.14277   0.00000  Uiso   1.00
C199   C     0.68217   0.94144   0.13692   0.00000  Uiso   1.00
C200   C     0.60850   0.90807   0.14317   0.00000  Uiso   1.00
C201   C     0.57020   0.94288   0.13615   0.00000  Uiso   1.00
C202   C     0.79874   0.97489   0.15596   0.00000  Uiso   1.00
C203   C     0.15642   0.63629   0.84488   0.00000  Uiso   1.00
C204   C     0.21626   0.69925   0.85390   0.00000  Uiso   1.00
C205   C     0.76517   0.90535   0.11929   0.00000  Uiso   1.00
C206   C     0.76130   0.84164   0.11070   0.00000  Uiso   1.00
C207   C     0.79290   0.84606   0.08884   0.00000  Uiso   1.00
H208   H     0.49059   0.41862   0.44258   0.00000  Uiso   1.00
H209   H     0.37134   0.42639   0.44053   0.00000  Uiso   1.00
H210   H     0.91924   0.15460   0.14224   0.00000  Uiso   1.00
H211   H     0.52413   0.35997   0.40807   0.00000  Uiso   1.00
H212   H     0.22406   0.40600   0.44391   0.00000  Uiso   1.00
H213   H     0.00982   0.20242   0.18446   0.00000  Uiso   1.00
H214   H     0.87956   0.93258   0.04212   0.00000  Uiso   1.00
H215   H     0.70767   0.86164   0.15274   0.00000  Uiso   1.00
H216   H     0.58204   0.85714   0.15307   0.00000  Uiso   1.00
H217   H     0.79660   0.91868   0.18811   0.00000  Uiso   1.00
H218   H     0.73483   0.79072   0.12061   0.00000  Uiso   1.00
H219   H     0.45785   0.88118   0.14781   0.00000  Uiso   1.00
H220   H     0.24362   0.67761   0.88836   0.00000  Uiso   1.00
H221   H     0.78002   0.74110   0.07935   0.00000  Uiso   1.00
O222   O     0.42708   0.97801   0.12863   0.00000  Uiso   1.00
O223   O     0.35399   0.81491   0.89223   0.00000  Uiso   1.00
O224   O     0.84976   0.79422   0.03882   0.00000  Uiso   1.00
N225   N     0.55120   0.02821   0.11929   0.00000  Uiso   1.00
N226   N     0.97419   0.14953   0.18837   0.00000  Uiso   1.00
N227   N     0.85242   0.89725   0.05529   0.00000  Uiso   1.00
N228   N     0.49764   0.92517   0.13932   0.00000  Uiso   1.00
N229   N     0.25396   0.71316   0.87507   0.00000  Uiso   1.00
N230   N     0.79886   0.79422   0.07533   0.00000  Uiso   1.00
C231   C     0.26612   0.84628   0.27527   0.00000  Uiso   1.00
C232   C     0.61890   0.59314   0.94373   0.00000  Uiso   1.00
C233   C     0.57270   0.62041   0.93814   0.00000  Uiso   1.00
C234   C     0.60079   0.69545   0.94098   0.00000  Uiso   1.00
C235   C     0.62007   0.81296   0.94254   0.00000  Uiso   1.00
C236   C     0.27911   0.82487   0.29972   0.00000  Uiso   1.00
C237   C     0.22748   0.76671   0.31317   0.00000  Uiso   1.00
C238   C     0.25015   0.75622   0.33508   0.00000  Uiso   1.00
C239   C     0.25941   0.71595   0.37180   0.00000  Uiso   1.00
C240   C     0.32417   0.84558   0.25931   0.00000  Uiso   1.00
C241   C     0.31043   0.80482   0.23879   0.00000  Uiso   1.00
C242   C     0.37104   0.81175   0.22669   0.00000  Uiso   1.00
C243   C     0.45027   0.80365   0.20067   0.00000  Uiso   1.00
C244   C     0.39817   0.93104   0.29027   0.00000  Uiso   1.00
C245   C     0.35729   0.97251   0.28521   0.00000  Uiso   1.00
C246   C     0.71880   0.71419   0.95473   0.00000  Uiso   1.00
C247   C     0.67265   0.74157   0.94914   0.00000  Uiso   1.00
C248   C     0.35083   0.87091   0.30787   0.00000  Uiso   1.00
C249   C     0.37358   0.86049   0.32976   0.00000  Uiso   1.00
C250   C     0.32200   0.80234   0.34325   0.00000  Uiso   1.00
C251   C     0.39590   0.89162   0.26746   0.00000  Uiso   1.00
C252   C     0.45654   0.89861   0.25539   0.00000  Uiso   1.00
C253   C     0.44290   0.85787   0.23485   0.00000  Uiso   1.00
H254   H     0.21028   0.81043   0.26893   0.00000  Uiso   1.00
H255   H     0.51719   0.58476   0.93184   0.00000  Uiso   1.00
H256   H     0.17198   0.73109   0.30686   0.00000  Uiso   1.00
H257   H     0.25492   0.76920   0.23249   0.00000  Uiso   1.00
H258   H     0.51952   0.72443   0.93127   0.00000  Uiso   1.00
H259   H     0.16115   0.66343   0.35250   0.00000  Uiso   1.00
H260   H     0.33605   0.74379   0.19569   0.00000  Uiso   1.00
H261   H     0.45402   0.96689   0.29661   0.00000  Uiso   1.00
H262   H     0.77431   0.74981   0.96104   0.00000  Uiso   1.00
H263   H     0.42909   0.89613   0.33606   0.00000  Uiso   1.00
H264   H     0.51204   0.93424   0.26170   0.00000  Uiso   1.00
H265   H     0.72821   0.85838   0.95497   0.00000  Uiso   1.00
H266   H     0.36984   0.79738   0.37621   0.00000  Uiso   1.00
H267   H     0.54473   0.87775   0.21939   0.00000  Uiso   1.00
O268   O     0.61088   0.86505   0.94115   0.00000  Uiso   1.00
O269   O     0.24470   0.68103   0.38981   0.00000  Uiso   1.00
O270   O     0.47416   0.78647   0.18407   0.00000  Uiso   1.00
N271   N     0.57043   0.74000   0.93715   0.00000  Uiso   1.00
N272   N     0.21369   0.70466   0.35267   0.00000  Uiso   1.00
N273   N     0.37720   0.77978   0.20606   0.00000  Uiso   1.00
N274   N     0.68272   0.81208   0.94990   0.00000  Uiso   1.00
N275   N     0.32598   0.77675   0.36542   0.00000  Uiso   1.00
N276   N     0.48949   0.85186   0.21881   0.00000  Uiso   1.00
C277   C     0.63262   0.09657   0.45254   0.00000  Uiso   1.00
C278   C     0.65941   0.04245   0.45746   0.00000  Uiso   1.00
C279   C     0.62454   0.96939   0.45043   0.00000  Uiso   1.00
C280   C     0.65785   0.92900   0.45666   0.00000  Uiso   1.00
C281   C     0.68943   0.84015   0.46236   0.00000  Uiso   1.00
C282   C     0.62597   0.12558   0.47650   0.00000  Uiso   1.00
C283   C     0.56299   0.12243   0.48548   0.00000  Uiso   1.00
C284   C     0.90149   0.81869   0.17441   0.00000  Uiso   1.00
C285   C     0.88116   0.85895   0.20966   0.00000  Uiso   1.00
C286   C     0.69550   0.16154   0.43982   0.00000  Uiso   1.00
C287   C     0.69097   0.18863   0.41797   0.00000  Uiso   1.00
C288   C     0.75467   0.24851   0.40935   0.00000  Uiso   1.00
C289   C     0.84229   0.34461   0.38765   0.00000  Uiso   1.00
C290   C     0.75378   0.15475   0.47611   0.00000  Uiso   1.00
C291   C     0.72523   0.07406   0.47026   0.00000  Uiso   1.00
C292   C     0.75860   0.03376   0.47650   0.00000  Uiso   1.00
C293   C     0.72379   0.96065   0.46948   0.00000  Uiso   1.00
C294   C     0.69178   0.15719   0.48930   0.00000  Uiso   1.00
C295   C     0.03038   0.85346   0.17822   0.00000  Uiso   1.00
C296   C     0.96742   0.85035   0.18723   0.00000  Uiso   1.00
C297   C     0.76131   0.19315   0.45262   0.00000  Uiso   1.00
C298   C     0.82503   0.25300   0.44404   0.00000  Uiso   1.00
C299   C     0.82060   0.28017   0.42217   0.00000  Uiso   1.00
H300   H     0.24805   0.40530   0.77591   0.00000  Uiso   1.00
H301   H     0.24028   0.27829   0.77386   0.00000  Uiso   1.00
H302   H     0.51207   0.09797   0.47557   0.00000  Uiso   1.00
H303   H     0.30670   0.49750   0.74140   0.00000  Uiso   1.00
H304   H     0.26067   0.15140   0.77724   0.00000  Uiso   1.00
H305   H     0.46425   0.14073   0.51779   0.00000  Uiso   1.00
H306   H     0.73409   0.28031   0.37545   0.00000  Uiso   1.00
H307   H     0.80502   0.17936   0.48607   0.00000  Uiso   1.00
H308   H     0.80953   0.05824   0.48640   0.00000  Uiso   1.00
H309   H     0.74798   0.21125   0.52145   0.00000  Uiso   1.00
H310   H     0.87595   0.27744   0.45394   0.00000  Uiso   1.00
H311   H     0.78548   0.91001   0.48114   0.00000  Uiso   1.00
H312   H     0.98906   0.89935   0.22170   0.00000  Uiso   1.00
H313   H     0.92557   0.37226   0.41268   0.00000  Uiso   1.00
O314   O     0.68866   0.78241   0.46197   0.00000  Uiso   1.00
O315   O     0.85176   0.87242   0.22557   0.00000  Uiso   1.00
O316   O     0.87245   0.38887   0.37215   0.00000  Uiso   1.00
N317   N     0.63846   0.85633   0.45262   0.00000  Uiso   1.00
N318   N     0.51714   0.15799   0.52170   0.00000  Uiso   1.00
N319   N     0.76941   0.28850   0.38862   0.00000  Uiso   1.00
N320   N     0.74149   0.90580   0.47266   0.00000  Uiso   1.00
N321   N     0.95351   0.87414   0.20840   0.00000  Uiso   1.00
N322   N     0.87245   0.33798   0.40866   0.00000  Uiso   1.00
C323   C     0.82039   0.75317   0.60860   0.00000  Uiso   1.00
C324   C     0.07353   0.35910   0.27706   0.00000  Uiso   1.00
C325   C     0.04626   0.28562   0.27147   0.00000  Uiso   1.00
C326   C     0.97122   0.23868   0.27432   0.00000  Uiso   1.00
C327   C     0.85371   0.14044   0.27587   0.00000  Uiso   1.00
C328   C     0.84180   0.78757   0.63305   0.00000  Uiso   1.00
C329   C     0.89996   0.79410   0.64650   0.00000  Uiso   1.00
C330   C     0.91045   0.82726   0.66842   0.00000  Uiso   1.00
C331   C     0.95071   0.87679   0.70514   0.00000  Uiso   1.00
C332   C     0.82109   0.81192   0.59264   0.00000  Uiso   1.00
C333   C     0.86185   0.83895   0.57212   0.00000  Uiso   1.00
C334   C     0.85492   0.89262   0.56002   0.00000  Uiso   1.00
C335   C     0.86302   0.97996   0.53400   0.00000  Uiso   1.00
C336   C     0.73562   0.80046   0.62360   0.00000  Uiso   1.00
C337   C     0.69416   0.71812   0.61855   0.00000  Uiso   1.00
C338   C     0.95247   0.33794   0.28807   0.00000  Uiso   1.00
C339   C     0.92509   0.26441   0.28248   0.00000  Uiso   1.00
C340   C     0.79576   0.81326   0.64120   0.00000  Uiso   1.00
C341   C     0.80617   0.84642   0.66310   0.00000  Uiso   1.00
C342   C     0.86433   0.85300   0.67658   0.00000  Uiso   1.00
C343   C     0.77504   0.83761   0.60079   0.00000  Uiso   1.00
C344   C     0.76806   0.89126   0.58872   0.00000  Uiso   1.00
C345   C     0.80879   0.91836   0.56818   0.00000  Uiso   1.00
H346   H     0.85624   0.73318   0.60226   0.00000  Uiso   1.00
H347   H     0.08191   0.26576   0.26517   0.00000  Uiso   1.00
H348   H     0.93558   0.77423   0.64019   0.00000  Uiso   1.00
H349   H     0.89747   0.81906   0.56583   0.00000  Uiso   1.00
H350   H     0.94224   0.12843   0.26460   0.00000  Uiso   1.00
H351   H     0.00324   0.83106   0.68584   0.00000  Uiso   1.00
H352   H     0.92288   0.92559   0.52902   0.00000  Uiso   1.00
H353   H     0.69978   0.82046   0.62995   0.00000  Uiso   1.00
H354   H     0.91686   0.35783   0.29437   0.00000  Uiso   1.00
H355   H     0.77054   0.86630   0.66939   0.00000  Uiso   1.00
H356   H     0.73242   0.91113   0.59503   0.00000  Uiso   1.00
H357   H     0.80828   0.20316   0.28830   0.00000  Uiso   1.00
H358   H     0.86929   0.90579   0.70954   0.00000  Uiso   1.00
H359   H     0.78892   0.00032   0.55272   0.00000  Uiso   1.00
O360   O     0.80161   0.07916   0.27449   0.00000  Uiso   1.00
O361   O     0.98564   0.89700   0.72314   0.00000  Uiso   1.00
O362   O     0.88020   0.02103   0.51740   0.00000  Uiso   1.00
N363   N     0.92667   0.16376   0.27048   0.00000  Uiso   1.00
N364   N     0.96200   0.84235   0.68600   0.00000  Uiso   1.00
N365   N     0.88689   0.93075   0.53939   0.00000  Uiso   1.00
N366   N     0.85458   0.20397   0.28324   0.00000  Uiso   1.00
N367   N     0.88992   0.88256   0.69875   0.00000  Uiso   1.00
N368   N     0.81480   0.97096   0.55215   0.00000  Uiso   1.00
C369   C     0.29929   0.42990   0.78588   0.00000  Uiso   1.00
C370   C     0.32608   0.37579   0.79079   0.00000  Uiso   1.00
C371   C     0.29121   0.30273   0.78377   0.00000  Uiso   1.00
C372   C     0.32452   0.26233   0.79000   0.00000  Uiso   1.00
C373   C     0.35610   0.17348   0.79569   0.00000  Uiso   1.00
C374   C     0.29264   0.45892   0.80983   0.00000  Uiso   1.00
C375   C     0.22965   0.45576   0.81882   0.00000  Uiso   1.00
C376   C     0.56815   0.15202   0.50774   0.00000  Uiso   1.00
C377   C     0.54782   0.19228   0.54299   0.00000  Uiso   1.00
C378   C     0.36217   0.49488   0.77316   0.00000  Uiso   1.00
C379   C     0.35764   0.52197   0.75130   0.00000  Uiso   1.00
C380   C     0.42134   0.58185   0.74269   0.00000  Uiso   1.00
C381   C     0.50896   0.67794   0.72099   0.00000  Uiso   1.00
C382   C     0.42045   0.48809   0.80944   0.00000  Uiso   1.00
C383   C     0.39189   0.40739   0.80359   0.00000  Uiso   1.00
C384   C     0.42527   0.36710   0.80983   0.00000  Uiso   1.00
C385   C     0.39045   0.29399   0.80282   0.00000  Uiso   1.00
C386   C     0.35845   0.49052   0.82263   0.00000  Uiso   1.00
C387   C     0.69704   0.18680   0.51155   0.00000  Uiso   1.00
C388   C     0.63408   0.18368   0.52056   0.00000  Uiso   1.00
C389   C     0.42798   0.52648   0.78595   0.00000  Uiso   1.00
C390   C     0.49170   0.58633   0.77737   0.00000  Uiso   1.00
C391   C     0.48727   0.61351   0.75551   0.00000  Uiso   1.00
H392   H     0.91471   0.73863   0.10925   0.00000  Uiso   1.00
H393   H     0.90694   0.61162   0.10720   0.00000  Uiso   1.00
H394   H     0.17874   0.43131   0.80891   0.00000  Uiso   1.00
H395   H     0.97337   0.83083   0.07474   0.00000  Uiso   1.00
H396   H     0.92734   0.48473   0.11057   0.00000  Uiso   1.00
H397   H     0.13091   0.47407   0.85113   0.00000  Uiso   1.00
H398   H     0.40075   0.61365   0.70878   0.00000  Uiso   1.00
H399   H     0.47169   0.51269   0.81940   0.00000  Uiso   1.00
H400   H     0.47620   0.39157   0.81974   0.00000  Uiso   1.00
H401   H     0.41465   0.54459   0.85478   0.00000  Uiso   1.00
H402   H     0.54262   0.61078   0.78728   0.00000  Uiso   1.00
H403   H     0.45215   0.24334   0.81448   0.00000  Uiso   1.00
H404   H     0.65572   0.23268   0.55503   0.00000  Uiso   1.00
H405   H     0.59223   0.70559   0.74602   0.00000  Uiso   1.00
O406   O     0.35533   0.11574   0.79530   0.00000  Uiso   1.00
O407   O     0.51842   0.20575   0.55890   0.00000  Uiso   1.00
O408   O     0.53912   0.72221   0.70548   0.00000  Uiso   1.00
N409   N     0.30513   0.18966   0.78595   0.00000  Uiso   1.00
N410   N     0.18381   0.49133   0.85504   0.00000  Uiso   1.00
N411   N     0.43608   0.62184   0.72196   0.00000  Uiso   1.00
N412   N     0.40816   0.23914   0.80599   0.00000  Uiso   1.00
N413   N     0.62017   0.20747   0.54174   0.00000  Uiso   1.00
N414   N     0.53911   0.67131   0.74199   0.00000  Uiso   1.00
C415   C     0.48706   0.08651   0.94194   0.00000  Uiso   1.00
C416   C     0.74020   0.69243   0.61040   0.00000  Uiso   1.00
C417   C     0.71292   0.61895   0.60480   0.00000  Uiso   1.00
C418   C     0.63789   0.57201   0.60765   0.00000  Uiso   1.00
C419   C     0.52038   0.47378   0.60921   0.00000  Uiso   1.00
C420   C     0.50846   0.12091   0.96638   0.00000  Uiso   1.00
C421   C     0.56662   0.12744   0.97984   0.00000  Uiso   1.00
C422   C     0.57712   0.16060   0.00175   0.00000  Uiso   1.00
C423   C     0.61738   0.21012   0.03847   0.00000  Uiso   1.00
C424   C     0.48775   0.14526   0.92598   0.00000  Uiso   1.00
C425   C     0.52851   0.17228   0.90546   0.00000  Uiso   1.00
C426   C     0.52158   0.22596   0.89336   0.00000  Uiso   1.00
C427   C     0.52969   0.31329   0.86734   0.00000  Uiso   1.00
C428   C     0.40229   0.13380   0.95694   0.00000  Uiso   1.00
C429   C     0.36082   0.05145   0.95188   0.00000  Uiso   1.00
C430   C     0.61914   0.67127   0.62140   0.00000  Uiso   1.00
C431   C     0.59176   0.59774   0.61581   0.00000  Uiso   1.00
C432   C     0.46243   0.14659   0.97453   0.00000  Uiso   1.00
C433   C     0.47284   0.17976   0.99643   0.00000  Uiso   1.00
C434   C     0.53100   0.18633   0.00991   0.00000  Uiso   1.00
C435   C     0.44171   0.17094   0.93412   0.00000  Uiso   1.00
C436   C     0.43472   0.22459   0.92205   0.00000  Uiso   1.00
C437   C     0.47546   0.25169   0.90152   0.00000  Uiso   1.00
H438   H     0.52290   0.06651   0.93560   0.00000  Uiso   1.00
H439   H     0.74857   0.59910   0.59850   0.00000  Uiso   1.00
H440   H     0.60225   0.10756   0.97353   0.00000  Uiso   1.00
H441   H     0.56414   0.15239   0.89916   0.00000  Uiso   1.00
H442   H     0.60891   0.46176   0.59793   0.00000  Uiso   1.00
H443   H     0.66991   0.16439   0.01917   0.00000  Uiso   1.00
H444   H     0.58954   0.25893   0.86235   0.00000  Uiso   1.00
H445   H     0.36645   0.15380   0.96328   0.00000  Uiso   1.00
H446   H     0.58352   0.69117   0.62770   0.00000  Uiso   1.00
H447   H     0.43720   0.19963   0.00273   0.00000  Uiso   1.00
H448   H     0.39909   0.24446   0.92836   0.00000  Uiso   1.00
H449   H     0.47495   0.53649   0.62164   0.00000  Uiso   1.00
H450   H     0.53595   0.23912   0.04287   0.00000  Uiso   1.00
H451   H     0.45559   0.33365   0.88606   0.00000  Uiso   1.00
O452   O     0.46828   0.41249   0.60782   0.00000  Uiso   1.00
O453   O     0.65230   0.23034   0.05647   0.00000  Uiso   1.00
O454   O     0.54687   0.35436   0.85073   0.00000  Uiso   1.00
N455   N     0.59333   0.49710   0.60382   0.00000  Uiso   1.00
N456   N     0.62867   0.17569   0.01933   0.00000  Uiso   1.00
N457   N     0.55355   0.26409   0.87273   0.00000  Uiso   1.00
N458   N     0.52125   0.53731   0.61657   0.00000  Uiso   1.00
N459   N     0.55659   0.21590   0.03209   0.00000  Uiso   1.00
N460   N     0.48147   0.30430   0.88548   0.00000  Uiso   1.00
C461   C     0.96595   0.76324   0.11921   0.00000  Uiso   1.00
C462   C     0.99275   0.70912   0.12412   0.00000  Uiso   1.00
C463   C     0.95788   0.63606   0.11710   0.00000  Uiso   1.00
C464   C     0.99119   0.59566   0.12333   0.00000  Uiso   1.00
C465   C     0.02276   0.50682   0.12903   0.00000  Uiso   1.00
C466   C     0.95931   0.79225   0.14317   0.00000  Uiso   1.00
C467   C     0.89632   0.78909   0.15215   0.00000  Uiso   1.00
C468   C     0.23482   0.48535   0.84108   0.00000  Uiso   1.00
C469   C     0.21449   0.52562   0.87633   0.00000  Uiso   1.00
C470   C     0.02883   0.82821   0.10649   0.00000  Uiso   1.00
C471   C     0.02431   0.85530   0.08463   0.00000  Uiso   1.00
C472   C     0.08801   0.91518   0.07602   0.00000  Uiso   1.00
C473   C     0.17563   0.01127   0.05432   0.00000  Uiso   1.00
C474   C     0.08712   0.82142   0.14277   0.00000  Uiso   1.00
C475   C     0.05856   0.74073   0.13692   0.00000  Uiso   1.00
C476   C     0.09193   0.70043   0.14317   0.00000  Uiso   1.00
C477   C     0.05712   0.62732   0.13615   0.00000  Uiso   1.00
C478   C     0.02511   0.82385   0.15596   0.00000  Uiso   1.00
C479   C     0.36371   0.52013   0.84488   0.00000  Uiso   1.00
C480   C     0.30075   0.51701   0.85390   0.00000  Uiso   1.00
C481   C     0.09465   0.85981   0.11929   0.00000  Uiso   1.00
C482   C     0.15836   0.91967   0.11070   0.00000  Uiso   1.00
C483   C     0.15394   0.94684   0.08884   0.00000  Uiso   1.00
H484   H     0.58138   0.07197   0.44258   0.00000  Uiso   1.00
H485   H     0.57361   0.94495   0.44053   0.00000  Uiso   1.00
H486   H     0.84540   0.76464   0.14224   0.00000  Uiso   1.00
H487   H     0.64003   0.16416   0.40807   0.00000  Uiso   1.00
H488   H     0.59400   0.81806   0.44391   0.00000  Uiso   1.00
H489   H     0.79758   0.80740   0.18446   0.00000  Uiso   1.00
H490   H     0.06742   0.94698   0.04212   0.00000  Uiso   1.00
H491   H     0.13836   0.84603   0.15274   0.00000  Uiso   1.00
H492   H     0.14286   0.72490   0.15307   0.00000  Uiso   1.00
H493   H     0.08132   0.87792   0.18811   0.00000  Uiso   1.00
H494   H     0.20928   0.94411   0.12061   0.00000  Uiso   1.00
H495   H     0.11882   0.57667   0.14781   0.00000  Uiso   1.00
H496   H     0.32239   0.56601   0.88836   0.00000  Uiso   1.00
H497   H     0.25890   0.03892   0.07935   0.00000  Uiso   1.00
O498   O     0.02199   0.44908   0.12863   0.00000  Uiso   1.00
O499   O     0.18509   0.53909   0.89223   0.00000  Uiso   1.00
O500   O     0.20578   0.05554   0.03882   0.00000  Uiso   1.00
N501   N     0.97179   0.52300   0.11929   0.00000  Uiso   1.00
N502   N     0.85047   0.82466   0.18837   0.00000  Uiso   1.00
N503   N     0.10275   0.95517   0.05529   0.00000  Uiso   1.00
N504   N     0.07483   0.57247   0.13932   0.00000  Uiso   1.00
N505   N     0.28684   0.54080   0.87507   0.00000  Uiso   1.00
N506   N     0.20578   0.00464   0.07533   0.00000  Uiso   1.00
C507   C     0.15372   0.41984   0.27527   0.00000  Uiso   1.00
C508   C     0.40686   0.02576   0.94373   0.00000  Uiso   1.00
C509   C     0.37959   0.95229   0.93814   0.00000  Uiso   1.00
C510   C     0.30455   0.90534   0.94098   0.00000  Uiso   1.00
C511   C     0.18704   0.80711   0.94254   0.00000  Uiso   1.00
C512   C     0.17513   0.45424   0.29972   0.00000  Uiso   1.00
C513   C     0.23329   0.46077   0.31317   0.00000  Uiso   1.00
C514   C     0.24378   0.49393   0.33508   0.00000  Uiso   1.00
C515   C     0.28405   0.54346   0.37180   0.00000  Uiso   1.00
C516   C     0.15442   0.47859   0.25931   0.00000  Uiso   1.00
C517   C     0.19518   0.50561   0.23879   0.00000  Uiso   1.00
C518   C     0.18825   0.55929   0.22669   0.00000  Uiso   1.00
C519   C     0.19635   0.64663   0.20067   0.00000  Uiso   1.00
C520   C     0.06896   0.46713   0.29027   0.00000  Uiso   1.00
C521   C     0.02749   0.38478   0.28521   0.00000  Uiso   1.00
C522   C     0.28581   0.00461   0.95473   0.00000  Uiso   1.00
C523   C     0.25843   0.93108   0.94914   0.00000  Uiso   1.00
C524   C     0.12909   0.47993   0.30787   0.00000  Uiso   1.00
C525   C     0.13951   0.51309   0.32976   0.00000  Uiso   1.00
C526   C     0.19766   0.51966   0.34325   0.00000  Uiso   1.00
C527   C     0.10838   0.50428   0.26746   0.00000  Uiso   1.00
C528   C     0.10139   0.55793   0.25539   0.00000  Uiso   1.00
C529   C     0.14213   0.58502   0.23485   0.00000  Uiso   1.00
H530   H     0.18957   0.39985   0.26893   0.00000  Uiso   1.00
H531   H     0.41524   0.93243   0.93184   0.00000  Uiso   1.00
H532   H     0.26891   0.44089   0.30686   0.00000  Uiso   1.00
H533   H     0.23080   0.48572   0.23249   0.00000  Uiso   1.00
H534   H     0.27557   0.79510   0.93127   0.00000  Uiso   1.00
H535   H     0.33657   0.49772   0.35250   0.00000  Uiso   1.00
H536   H     0.25621   0.59226   0.19569   0.00000  Uiso   1.00
H537   H     0.03311   0.48713   0.29661   0.00000  Uiso   1.00
H538   H     0.25019   0.02450   0.96104   0.00000  Uiso   1.00
H539   H     0.10387   0.53296   0.33606   0.00000  Uiso   1.00
H540   H     0.06576   0.57779   0.26170   0.00000  Uiso   1.00
H541   H     0.14162   0.86982   0.95497   0.00000  Uiso   1.00
H542   H     0.20262   0.57245   0.37621   0.00000  Uiso   1.00
H543   H     0.12225   0.66699   0.21939   0.00000  Uiso   1.00
O544   O     0.13495   0.74583   0.94115   0.00000  Uiso   1.00
O545   O     0.31897   0.56367   0.38981   0.00000  Uiso   1.00
O546   O     0.21353   0.68769   0.18407   0.00000  Uiso   1.00
N547   N     0.26000   0.83043   0.93715   0.00000  Uiso   1.00
N548   N     0.29534   0.50902   0.35267   0.00000  Uiso   1.00
N549   N     0.22022   0.59742   0.20606   0.00000  Uiso   1.00
N550   N     0.18792   0.87064   0.94990   0.00000  Uiso   1.00
N551   N     0.22325   0.54923   0.36542   0.00000  Uiso   1.00
N552   N     0.14814   0.63763   0.21881   0.00000  Uiso   1.00
C553   C     0.90343   0.53605   0.45254   0.00000  Uiso   1.00
C554   C     0.95755   0.61696   0.45746   0.00000  Uiso   1.00
C555   C     0.03061   0.65515   0.45043   0.00000  Uiso   1.00
C556   C     0.07100   0.72886   0.45666   0.00000  Uiso   1.00
C557   C     0.15985   0.84928   0.46236   0.00000  Uiso   1.00
C558   C     0.87442   0.50039   0.47650   0.00000  Uiso   1.00
C559   C     0.87757   0.44056   0.48548   0.00000  Uiso   1.00
C560   C     0.18131   0.08280   0.17441   0.00000  Uiso   1.00
C561   C     0.14105   0.02221   0.20966   0.00000  Uiso   1.00
C562   C     0.83846   0.53396   0.43982   0.00000  Uiso   1.00
C563   C     0.81137   0.50234   0.41797   0.00000  Uiso   1.00
C564   C     0.75149   0.50616   0.40935   0.00000  Uiso   1.00
C565   C     0.65539   0.49769   0.38765   0.00000  Uiso   1.00
C566   C     0.84525   0.59903   0.47611   0.00000  Uiso   1.00
C567   C     0.92594   0.65117   0.47026   0.00000  Uiso   1.00
C568   C     0.96624   0.72484   0.47650   0.00000  Uiso   1.00
C569   C     0.03935   0.76313   0.46948   0.00000  Uiso   1.00
C570   C     0.84281   0.53459   0.48930   0.00000  Uiso   1.00
C571   C     0.14654   0.17691   0.17822   0.00000  Uiso   1.00
C572   C     0.14965   0.11707   0.18723   0.00000  Uiso   1.00
C573   C     0.80685   0.56817   0.45262   0.00000  Uiso   1.00
C574   C     0.74700   0.57203   0.44404   0.00000  Uiso   1.00
C575   C     0.71983   0.54043   0.42217   0.00000  Uiso   1.00
H576   H     0.59470   0.84274   0.77591   0.00000  Uiso   1.00
H577   H     0.72171   0.96199   0.77386   0.00000  Uiso   1.00
H578   H     0.90203   0.41410   0.47557   0.00000  Uiso   1.00
H579   H     0.50250   0.80920   0.74140   0.00000  Uiso   1.00
H580   H     0.84860   0.10928   0.77724   0.00000  Uiso   1.00
H581   H     0.85927   0.32351   0.51779   0.00000  Uiso   1.00
H582   H     0.71969   0.45377   0.37545   0.00000  Uiso   1.00
H583   H     0.82064   0.62566   0.48607   0.00000  Uiso   1.00
H584   H     0.94176   0.75129   0.48640   0.00000  Uiso   1.00
H585   H     0.78875   0.53673   0.52145   0.00000  Uiso   1.00
H586   H     0.72256   0.59851   0.45394   0.00000  Uiso   1.00
H587   H     0.08999   0.87548   0.48114   0.00000  Uiso   1.00
H588   H     0.10065   0.08971   0.22170   0.00000  Uiso   1.00
H589   H     0.62774   0.55331   0.41268   0.00000  Uiso   1.00
O590   O     0.21759   0.90625   0.46197   0.00000  Uiso   1.00
O591   O     0.12758   0.97934   0.22557   0.00000  Uiso   1.00
O592   O     0.61113   0.48357   0.37215   0.00000  Uiso   1.00
N593   N     0.14367   0.78213   0.45262   0.00000  Uiso   1.00
N594   N     0.84201   0.35914   0.52170   0.00000  Uiso   1.00
N595   N     0.71150   0.48091   0.38862   0.00000  Uiso   1.00
N596   N     0.09420   0.83569   0.47266   0.00000  Uiso   1.00
N597   N     0.12586   0.07937   0.20840   0.00000  Uiso   1.00
N598   N     0.66202   0.53447   0.40866   0.00000  Uiso   1.00
C599   C     0.24683   0.06721   0.60860   0.00000  Uiso   1.00
C600   C     0.64090   0.71443   0.27706   0.00000  Uiso   1.00
C601   C     0.71438   0.76063   0.27147   0.00000  Uiso   1.00
C602   C     0.76132   0.73254   0.27432   0.00000  Uiso   1.00
C603   C     0.85956   0.71327   0.27587   0.00000  Uiso   1.00
C604   C     0.21243   0.05422   0.63305   0.00000  Uiso   1.00
C605   C     0.20590   0.10585   0.64650   0.00000  Uiso   1.00
C606   C     0.17274   0.08319   0.66842   0.00000  Uiso   1.00
C607   C     0.12321   0.07392   0.70514   0.00000  Uiso   1.00
C608   C     0.18808   0.00916   0.59264   0.00000  Uiso   1.00
C609   C     0.16105   0.02290   0.57212   0.00000  Uiso   1.00
C610   C     0.10738   0.96229   0.56002   0.00000  Uiso   1.00
C611   C     0.02004   0.88306   0.53400   0.00000  Uiso   1.00
C612   C     0.19954   0.93516   0.62360   0.00000  Uiso   1.00
C613   C     0.28188   0.97604   0.61855   0.00000  Uiso   1.00
C614   C     0.66206   0.61453   0.28807   0.00000  Uiso   1.00
C615   C     0.73559   0.66068   0.28248   0.00000  Uiso   1.00
C616   C     0.18674   0.98250   0.64120   0.00000  Uiso   1.00
C617   C     0.15358   0.95975   0.66310   0.00000  Uiso   1.00
C618   C     0.14700   0.01133   0.67658   0.00000  Uiso   1.00
C619   C     0.16239   0.93743   0.60079   0.00000  Uiso   1.00
C620   C     0.10874   0.87680   0.58872   0.00000  Uiso   1.00
C621   C     0.08164   0.89044   0.56818   0.00000  Uiso   1.00
H622   H     0.26682   0.12306   0.60226   0.00000  Uiso   1.00
H623   H     0.73424   0.81614   0.26517   0.00000  Uiso   1.00
H624   H     0.22577   0.16135   0.64019   0.00000  Uiso   1.00
H625   H     0.18094   0.07841   0.56583   0.00000  Uiso   1.00
H626   H     0.87157   0.81381   0.26460   0.00000  Uiso   1.00
H627   H     0.16894   0.17218   0.68584   0.00000  Uiso   1.00
H628   H     0.07441   0.99728   0.52902   0.00000  Uiso   1.00
H629   H     0.17954   0.87932   0.62995   0.00000  Uiso   1.00
H630   H     0.64217   0.55902   0.29437   0.00000  Uiso   1.00
H631   H     0.13370   0.90424   0.66939   0.00000  Uiso   1.00
H632   H     0.08887   0.82130   0.59503   0.00000  Uiso   1.00
H633   H     0.79684   0.60513   0.28830   0.00000  Uiso   1.00
H634   H     0.09421   0.96350   0.70954   0.00000  Uiso   1.00
H635   H     0.99968   0.78860   0.55272   0.00000  Uiso   1.00
O636   O     0.92084   0.72245   0.27449   0.00000  Uiso   1.00
O637   O     0.10300   0.08863   0.72314   0.00000  Uiso   1.00
O638   O     0.97897   0.85917   0.51740   0.00000  Uiso   1.00
N639   N     0.83624   0.76290   0.27048   0.00000  Uiso   1.00
N640   N     0.15765   0.11965   0.68600   0.00000  Uiso   1.00
N641   N     0.06925   0.95613   0.53939   0.00000  Uiso   1.00
N642   N     0.79603   0.65061   0.28324   0.00000  Uiso   1.00
N643   N     0.11744   0.00736   0.69875   0.00000  Uiso   1.00
N644   N     0.02904   0.84384   0.55215   0.00000  Uiso   1.00
C645   C     0.57010   0.86938   0.78588   0.00000  Uiso   1.00
C646   C     0.62421   0.95029   0.79079   0.00000  Uiso   1.00
C647   C     0.69727   0.98849   0.78377   0.00000  Uiso   1.00
C648   C     0.73767   0.06219   0.79000   0.00000  Uiso   1.00
C649   C     0.82652   0.18261   0.79569   0.00000  Uiso   1.00
C650   C     0.54108   0.83372   0.80983   0.00000  Uiso   1.00
C651   C     0.54424   0.77390   0.81882   0.00000  Uiso   1.00
C652   C     0.84798   0.41613   0.50774   0.00000  Uiso   1.00
C653   C     0.80772   0.35554   0.54299   0.00000  Uiso   1.00
C654   C     0.50512   0.86729   0.77316   0.00000  Uiso   1.00
C655   C     0.47803   0.83567   0.75130   0.00000  Uiso   1.00
C656   C     0.41815   0.83949   0.74269   0.00000  Uiso   1.00
C657   C     0.32206   0.83102   0.72099   0.00000  Uiso   1.00
C658   C     0.51191   0.93236   0.80944   0.00000  Uiso   1.00
C659   C     0.59261   0.98450   0.80359   0.00000  Uiso   1.00
C660   C     0.63290   0.05817   0.80983   0.00000  Uiso   1.00
C661   C     0.70601   0.09647   0.80282   0.00000  Uiso   1.00
C662   C     0.50948   0.86793   0.82263   0.00000  Uiso   1.00
C663   C     0.81320   0.51025   0.51155   0.00000  Uiso   1.00
C664   C     0.81632   0.45040   0.52056   0.00000  Uiso   1.00
C665   C     0.47352   0.90150   0.78595   0.00000  Uiso   1.00
C666   C     0.41367   0.90536   0.77737   0.00000  Uiso   1.00
C667   C     0.38649   0.87376   0.75551   0.00000  Uiso   1.00
H668   H     0.26137   0.17608   0.10925   0.00000  Uiso   1.00
H669   H     0.38838   0.29532   0.10720   0.00000  Uiso   1.00
H670   H     0.56869   0.74743   0.80891   0.00000  Uiso   1.00
H671   H     0.16917   0.14254   0.07474   0.00000  Uiso   1.00
H672   H     0.51527   0.44261   0.11057   0.00000  Uiso   1.00
H673   H     0.52593   0.65685   0.85113   0.00000  Uiso   1.00
H674   H     0.38635   0.78711   0.70878   0.00000  Uiso   1.00
H675   H     0.48731   0.95900   0.81940   0.00000  Uiso   1.00
H676   H     0.60843   0.08463   0.81974   0.00000  Uiso   1.00
H677   H     0.45541   0.87006   0.85478   0.00000  Uiso   1.00
H678   H     0.38922   0.93184   0.78728   0.00000  Uiso   1.00
H679   H     0.75666   0.20881   0.81448   0.00000  Uiso   1.00
H680   H     0.76732   0.42305   0.55503   0.00000  Uiso   1.00
H681   H     0.29441   0.88664   0.74602   0.00000  Uiso   1.00
O682   O     0.88426   0.23958   0.79530   0.00000  Uiso   1.00
O683   O     0.79425   0.31267   0.55890   0.00000  Uiso   1.00
O684   O     0.27779   0.81691   0.70548   0.00000  Uiso   1.00
N685   N     0.81034   0.11546   0.78595   0.00000  Uiso   1.00
N686   N     0.50867   0.69248   0.85504   0.00000  Uiso   1.00
N687   N     0.37816   0.81424   0.72196   0.00000  Uiso   1.00
N688   N     0.76086   0.16902   0.80599   0.00000  Uiso   1.00
N689   N     0.79253   0.41270   0.54174   0.00000  Uiso   1.00
N690   N     0.32869   0.86780   0.74199   0.00000  Uiso   1.00
C691   C     0.91349   0.40055   0.94194   0.00000  Uiso   1.00
C692   C     0.30757   0.04777   0.61040   0.00000  Uiso   1.00
C693   C     0.38105   0.09397   0.60480   0.00000  Uiso   1.00
C694   C     0.42799   0.06587   0.60765   0.00000  Uiso   1.00
C695   C     0.52622   0.04660   0.60921   0.00000  Uiso   1.00
C696   C     0.87909   0.38756   0.96638   0.00000  Uiso   1.00
C697   C     0.87256   0.43919   0.97984   0.00000  Uiso   1.00
C698   C     0.83940   0.41652   0.00175   0.00000  Uiso   1.00
C699   C     0.78988   0.40726   0.03847   0.00000  Uiso   1.00
C700   C     0.85474   0.34249   0.92598   0.00000  Uiso   1.00
C701   C     0.82772   0.35623   0.90546   0.00000  Uiso   1.00
C702   C     0.77404   0.29563   0.89336   0.00000  Uiso   1.00
C703   C     0.68671   0.21640   0.86734   0.00000  Uiso   1.00
C704   C     0.86620   0.26849   0.95694   0.00000  Uiso   1.00
C705   C     0.94855   0.30937   0.95188   0.00000  Uiso   1.00
C706   C     0.32873   0.94787   0.62140   0.00000  Uiso   1.00
C707   C     0.40226   0.99402   0.61581   0.00000  Uiso   1.00
C708   C     0.85341   0.31583   0.97453   0.00000  Uiso   1.00
C709   C     0.82024   0.29308   0.99643   0.00000  Uiso   1.00
C710   C     0.81367   0.34467   0.00991   0.00000  Uiso   1.00
C711   C     0.82906   0.27077   0.93412   0.00000  Uiso   1.00
C712   C     0.77541   0.21013   0.92205   0.00000  Uiso   1.00
C713   C     0.74831   0.22377   0.90152   0.00000  Uiso   1.00
H714   H     0.93349   0.45639   0.93560   0.00000  Uiso   1.00
H715   H     0.40090   0.14948   0.59850   0.00000  Uiso   1.00
H716   H     0.89244   0.49469   0.97353   0.00000  Uiso   1.00
H717   H     0.84761   0.41174   0.89916   0.00000  Uiso   1.00
H718   H     0.53824   0.14714   0.59793   0.00000  Uiso   1.00
H719   H     0.83561   0.50551   0.01917   0.00000  Uiso   1.00
H720   H     0.74107   0.33062   0.86235   0.00000  Uiso   1.00
H721   H     0.84620   0.21265   0.96328   0.00000  Uiso   1.00
H722   H     0.30883   0.89236   0.62770   0.00000  Uiso   1.00
H723   H     0.80037   0.23757   0.00273   0.00000  Uiso   1.00
H724   H     0.75554   0.15463   0.92836   0.00000  Uiso   1.00
H725   H     0.46351   0.93846   0.62164   0.00000  Uiso   1.00
H726   H     0.76088   0.29683   0.04287   0.00000  Uiso   1.00
H727   H     0.66635   0.12193   0.88606   0.00000  Uiso   1.00
O728   O     0.58751   0.05579   0.60782   0.00000  Uiso   1.00
O729   O     0.76966   0.42197   0.05647   0.00000  Uiso   1.00
O730   O     0.64564   0.19251   0.85073   0.00000  Uiso   1.00
N731   N     0.50290   0.09623   0.60382   0.00000  Uiso   1.00
N732   N     0.82431   0.45298   0.01933   0.00000  Uiso   1.00
N733   N     0.73591   0.28947   0.87273   0.00000  Uiso   1.00
N734   N     0.46269   0.98394   0.61657   0.00000  Uiso   1.00
N735   N     0.78410   0.34069   0.03209   0.00000  Uiso   1.00
N736   N     0.69570   0.17718   0.88548   0.00000  Uiso   1.00
C737   C     0.23676   0.20272   0.11921   0.00000  Uiso   1.00
C738   C     0.29088   0.28363   0.12412   0.00000  Uiso   1.00
C739   C     0.36394   0.32182   0.11710   0.00000  Uiso   1.00
C740   C     0.40434   0.39553   0.12333   0.00000  Uiso   1.00
C741   C     0.49318   0.51595   0.12903   0.00000  Uiso   1.00
C742   C     0.20775   0.16705   0.14317   0.00000  Uiso   1.00
C743   C     0.21091   0.10723   0.15215   0.00000  Uiso   1.00
C744   C     0.51465   0.74947   0.84108   0.00000  Uiso   1.00
C745   C     0.47438   0.68887   0.87633   0.00000  Uiso   1.00
C746   C     0.17179   0.20062   0.10649   0.00000  Uiso   1.00
C747   C     0.14470   0.16901   0.08463   0.00000  Uiso   1.00
C748   C     0.08482   0.17283   0.07602   0.00000  Uiso   1.00
C749   C     0.98873   0.16435   0.05432   0.00000  Uiso   1.00
C750   C     0.17858   0.26570   0.14277   0.00000  Uiso   1.00
C751   C     0.25927   0.31783   0.13692   0.00000  Uiso   1.00
C752   C     0.29957   0.39150   0.14317   0.00000  Uiso   1.00
C753   C     0.37268   0.42980   0.13615   0.00000  Uiso   1.00
C754   C     0.17615   0.20126   0.15596   0.00000  Uiso   1.00
C755   C     0.47987   0.84358   0.84488   0.00000  Uiso   1.00
C756   C     0.48299   0.78374   0.85390   0.00000  Uiso   1.00
C757   C     0.14019   0.23483   0.11929   0.00000  Uiso   1.00
C758   C     0.08033   0.23870   0.11070   0.00000  Uiso   1.00
C759   C     0.05316   0.20710   0.08884   0.00000  Uiso   1.00
H760   H     0.92803   0.50941   0.44258   0.00000  Uiso   1.00
H761   H     0.05505   0.62866   0.44053   0.00000  Uiso   1.00
H762   H     0.23536   0.08076   0.14224   0.00000  Uiso   1.00
H763   H     0.83584   0.47587   0.40807   0.00000  Uiso   1.00
H764   H     0.18194   0.77594   0.44391   0.00000  Uiso   1.00
H765   H     0.19260   0.99018   0.18446   0.00000  Uiso   1.00
H766   H     0.05302   0.12044   0.04212   0.00000  Uiso   1.00
H767   H     0.15397   0.29233   0.15274   0.00000  Uiso   1.00
H768   H     0.27510   0.41796   0.15307   0.00000  Uiso   1.00
H769   H     0.12208   0.20340   0.18811   0.00000  Uiso   1.00
H770   H     0.05589   0.26517   0.12061   0.00000  Uiso   1.00
H771   H     0.42333   0.54215   0.14781   0.00000  Uiso   1.00
H772   H     0.43399   0.75638   0.88836   0.00000  Uiso   1.00
H773   H     0.96108   0.21998   0.07935   0.00000  Uiso   1.00
O774   O     0.55092   0.57292   0.12863   0.00000  Uiso   1.00
O775   O     0.46091   0.64601   0.89223   0.00000  Uiso   1.00
O776   O     0.94446   0.15024   0.03882   0.00000  Uiso   1.00
N777   N     0.47700   0.44880   0.11929   0.00000  Uiso   1.00
N778   N     0.17534   0.02581   0.18837   0.00000  Uiso   1.00
N779   N     0.04483   0.14758   0.05529   0.00000  Uiso   1.00
N780   N     0.42753   0.50236   0.13932   0.00000  Uiso   1.00
N781   N     0.45920   0.74604   0.87507   0.00000  Uiso   1.00
N782   N     0.99536   0.20114   0.07533   0.00000  Uiso   1.00
C783   C     0.58016   0.73388   0.27527   0.00000  Uiso   1.00
C784   C     0.97424   0.38110   0.94373   0.00000  Uiso   1.00
C785   C     0.04771   0.42730   0.93814   0.00000  Uiso   1.00
C786   C     0.09466   0.39921   0.94098   0.00000  Uiso   1.00
C787   C     0.19289   0.37993   0.94254   0.00000  Uiso   1.00
C788   C     0.54576   0.72089   0.29972   0.00000  Uiso   1.00
C789   C     0.53923   0.77252   0.31317   0.00000  Uiso   1.00
C790   C     0.50607   0.74985   0.33508   0.00000  Uiso   1.00
C791   C     0.45654   0.74059   0.37180   0.00000  Uiso   1.00
C792   C     0.52141   0.67583   0.25931   0.00000  Uiso   1.00
C793   C     0.49439   0.68957   0.23879   0.00000  Uiso   1.00
C794   C     0.44071   0.62896   0.22669   0.00000  Uiso   1.00
C795   C     0.35337   0.54973   0.20067   0.00000  Uiso   1.00
C796   C     0.53287   0.60183   0.29027   0.00000  Uiso   1.00
C797   C     0.61522   0.64271   0.28521   0.00000  Uiso   1.00
C798   C     0.99539   0.28120   0.95473   0.00000  Uiso   1.00
C799   C     0.06892   0.32735   0.94914   0.00000  Uiso   1.00
C800   C     0.52007   0.64917   0.30787   0.00000  Uiso   1.00
C801   C     0.48691   0.62642   0.32976   0.00000  Uiso   1.00
C802   C     0.48034   0.67800   0.34325   0.00000  Uiso   1.00
C803   C     0.49572   0.60410   0.26746   0.00000  Uiso   1.00
C804   C     0.44207   0.54346   0.25539   0.00000  Uiso   1.00
C805   C     0.41498   0.55710   0.23485   0.00000  Uiso   1.00
H806   H     0.60015   0.78972   0.26893   0.00000  Uiso   1.00
H807   H     0.06757   0.48281   0.93184   0.00000  Uiso   1.00
H808   H     0.55911   0.82802   0.30686   0.00000  Uiso   1.00
H809   H     0.51428   0.74508   0.23249   0.00000  Uiso   1.00
H810   H     0.20490   0.48048   0.93127   0.00000  Uiso   1.00
H811   H     0.50228   0.83885   0.35250   0.00000  Uiso   1.00
H812   H     0.40774   0.66395   0.19569   0.00000  Uiso   1.00
H813   H     0.51287   0.54598   0.29661   0.00000  Uiso   1.00
H814   H     0.97550   0.22569   0.96104   0.00000  Uiso   1.00
H815   H     0.46704   0.57091   0.33606   0.00000  Uiso   1.00
H816   H     0.42221   0.48796   0.26170   0.00000  Uiso   1.00
H817   H     0.13018   0.27179   0.95497   0.00000  Uiso   1.00
H818   H     0.42755   0.63016   0.37621   0.00000  Uiso   1.00
H819   H     0.33301   0.45527   0.21939   0.00000  Uiso   1.00
O820   O     0.25417   0.38912   0.94115   0.00000  Uiso   1.00
O821   O     0.43633   0.75530   0.38981   0.00000  Uiso   1.00
O822   O     0.31231   0.52584   0.18407   0.00000  Uiso   1.00
N823   N     0.16957   0.42957   0.93715   0.00000  Uiso   1.00
N824   N     0.49098   0.78631   0.35267   0.00000  Uiso   1.00
N825   N     0.40258   0.62280   0.20606   0.00000  Uiso   1.00
N826   N     0.12936   0.31728   0.94990   0.00000  Uiso   1.00
N827   N     0.45077   0.67402   0.36542   0.00000  Uiso   1.00
N828   N     0.36237   0.51051   0.21881   0.00000  Uiso   1.00
C829   C     0.53605   0.63262   0.54746   0.00000  Uiso   1.00
C830   C     0.61696   0.65941   0.54254   0.00000  Uiso   1.00
C831   C     0.65515   0.62454   0.54957   0.00000  Uiso   1.00
C832   C     0.72886   0.65785   0.54334   0.00000  Uiso   1.00
C833   C     0.84928   0.68943   0.53764   0.00000  Uiso   1.00
C834   C     0.50039   0.62597   0.52350   0.00000  Uiso   1.00
C835   C     0.44056   0.56299   0.51452   0.00000  Uiso   1.00
C836   C     0.08280   0.90149   0.82559   0.00000  Uiso   1.00
C837   C     0.02221   0.88116   0.79034   0.00000  Uiso   1.00
C838   C     0.53396   0.69550   0.56018   0.00000  Uiso   1.00
C839   C     0.50234   0.69097   0.58203   0.00000  Uiso   1.00
C840   C     0.50616   0.75467   0.59065   0.00000  Uiso   1.00
C841   C     0.49769   0.84229   0.61235   0.00000  Uiso   1.00
C842   C     0.59903   0.75378   0.52389   0.00000  Uiso   1.00
C843   C     0.65117   0.72523   0.52974   0.00000  Uiso   1.00
C844   C     0.72484   0.75860   0.52350   0.00000  Uiso   1.00
C845   C     0.76313   0.72379   0.53052   0.00000  Uiso   1.00
C846   C     0.53459   0.69178   0.51070   0.00000  Uiso   1.00
C847   C     0.17691   0.03038   0.82178   0.00000  Uiso   1.00
C848   C     0.11707   0.96742   0.81277   0.00000  Uiso   1.00
C849   C     0.56817   0.76131   0.54738   0.00000  Uiso   1.00
C850   C     0.57203   0.82503   0.55596   0.00000  Uiso   1.00
C851   C     0.54043   0.82060   0.57783   0.00000  Uiso   1.00
H852   H     0.84274   0.24805   0.22409   0.00000  Uiso   1.00
H853   H     0.96199   0.24028   0.22614   0.00000  Uiso   1.00
H854   H     0.41410   0.51207   0.52443   0.00000  Uiso   1.00
H855   H     0.80920   0.30670   0.25860   0.00000  Uiso   1.00
H856   H     0.10928   0.26067   0.22276   0.00000  Uiso   1.00
H857   H     0.32351   0.46425   0.48221   0.00000  Uiso   1.00
H858   H     0.45377   0.73409   0.62455   0.00000  Uiso   1.00
H859   H     0.62566   0.80502   0.51393   0.00000  Uiso   1.00
H860   H     0.75129   0.80953   0.51360   0.00000  Uiso   1.00
H861   H     0.53673   0.74798   0.47855   0.00000  Uiso   1.00
H862   H     0.59851   0.87595   0.54606   0.00000  Uiso   1.00
H863   H     0.87548   0.78548   0.51886   0.00000  Uiso   1.00
H864   H     0.08971   0.98906   0.77830   0.00000  Uiso   1.00
H865   H     0.55331   0.92557   0.58732   0.00000  Uiso   1.00
O866   O     0.90625   0.68866   0.53803   0.00000  Uiso   1.00
O867   O     0.97934   0.85176   0.77443   0.00000  Uiso   1.00
O868   O     0.48357   0.87245   0.62785   0.00000  Uiso   1.00
N869   N     0.78213   0.63846   0.54738   0.00000  Uiso   1.00
N870   N     0.35914   0.51714   0.47830   0.00000  Uiso   1.00
N871   N     0.48091   0.76941   0.61138   0.00000  Uiso   1.00
N872   N     0.83569   0.74149   0.52734   0.00000  Uiso   1.00
N873   N     0.07937   0.95351   0.79160   0.00000  Uiso   1.00
N874   N     0.53447   0.87245   0.59134   0.00000  Uiso   1.00
C875   C     0.06721   0.82039   0.39140   0.00000  Uiso   1.00
C876   C     0.71443   0.07353   0.72294   0.00000  Uiso   1.00
C877   C     0.76063   0.04626   0.72853   0.00000  Uiso   1.00
C878   C     0.73254   0.97122   0.72568   0.00000  Uiso   1.00
C879   C     0.71327   0.85371   0.72413   0.00000  Uiso   1.00
C880   C     0.05422   0.84180   0.36695   0.00000  Uiso   1.00
C881   C     0.10585   0.89996   0.35350   0.00000  Uiso   1.00
C882   C     0.08319   0.91045   0.33158   0.00000  Uiso   1.00
C883   C     0.07392   0.95071   0.29486   0.00000  Uiso   1.00
C884   C     0.00916   0.82109   0.40736   0.00000  Uiso   1.00
C885   C     0.02290   0.86185   0.42788   0.00000  Uiso   1.00
C886   C     0.96229   0.85492   0.43998   0.00000  Uiso   1.00
C887   C     0.88306   0.86302   0.46600   0.00000  Uiso   1.00
C888   C     0.93516   0.73562   0.37640   0.00000  Uiso   1.00
C889   C     0.97604   0.69416   0.38145   0.00000  Uiso   1.00
C890   C     0.61453   0.95247   0.71193   0.00000  Uiso   1.00
C891   C     0.66068   0.92509   0.71752   0.00000  Uiso   1.00
C892   C     0.98250   0.79576   0.35880   0.00000  Uiso   1.00
C893   C     0.95975   0.80617   0.33690   0.00000  Uiso   1.00
C894   C     0.01133   0.86433   0.32342   0.00000  Uiso   1.00
C895   C     0.93743   0.77504   0.39921   0.00000  Uiso   1.00
C896   C     0.87680   0.76806   0.41128   0.00000  Uiso   1.00
C897   C     0.89044   0.80879   0.43182   0.00000  Uiso   1.00
H898   H     0.12306   0.85624   0.39774   0.00000  Uiso   1.00
H899   H     0.81614   0.08191   0.73483   0.00000  Uiso   1.00
H900   H     0.16135   0.93558   0.35981   0.00000  Uiso   1.00
H901   H     0.07841   0.89747   0.43417   0.00000  Uiso   1.00
H902   H     0.81381   0.94224   0.73540   0.00000  Uiso   1.00
H903   H     0.17218   0.00324   0.31416   0.00000  Uiso   1.00
H904   H     0.99728   0.92288   0.47098   0.00000  Uiso   1.00
H905   H     0.87932   0.69978   0.37005   0.00000  Uiso   1.00
H906   H     0.55902   0.91686   0.70563   0.00000  Uiso   1.00
H907   H     0.90424   0.77054   0.33061   0.00000  Uiso   1.00
H908   H     0.82130   0.73242   0.40497   0.00000  Uiso   1.00
H909   H     0.60513   0.80828   0.71170   0.00000  Uiso   1.00
H910   H     0.96350   0.86929   0.29046   0.00000  Uiso   1.00
H911   H     0.78860   0.78892   0.44728   0.00000  Uiso   1.00
O912   O     0.72245   0.80161   0.72551   0.00000  Uiso   1.00
O913   O     0.08863   0.98564   0.27686   0.00000  Uiso   1.00
O914   O     0.85917   0.88020   0.48260   0.00000  Uiso   1.00
N915   N     0.76290   0.92667   0.72952   0.00000  Uiso   1.00
N916   N     0.11965   0.96200   0.31400   0.00000  Uiso   1.00
N917   N     0.95613   0.88689   0.46061   0.00000  Uiso   1.00
N918   N     0.65061   0.85458   0.71676   0.00000  Uiso   1.00
N919   N     0.00736   0.88992   0.30125   0.00000  Uiso   1.00
N920   N     0.84384   0.81480   0.44785   0.00000  Uiso   1.00
C921   C     0.20272   0.96595   0.88079   0.00000  Uiso   1.00
C922   C     0.28363   0.99275   0.87588   0.00000  Uiso   1.00
C923   C     0.32182   0.95788   0.88290   0.00000  Uiso   1.00
C924   C     0.39553   0.99119   0.87667   0.00000  Uiso   1.00
C925   C     0.51595   0.02276   0.87097   0.00000  Uiso   1.00
C926   C     0.16705   0.95931   0.85683   0.00000  Uiso   1.00
C927   C     0.10723   0.89632   0.84785   0.00000  Uiso   1.00
C928   C     0.74947   0.23482   0.15892   0.00000  Uiso   1.00
C929   C     0.68887   0.21449   0.12367   0.00000  Uiso   1.00
C930   C     0.20062   0.02883   0.89351   0.00000  Uiso   1.00
C931   C     0.16901   0.02431   0.91537   0.00000  Uiso   1.00
C932   C     0.17283   0.08801   0.92398   0.00000  Uiso   1.00
C933   C     0.16435   0.17563   0.94568   0.00000  Uiso   1.00
C934   C     0.26570   0.08712   0.85723   0.00000  Uiso   1.00
C935   C     0.31783   0.05856   0.86308   0.00000  Uiso   1.00
C936   C     0.39150   0.09193   0.85683   0.00000  Uiso   1.00
C937   C     0.42980   0.05712   0.86385   0.00000  Uiso   1.00
C938   C     0.20126   0.02511   0.84404   0.00000  Uiso   1.00
C939   C     0.84358   0.36371   0.15512   0.00000  Uiso   1.00
C940   C     0.78374   0.30075   0.14610   0.00000  Uiso   1.00
C941   C     0.23483   0.09465   0.88071   0.00000  Uiso   1.00
C942   C     0.23870   0.15836   0.88930   0.00000  Uiso   1.00
C943   C     0.20710   0.15394   0.91116   0.00000  Uiso   1.00
H944   H     0.50941   0.58138   0.55742   0.00000  Uiso   1.00
H945   H     0.62866   0.57361   0.55947   0.00000  Uiso   1.00
H946   H     0.08076   0.84540   0.85776   0.00000  Uiso   1.00
H947   H     0.47587   0.64003   0.59193   0.00000  Uiso   1.00
H948   H     0.77594   0.59400   0.55609   0.00000  Uiso   1.00
H949   H     0.99018   0.79758   0.81554   0.00000  Uiso   1.00
H950   H     0.12044   0.06742   0.95788   0.00000  Uiso   1.00
H951   H     0.29233   0.13836   0.84726   0.00000  Uiso   1.00
H952   H     0.41796   0.14286   0.84693   0.00000  Uiso   1.00
H953   H     0.20340   0.08132   0.81189   0.00000  Uiso   1.00
H954   H     0.26517   0.20928   0.87939   0.00000  Uiso   1.00
H955   H     0.54215   0.11882   0.85219   0.00000  Uiso   1.00
H956   H     0.75638   0.32239   0.11164   0.00000  Uiso   1.00
H957   H     0.21998   0.25890   0.92065   0.00000  Uiso   1.00
O958   O     0.57292   0.02199   0.87137   0.00000  Uiso   1.00
O959   O     0.64601   0.18509   0.10777   0.00000  Uiso   1.00
O960   O     0.15024   0.20578   0.96118   0.00000  Uiso   1.00
N961   N     0.44880   0.97179   0.88071   0.00000  Uiso   1.00
N962   N     0.02581   0.85047   0.81163   0.00000  Uiso   1.00
N963   N     0.14758   0.10275   0.94471   0.00000  Uiso   1.00
N964   N     0.50236   0.07483   0.86068   0.00000  Uiso   1.00
N965   N     0.74604   0.28684   0.12493   0.00000  Uiso   1.00
N966   N     0.20114   0.20578   0.92467   0.00000  Uiso   1.00
C967   C     0.73388   0.15372   0.72473   0.00000  Uiso   1.00
C968   C     0.38110   0.40686   0.05627   0.00000  Uiso   1.00
C969   C     0.42730   0.37959   0.06186   0.00000  Uiso   1.00
C970   C     0.39921   0.30455   0.05902   0.00000  Uiso   1.00
C971   C     0.37993   0.18704   0.05746   0.00000  Uiso   1.00
C972   C     0.72089   0.17513   0.70028   0.00000  Uiso   1.00
C973   C     0.77252   0.23329   0.68683   0.00000  Uiso   1.00
C974   C     0.74985   0.24378   0.66492   0.00000  Uiso   1.00
C975   C     0.74059   0.28405   0.62820   0.00000  Uiso   1.00
C976   C     0.67583   0.15442   0.74069   0.00000  Uiso   1.00
C977   C     0.68957   0.19518   0.76121   0.00000  Uiso   1.00
C978   C     0.62896   0.18825   0.77331   0.00000  Uiso   1.00
C979   C     0.54973   0.19635   0.79933   0.00000  Uiso   1.00
C980   C     0.60183   0.06896   0.70973   0.00000  Uiso   1.00
C981   C     0.64271   0.02749   0.71479   0.00000  Uiso   1.00
C982   C     0.28120   0.28581   0.04527   0.00000  Uiso   1.00
C983   C     0.32735   0.25843   0.05086   0.00000  Uiso   1.00
C984   C     0.64917   0.12909   0.69213   0.00000  Uiso   1.00
C985   C     0.62642   0.13951   0.67024   0.00000  Uiso   1.00
C986   C     0.67800   0.19766   0.65675   0.00000  Uiso   1.00
C987   C     0.60410   0.10838   0.73254   0.00000  Uiso   1.00
C988   C     0.54346   0.10139   0.74461   0.00000  Uiso   1.00
C989   C     0.55710   0.14213   0.76515   0.00000  Uiso   1.00
H990   H     0.78972   0.18957   0.73107   0.00000  Uiso   1.00
H991   H     0.48281   0.41524   0.06816   0.00000  Uiso   1.00
H992   H     0.82802   0.26891   0.69314   0.00000  Uiso   1.00
H993   H     0.74508   0.23080   0.76751   0.00000  Uiso   1.00
H994   H     0.48048   0.27557   0.06873   0.00000  Uiso   1.00
H995   H     0.83885   0.33657   0.64750   0.00000  Uiso   1.00
H996   H     0.66395   0.25621   0.80431   0.00000  Uiso   1.00
H997   H     0.54598   0.03311   0.70339   0.00000  Uiso   1.00
H998   H     0.22569   0.25019   0.03896   0.00000  Uiso   1.00
H999   H     0.57091   0.10387   0.66394   0.00000  Uiso   1.00
H1000  H     0.48796   0.06576   0.73830   0.00000  Uiso   1.00
H1001  H     0.27179   0.14162   0.04503   0.00000  Uiso   1.00
H1002  H     0.63016   0.20262   0.62379   0.00000  Uiso   1.00
H1003  H     0.45527   0.12225   0.78061   0.00000  Uiso   1.00
O1004  O     0.38912   0.13495   0.05885   0.00000  Uiso   1.00
O1005  O     0.75530   0.31897   0.61019   0.00000  Uiso   1.00
O1006  O     0.52584   0.21353   0.81593   0.00000  Uiso   1.00
N1007  N     0.42957   0.26000   0.06285   0.00000  Uiso   1.00
N1008  N     0.78631   0.29534   0.64733   0.00000  Uiso   1.00
N1009  N     0.62280   0.22022   0.79394   0.00000  Uiso   1.00
N1010  N     0.31728   0.18792   0.05010   0.00000  Uiso   1.00
N1011  N     0.67402   0.22325   0.63458   0.00000  Uiso   1.00
N1012  N     0.51051   0.14814   0.78119   0.00000  Uiso   1.00
C1013  C     0.86938   0.29929   0.21412   0.00000  Uiso   1.00
C1014  C     0.95029   0.32608   0.20921   0.00000  Uiso   1.00
C1015  C     0.98849   0.29121   0.21623   0.00000  Uiso   1.00
C1016  C     0.06219   0.32452   0.21000   0.00000  Uiso   1.00
C1017  C     0.18261   0.35610   0.20431   0.00000  Uiso   1.00
C1018  C     0.83372   0.29264   0.19017   0.00000  Uiso   1.00
C1019  C     0.77390   0.22965   0.18118   0.00000  Uiso   1.00
C1020  C     0.41613   0.56815   0.49226   0.00000  Uiso   1.00
C1021  C     0.35554   0.54782   0.45701   0.00000  Uiso   1.00
C1022  C     0.86729   0.36217   0.22684   0.00000  Uiso   1.00
C1023  C     0.83567   0.35764   0.24870   0.00000  Uiso   1.00
C1024  C     0.83949   0.42134   0.25731   0.00000  Uiso   1.00
C1025  C     0.83102   0.50896   0.27901   0.00000  Uiso   1.00
C1026  C     0.93236   0.42045   0.19056   0.00000  Uiso   1.00
C1027  C     0.98450   0.39189   0.19641   0.00000  Uiso   1.00
C1028  C     0.05817   0.42527   0.19017   0.00000  Uiso   1.00
C1029  C     0.09647   0.39045   0.19718   0.00000  Uiso   1.00
C1030  C     0.86793   0.35845   0.17737   0.00000  Uiso   1.00
C1031  C     0.51025   0.69704   0.48845   0.00000  Uiso   1.00
C1032  C     0.45040   0.63408   0.47944   0.00000  Uiso   1.00
C1033  C     0.90150   0.42798   0.21405   0.00000  Uiso   1.00
C1034  C     0.90536   0.49170   0.22263   0.00000  Uiso   1.00
C1035  C     0.87376   0.48727   0.24449   0.00000  Uiso   1.00
H1036  H     0.17608   0.91471   0.89075   0.00000  Uiso   1.00
H1037  H     0.29532   0.90694   0.89280   0.00000  Uiso   1.00
H1038  H     0.74743   0.17874   0.19109   0.00000  Uiso   1.00
H1039  H     0.14254   0.97337   0.92526   0.00000  Uiso   1.00
H1040  H     0.44261   0.92734   0.88943   0.00000  Uiso   1.00
H1041  H     0.65685   0.13091   0.14887   0.00000  Uiso   1.00
H1042  H     0.78711   0.40075   0.29122   0.00000  Uiso   1.00
H1043  H     0.95900   0.47169   0.18060   0.00000  Uiso   1.00
H1044  H     0.08463   0.47620   0.18026   0.00000  Uiso   1.00
H1045  H     0.87006   0.41465   0.14522   0.00000  Uiso   1.00
H1046  H     0.93184   0.54262   0.21272   0.00000  Uiso   1.00
H1047  H     0.20881   0.45215   0.18552   0.00000  Uiso   1.00
H1048  H     0.42305   0.65572   0.44497   0.00000  Uiso   1.00
H1049  H     0.88664   0.59223   0.25398   0.00000  Uiso   1.00
O1050  O     0.23958   0.35533   0.20470   0.00000  Uiso   1.00
O1051  O     0.31267   0.51842   0.44110   0.00000  Uiso   1.00
O1052  O     0.81691   0.53912   0.29452   0.00000  Uiso   1.00
N1053  N     0.11546   0.30513   0.21405   0.00000  Uiso   1.00
N1054  N     0.69248   0.18381   0.14496   0.00000  Uiso   1.00
N1055  N     0.81424   0.43608   0.27804   0.00000  Uiso   1.00
N1056  N     0.16902   0.40816   0.19401   0.00000  Uiso   1.00
N1057  N     0.41270   0.62017   0.45826   0.00000  Uiso   1.00
N1058  N     0.86780   0.53911   0.25801   0.00000  Uiso   1.00
C1059  C     0.40055   0.48706   0.05806   0.00000  Uiso   1.00
C1060  C     0.04777   0.74020   0.38960   0.00000  Uiso   1.00
C1061  C     0.09397   0.71292   0.39520   0.00000  Uiso   1.00
C1062  C     0.06587   0.63789   0.39235   0.00000  Uiso   1.00
C1063  C     0.04660   0.52038   0.39079   0.00000  Uiso   1.00
C1064  C     0.38756   0.50846   0.03362   0.00000  Uiso   1.00
C1065  C     0.43919   0.56662   0.02016   0.00000  Uiso   1.00
C1066  C     0.41652   0.57712   0.99825   0.00000  Uiso   1.00
C1067  C     0.40726   0.61738   0.96153   0.00000  Uiso   1.00
C1068  C     0.34249   0.48775   0.07402   0.00000  Uiso   1.00
C1069  C     0.35623   0.52851   0.09454   0.00000  Uiso   1.00
C1070  C     0.29563   0.52158   0.10664   0.00000  Uiso   1.00
C1071  C     0.21640   0.52969   0.13266   0.00000  Uiso   1.00
C1072  C     0.26849   0.40229   0.04306   0.00000  Uiso   1.00
C1073  C     0.30937   0.36082   0.04812   0.00000  Uiso   1.00
C1074  C     0.94787   0.61914   0.37860   0.00000  Uiso   1.00
C1075  C     0.99402   0.59176   0.38419   0.00000  Uiso   1.00
C1076  C     0.31583   0.46243   0.02547   0.00000  Uiso   1.00
C1077  C     0.29308   0.47284   0.00357   0.00000  Uiso   1.00
C1078  C     0.34467   0.53100   0.99009   0.00000  Uiso   1.00
C1079  C     0.27077   0.44171   0.06588   0.00000  Uiso   1.00
C1080  C     0.21013   0.43472   0.07795   0.00000  Uiso   1.00
C1081  C     0.22377   0.47546   0.09848   0.00000  Uiso   1.00
H1082  H     0.45639   0.52290   0.06440   0.00000  Uiso   1.00
H1083  H     0.14948   0.74857   0.40150   0.00000  Uiso   1.00
H1084  H     0.49469   0.60225   0.02647   0.00000  Uiso   1.00
H1085  H     0.41174   0.56414   0.10084   0.00000  Uiso   1.00
H1086  H     0.14714   0.60891   0.40207   0.00000  Uiso   1.00
H1087  H     0.50551   0.66991   0.98083   0.00000  Uiso   1.00
H1088  H     0.33062   0.58954   0.13765   0.00000  Uiso   1.00
H1089  H     0.21265   0.36645   0.03672   0.00000  Uiso   1.00
H1090  H     0.89236   0.58352   0.37230   0.00000  Uiso   1.00
H1091  H     0.23757   0.43720   0.99727   0.00000  Uiso   1.00
H1092  H     0.15463   0.39909   0.07164   0.00000  Uiso   1.00
H1093  H     0.93846   0.47495   0.37836   0.00000  Uiso   1.00
H1094  H     0.29683   0.53595   0.95713   0.00000  Uiso   1.00
H1095  H     0.12193   0.45559   0.11394   0.00000  Uiso   1.00
O1096  O     0.05579   0.46828   0.39218   0.00000  Uiso   1.00
O1097  O     0.42197   0.65230   0.94353   0.00000  Uiso   1.00
O1098  O     0.19251   0.54687   0.14927   0.00000  Uiso   1.00
N1099  N     0.09623   0.59333   0.39618   0.00000  Uiso   1.00
N1100  N     0.45298   0.62867   0.98067   0.00000  Uiso   1.00
N1101  N     0.28947   0.55355   0.12727   0.00000  Uiso   1.00
N1102  N     0.98394   0.52125   0.38343   0.00000  Uiso   1.00
N1103  N     0.34069   0.55659   0.96791   0.00000  Uiso   1.00
N1104  N     0.17718   0.48147   0.11452   0.00000  Uiso   1.00
C1105  C     0.36738   0.90343   0.54746   0.00000  Uiso   1.00
C1106  C     0.34059   0.95755   0.54254   0.00000  Uiso   1.00
C1107  C     0.37546   0.03061   0.54957   0.00000  Uiso   1.00
C1108  C     0.34215   0.07100   0.54334   0.00000  Uiso   1.00
C1109  C     0.31057   0.15985   0.53764   0.00000  Uiso   1.00
C1110  C     0.37403   0.87442   0.52350   0.00000  Uiso   1.00
C1111  C     0.43701   0.87757   0.51452   0.00000  Uiso   1.00
C1112  C     0.09851   0.18131   0.82559   0.00000  Uiso   1.00
C1113  C     0.11884   0.14105   0.79034   0.00000  Uiso   1.00
C1114  C     0.30450   0.83846   0.56018   0.00000  Uiso   1.00
C1115  C     0.30903   0.81137   0.58203   0.00000  Uiso   1.00
C1116  C     0.24533   0.75149   0.59065   0.00000  Uiso   1.00
C1117  C     0.15771   0.65539   0.61235   0.00000  Uiso   1.00
C1118  C     0.24622   0.84525   0.52389   0.00000  Uiso   1.00
C1119  C     0.27477   0.92594   0.52974   0.00000  Uiso   1.00
C1120  C     0.24140   0.96624   0.52350   0.00000  Uiso   1.00
C1121  C     0.27621   0.03935   0.53052   0.00000  Uiso   1.00
C1122  C     0.30822   0.84281   0.51070   0.00000  Uiso   1.00
C1123  C     0.96962   0.14654   0.82178   0.00000  Uiso   1.00
C1124  C     0.03258   0.14965   0.81277   0.00000  Uiso   1.00
C1125  C     0.23869   0.80685   0.54738   0.00000  Uiso   1.00
C1126  C     0.17497   0.74700   0.55596   0.00000  Uiso   1.00
C1127  C     0.17940   0.71983   0.57783   0.00000  Uiso   1.00
H1128  H     0.75195   0.59470   0.22409   0.00000  Uiso   1.00
H1129  H     0.75972   0.72171   0.22614   0.00000  Uiso   1.00
H1130  H     0.48793   0.90203   0.52443   0.00000  Uiso   1.00
H1131  H     0.69330   0.50250   0.25860   0.00000  Uiso   1.00
H1132  H     0.73933   0.84860   0.22276   0.00000  Uiso   1.00
H1133  H     0.53575   0.85927   0.48221   0.00000  Uiso   1.00
H1134  H     0.26591   0.71969   0.62455   0.00000  Uiso   1.00
H1135  H     0.19498   0.82064   0.51393   0.00000  Uiso   1.00
H1136  H     0.19047   0.94176   0.51360   0.00000  Uiso   1.00
H1137  H     0.25202   0.78875   0.47855   0.00000  Uiso   1.00
H1138  H     0.12405   0.72256   0.54606   0.00000  Uiso   1.00
H1139  H     0.21452   0.08999   0.51886   0.00000  Uiso   1.00
H1140  H     0.01094   0.10065   0.77830   0.00000  Uiso   1.00
H1141  H     0.07443   0.62774   0.58732   0.00000  Uiso   1.00
O1142  O     0.31134   0.21759   0.53803   0.00000  Uiso   1.00
O1143  O     0.14824   0.12758   0.77443   0.00000  Uiso   1.00
O1144  O     0.12755   0.61113   0.62785   0.00000  Uiso   1.00
N1145  N     0.36154   0.14367   0.54738   0.00000  Uiso   1.00
N1146  N     0.48286   0.84201   0.47830   0.00000  Uiso   1.00
N1147  N     0.23059   0.71150   0.61138   0.00000  Uiso   1.00
N1148  N     0.25851   0.09420   0.52734   0.00000  Uiso   1.00
N1149  N     0.04649   0.12586   0.79160   0.00000  Uiso   1.00
N1150  N     0.12755   0.66202   0.59134   0.00000  Uiso   1.00
C1151  C     0.17961   0.24683   0.39140   0.00000  Uiso   1.00
C1152  C     0.92647   0.64090   0.72294   0.00000  Uiso   1.00
C1153  C     0.95374   0.71438   0.72853   0.00000  Uiso   1.00
C1154  C     0.02878   0.76132   0.72568   0.00000  Uiso   1.00
C1155  C     0.14629   0.85956   0.72413   0.00000  Uiso   1.00
C1156  C     0.15820   0.21243   0.36695   0.00000  Uiso   1.00
C1157  C     0.10004   0.20590   0.35350   0.00000  Uiso   1.00
C1158  C     0.08955   0.17274   0.33158   0.00000  Uiso   1.00
C1159  C     0.04929   0.12321   0.29486   0.00000  Uiso   1.00
C1160  C     0.17891   0.18808   0.40736   0.00000  Uiso   1.00
C1161  C     0.13815   0.16105   0.42788   0.00000  Uiso   1.00
C1162  C     0.14508   0.10738   0.43998   0.00000  Uiso   1.00
C1163  C     0.13698   0.02004   0.46600   0.00000  Uiso   1.00
C1164  C     0.26438   0.19954   0.37640   0.00000  Uiso   1.00
C1165  C     0.30584   0.28188   0.38145   0.00000  Uiso   1.00
C1166  C     0.04753   0.66206   0.71193   0.00000  Uiso   1.00
C1167  C     0.07491   0.73559   0.71752   0.00000  Uiso   1.00
C1168  C     0.20424   0.18674   0.35880   0.00000  Uiso   1.00
C1169  C     0.19383   0.15358   0.33690   0.00000  Uiso   1.00
C1170  C     0.13567   0.14700   0.32342   0.00000  Uiso   1.00
C1171  C     0.22496   0.16239   0.39921   0.00000  Uiso   1.00
C1172  C     0.23194   0.10874   0.41128   0.00000  Uiso   1.00
C1173  C     0.19121   0.08164   0.43182   0.00000  Uiso   1.00
H1174  H     0.14376   0.26682   0.39774   0.00000  Uiso   1.00
H1175  H     0.91809   0.73424   0.73483   0.00000  Uiso   1.00
H1176  H     0.06442   0.22577   0.35981   0.00000  Uiso   1.00
H1177  H     0.10253   0.18094   0.43417   0.00000  Uiso   1.00
H1178  H     0.05776   0.87157   0.73540   0.00000  Uiso   1.00
H1179  H     0.99676   0.16894   0.31416   0.00000  Uiso   1.00
H1180  H     0.07712   0.07441   0.47098   0.00000  Uiso   1.00
H1181  H     0.30022   0.17954   0.37005   0.00000  Uiso   1.00
H1182  H     0.08314   0.64217   0.70563   0.00000  Uiso   1.00
H1183  H     0.22946   0.13370   0.33061   0.00000  Uiso   1.00
H1184  H     0.26758   0.08887   0.40497   0.00000  Uiso   1.00
H1185  H     0.19172   0.79684   0.71170   0.00000  Uiso   1.00
H1186  H     0.13071   0.09421   0.29046   0.00000  Uiso   1.00
H1187  H     0.21108   0.99968   0.44728   0.00000  Uiso   1.00
O1188  O     0.19839   0.92084   0.72551   0.00000  Uiso   1.00
O1189  O     0.01436   0.10300   0.27686   0.00000  Uiso   1.00
O1190  O     0.11980   0.97897   0.48260   0.00000  Uiso   1.00
N1191  N     0.07333   0.83624   0.72952   0.00000  Uiso   1.00
N1192  N     0.03800   0.15765   0.31400   0.00000  Uiso   1.00
N1193  N     0.11311   0.06925   0.46061   0.00000  Uiso   1.00
N1194  N     0.14542   0.79603   0.71676   0.00000  Uiso   1.00
N1195  N     0.11008   0.11744   0.30125   0.00000  Uiso   1.00
N1196  N     0.18520   0.02904   0.44785   0.00000  Uiso   1.00
C1197  C     0.03405   0.23676   0.88079   0.00000  Uiso   1.00
C1198  C     0.00725   0.29088   0.87588   0.00000  Uiso   1.00
C1199  C     0.04212   0.36394   0.88290   0.00000  Uiso   1.00
C1200  C     0.00881   0.40434   0.87667   0.00000  Uiso   1.00
C1201  C     0.97724   0.49318   0.87097   0.00000  Uiso   1.00
C1202  C     0.04069   0.20775   0.85683   0.00000  Uiso   1.00
C1203  C     0.10368   0.21091   0.84785   0.00000  Uiso   1.00
C1204  C     0.76518   0.51465   0.15892   0.00000  Uiso   1.00
C1205  C     0.78551   0.47438   0.12367   0.00000  Uiso   1.00
C1206  C     0.97117   0.17179   0.89351   0.00000  Uiso   1.00
C1207  C     0.97569   0.14470   0.91537   0.00000  Uiso   1.00
C1208  C     0.91199   0.08482   0.92398   0.00000  Uiso   1.00
C1209  C     0.82437   0.98873   0.94568   0.00000  Uiso   1.00
C1210  C     0.91288   0.17858   0.85723   0.00000  Uiso   1.00
C1211  C     0.94144   0.25927   0.86308   0.00000  Uiso   1.00
C1212  C     0.90807   0.29957   0.85683   0.00000  Uiso   1.00
C1213  C     0.94288   0.37268   0.86385   0.00000  Uiso   1.00
C1214  C     0.97489   0.17615   0.84404   0.00000  Uiso   1.00
C1215  C     0.63629   0.47987   0.15512   0.00000  Uiso   1.00
C1216  C     0.69925   0.48299   0.14610   0.00000  Uiso   1.00
C1217  C     0.90535   0.14019   0.88071   0.00000  Uiso   1.00
C1218  C     0.84164   0.08033   0.88930   0.00000  Uiso   1.00
C1219  C     0.84606   0.05316   0.91116   0.00000  Uiso   1.00
H1220  H     0.41862   0.92803   0.55742   0.00000  Uiso   1.00
H1221  H     0.42639   0.05505   0.55947   0.00000  Uiso   1.00
H1222  H     0.15460   0.23536   0.85776   0.00000  Uiso   1.00
H1223  H     0.35997   0.83584   0.59193   0.00000  Uiso   1.00
H1224  H     0.40600   0.18194   0.55609   0.00000  Uiso   1.00
H1225  H     0.20242   0.19260   0.81554   0.00000  Uiso   1.00
H1226  H     0.93258   0.05302   0.95788   0.00000  Uiso   1.00
H1227  H     0.86164   0.15397   0.84726   0.00000  Uiso   1.00
H1228  H     0.85714   0.27510   0.84693   0.00000  Uiso   1.00
H1229  H     0.91868   0.12208   0.81189   0.00000  Uiso   1.00
H1230  H     0.79072   0.05589   0.87939   0.00000  Uiso   1.00
H1231  H     0.88118   0.42333   0.85219   0.00000  Uiso   1.00
H1232  H     0.67761   0.43399   0.11164   0.00000  Uiso   1.00
H1233  H     0.74110   0.96108   0.92065   0.00000  Uiso   1.00
O1234  O     0.97801   0.55092   0.87137   0.00000  Uiso   1.00
O1235  O     0.81491   0.46091   0.10777   0.00000  Uiso   1.00
O1236  O     0.79422   0.94446   0.96118   0.00000  Uiso   1.00
N1237  N     0.02821   0.47700   0.88071   0.00000  Uiso   1.00
N1238  N     0.14953   0.17534   0.81163   0.00000  Uiso   1.00
N1239  N     0.89725   0.04483   0.94471   0.00000  Uiso   1.00
N1240  N     0.92517   0.42753   0.86068   0.00000  Uiso   1.00
N1241  N     0.71316   0.45920   0.12493   0.00000  Uiso   1.00
N1242  N     0.79422   0.99536   0.92467   0.00000  Uiso   1.00
C1243  C     0.84628   0.58016   0.72473   0.00000  Uiso   1.00
C1244  C     0.59314   0.97424   0.05627   0.00000  Uiso   1.00
C1245  C     0.62041   0.04771   0.06186   0.00000  Uiso   1.00
C1246  C     0.69545   0.09466   0.05902   0.00000  Uiso   1.00
C1247  C     0.81296   0.19289   0.05746   0.00000  Uiso   1.00
C1248  C     0.82487   0.54576   0.70028   0.00000  Uiso   1.00
C1249  C     0.76671   0.53923   0.68683   0.00000  Uiso   1.00
C1250  C     0.75622   0.50607   0.66492   0.00000  Uiso   1.00
C1251  C     0.71595   0.45654   0.62820   0.00000  Uiso   1.00
C1252  C     0.84558   0.52141   0.74069   0.00000  Uiso   1.00
C1253  C     0.80482   0.49439   0.76121   0.00000  Uiso   1.00
C1254  C     0.81175   0.44071   0.77331   0.00000  Uiso   1.00
C1255  C     0.80365   0.35337   0.79933   0.00000  Uiso   1.00
C1256  C     0.93104   0.53287   0.70973   0.00000  Uiso   1.00
C1257  C     0.97251   0.61522   0.71479   0.00000  Uiso   1.00
C1258  C     0.71419   0.99539   0.04527   0.00000  Uiso   1.00
C1259  C     0.74157   0.06892   0.05086   0.00000  Uiso   1.00
C1260  C     0.87091   0.52007   0.69213   0.00000  Uiso   1.00
C1261  C     0.86049   0.48691   0.67024   0.00000  Uiso   1.00
C1262  C     0.80234   0.48034   0.65675   0.00000  Uiso   1.00
C1263  C     0.89162   0.49572   0.73254   0.00000  Uiso   1.00
C1264  C     0.89861   0.44207   0.74461   0.00000  Uiso   1.00
C1265  C     0.85787   0.41498   0.76515   0.00000  Uiso   1.00
H1266  H     0.81043   0.60015   0.73107   0.00000  Uiso   1.00
H1267  H     0.58476   0.06757   0.06816   0.00000  Uiso   1.00
H1268  H     0.73109   0.55911   0.69314   0.00000  Uiso   1.00
H1269  H     0.76920   0.51428   0.76751   0.00000  Uiso   1.00
H1270  H     0.72443   0.20490   0.06873   0.00000  Uiso   1.00
H1271  H     0.66343   0.50228   0.64750   0.00000  Uiso   1.00
H1272  H     0.74379   0.40774   0.80431   0.00000  Uiso   1.00
H1273  H     0.96689   0.51287   0.70339   0.00000  Uiso   1.00
H1274  H     0.74981   0.97550   0.03896   0.00000  Uiso   1.00
H1275  H     0.89613   0.46704   0.66394   0.00000  Uiso   1.00
H1276  H     0.93424   0.42221   0.73830   0.00000  Uiso   1.00
H1277  H     0.85838   0.13018   0.04503   0.00000  Uiso   1.00
H1278  H     0.79738   0.42755   0.62379   0.00000  Uiso   1.00
H1279  H     0.87775   0.33301   0.78061   0.00000  Uiso   1.00
O1280  O     0.86505   0.25417   0.05885   0.00000  Uiso   1.00
O1281  O     0.68103   0.43633   0.61019   0.00000  Uiso   1.00
O1282  O     0.78647   0.31231   0.81593   0.00000  Uiso   1.00
N1283  N     0.74000   0.16957   0.06285   0.00000  Uiso   1.00
N1284  N     0.70466   0.49098   0.64733   0.00000  Uiso   1.00
N1285  N     0.77978   0.40258   0.79394   0.00000  Uiso   1.00
N1286  N     0.81208   0.12936   0.05010   0.00000  Uiso   1.00
N1287  N     0.77675   0.45077   0.63458   0.00000  Uiso   1.00
N1288  N     0.85186   0.36237   0.78119   0.00000  Uiso   1.00
C1289  C     0.70071   0.57010   0.21412   0.00000  Uiso   1.00
C1290  C     0.67392   0.62421   0.20921   0.00000  Uiso   1.00
C1291  C     0.70879   0.69727   0.21623   0.00000  Uiso   1.00
C1292  C     0.67548   0.73767   0.21000   0.00000  Uiso   1.00
C1293  C     0.64390   0.82652   0.20431   0.00000  Uiso   1.00
C1294  C     0.70736   0.54108   0.19017   0.00000  Uiso   1.00
C1295  C     0.77035   0.54424   0.18118   0.00000  Uiso   1.00
C1296  C     0.43185   0.84798   0.49226   0.00000  Uiso   1.00
C1297  C     0.45218   0.80772   0.45701   0.00000  Uiso   1.00
C1298  C     0.63783   0.50512   0.22684   0.00000  Uiso   1.00
C1299  C     0.64236   0.47803   0.24870   0.00000  Uiso   1.00
C1300  C     0.57866   0.41815   0.25731   0.00000  Uiso   1.00
C1301  C     0.49104   0.32206   0.27901   0.00000  Uiso   1.00
C1302  C     0.57955   0.51191   0.19056   0.00000  Uiso   1.00
C1303  C     0.60811   0.59261   0.19641   0.00000  Uiso   1.00
C1304  C     0.57473   0.63290   0.19017   0.00000  Uiso   1.00
C1305  C     0.60955   0.70601   0.19718   0.00000  Uiso   1.00
C1306  C     0.64155   0.50948   0.17737   0.00000  Uiso   1.00
C1307  C     0.30296   0.81320   0.48845   0.00000  Uiso   1.00
C1308  C     0.36592   0.81632   0.47944   0.00000  Uiso   1.00
C1309  C     0.57202   0.47352   0.21405   0.00000  Uiso   1.00
C1310  C     0.50830   0.41367   0.22263   0.00000  Uiso   1.00
C1311  C     0.51273   0.38649   0.24449   0.00000  Uiso   1.00
H1312  H     0.08529   0.26137   0.89075   0.00000  Uiso   1.00
H1313  H     0.09306   0.38838   0.89280   0.00000  Uiso   1.00
H1314  H     0.82126   0.56869   0.19109   0.00000  Uiso   1.00
H1315  H     0.02663   0.16917   0.92526   0.00000  Uiso   1.00
H1316  H     0.07266   0.51527   0.88943   0.00000  Uiso   1.00
H1317  H     0.86909   0.52593   0.14887   0.00000  Uiso   1.00
H1318  H     0.59925   0.38635   0.29122   0.00000  Uiso   1.00
H1319  H     0.52831   0.48731   0.18060   0.00000  Uiso   1.00
H1320  H     0.52380   0.60843   0.18026   0.00000  Uiso   1.00
H1321  H     0.58535   0.45541   0.14522   0.00000  Uiso   1.00
H1322  H     0.45738   0.38922   0.21272   0.00000  Uiso   1.00
H1323  H     0.54785   0.75666   0.18552   0.00000  Uiso   1.00
H1324  H     0.34428   0.76732   0.44497   0.00000  Uiso   1.00
H1325  H     0.40777   0.29441   0.25398   0.00000  Uiso   1.00
O1326  O     0.64467   0.88426   0.20470   0.00000  Uiso   1.00
O1327  O     0.48158   0.79425   0.44110   0.00000  Uiso   1.00
O1328  O     0.46088   0.27779   0.29452   0.00000  Uiso   1.00
N1329  N     0.69487   0.81034   0.21405   0.00000  Uiso   1.00
N1330  N     0.81619   0.50867   0.14496   0.00000  Uiso   1.00
N1331  N     0.56392   0.37816   0.27804   0.00000  Uiso   1.00
N1332  N     0.59184   0.76086   0.19401   0.00000  Uiso   1.00
N1333  N     0.37983   0.79253   0.45826   0.00000  Uiso   1.00
N1334  N     0.46089   0.32869   0.25801   0.00000  Uiso   1.00
C1335  C     0.51294   0.91349   0.05806   0.00000  Uiso   1.00
C1336  C     0.25980   0.30757   0.38960   0.00000  Uiso   1.00
C1337  C     0.28708   0.38105   0.39520   0.00000  Uiso   1.00
C1338  C     0.36211   0.42799   0.39235   0.00000  Uiso   1.00
C1339  C     0.47962   0.52622   0.39079   0.00000  Uiso   1.00
C1340  C     0.49154   0.87909   0.03362   0.00000  Uiso   1.00
C1341  C     0.43338   0.87256   0.02016   0.00000  Uiso   1.00
C1342  C     0.42288   0.83940   0.99825   0.00000  Uiso   1.00
C1343  C     0.38262   0.78988   0.96153   0.00000  Uiso   1.00
C1344  C     0.51225   0.85474   0.07402   0.00000  Uiso   1.00
C1345  C     0.47149   0.82772   0.09454   0.00000  Uiso   1.00
C1346  C     0.47842   0.77404   0.10664   0.00000  Uiso   1.00
C1347  C     0.47031   0.68671   0.13266   0.00000  Uiso   1.00
C1348  C     0.59771   0.86620   0.04306   0.00000  Uiso   1.00
C1349  C     0.63918   0.94855   0.04812   0.00000  Uiso   1.00
C1350  C     0.38086   0.32873   0.37860   0.00000  Uiso   1.00
C1351  C     0.40824   0.40226   0.38419   0.00000  Uiso   1.00
C1352  C     0.53757   0.85341   0.02547   0.00000  Uiso   1.00
C1353  C     0.52716   0.82024   0.00357   0.00000  Uiso   1.00
C1354  C     0.46900   0.81367   0.99009   0.00000  Uiso   1.00
C1355  C     0.55829   0.82906   0.06588   0.00000  Uiso   1.00
C1356  C     0.56528   0.77541   0.07795   0.00000  Uiso   1.00
C1357  C     0.52454   0.74831   0.09848   0.00000  Uiso   1.00
H1358  H     0.47710   0.93349   0.06440   0.00000  Uiso   1.00
H1359  H     0.25143   0.40090   0.40150   0.00000  Uiso   1.00
H1360  H     0.39775   0.89244   0.02647   0.00000  Uiso   1.00
H1361  H     0.43586   0.84761   0.10084   0.00000  Uiso   1.00
H1362  H     0.39109   0.53824   0.40207   0.00000  Uiso   1.00
H1363  H     0.33009   0.83561   0.98083   0.00000  Uiso   1.00
H1364  H     0.41046   0.74107   0.13765   0.00000  Uiso   1.00
H1365  H     0.63355   0.84620   0.03672   0.00000  Uiso   1.00
H1366  H     0.41648   0.30883   0.37230   0.00000  Uiso   1.00
H1367  H     0.56280   0.80037   0.99727   0.00000  Uiso   1.00
H1368  H     0.60091   0.75554   0.07164   0.00000  Uiso   1.00
H1369  H     0.52505   0.46351   0.37836   0.00000  Uiso   1.00
H1370  H     0.46405   0.76088   0.95713   0.00000  Uiso   1.00
H1371  H     0.54441   0.66635   0.11394   0.00000  Uiso   1.00
O1372  O     0.53172   0.58751   0.39218   0.00000  Uiso   1.00
O1373  O     0.34770   0.76966   0.94353   0.00000  Uiso   1.00
O1374  O     0.45313   0.64564   0.14927   0.00000  Uiso   1.00
N1375  N     0.40667   0.50290   0.39618   0.00000  Uiso   1.00
N1376  N     0.37133   0.82431   0.98067   0.00000  Uiso   1.00
N1377  N     0.44645   0.73591   0.12727   0.00000  Uiso   1.00
N1378  N     0.47875   0.46269   0.38343   0.00000  Uiso   1.00
N1379  N     0.44341   0.78410   0.96791   0.00000  Uiso   1.00
N1380  N     0.51853   0.69570   0.11452   0.00000  Uiso   1.00
C1381  C     0.09657   0.46395   0.54746   0.00000  Uiso   1.00
C1382  C     0.04245   0.38304   0.54254   0.00000  Uiso   1.00
C1383  C     0.96939   0.34485   0.54957   0.00000  Uiso   1.00
C1384  C     0.92900   0.27114   0.54334   0.00000  Uiso   1.00
C1385  C     0.84015   0.15072   0.53764   0.00000  Uiso   1.00
C1386  C     0.12558   0.49961   0.52350   0.00000  Uiso   1.00
C1387  C     0.12243   0.55944   0.51452   0.00000  Uiso   1.00
C1388  C     0.81869   0.91720   0.82559   0.00000  Uiso   1.00
C1389  C     0.85895   0.97779   0.79034   0.00000  Uiso   1.00
C1390  C     0.16154   0.46604   0.56018   0.00000  Uiso   1.00
C1391  C     0.18863   0.49766   0.58203   0.00000  Uiso   1.00
C1392  C     0.24851   0.49384   0.59065   0.00000  Uiso   1.00
C1393  C     0.34461   0.50231   0.61235   0.00000  Uiso   1.00
C1394  C     0.15475   0.40097   0.52389   0.00000  Uiso   1.00
C1395  C     0.07406   0.34883   0.52974   0.00000  Uiso   1.00
C1396  C     0.03376   0.27516   0.52350   0.00000  Uiso   1.00
C1397  C     0.96065   0.23687   0.53052   0.00000  Uiso   1.00
C1398  C     0.15719   0.46541   0.51070   0.00000  Uiso   1.00
C1399  C     0.85346   0.82309   0.82178   0.00000  Uiso   1.00
C1400  C     0.85035   0.88293   0.81277   0.00000  Uiso   1.00
C1401  C     0.19315   0.43183   0.54738   0.00000  Uiso   1.00
C1402  C     0.25300   0.42797   0.55596   0.00000  Uiso   1.00
C1403  C     0.28017   0.45957   0.57783   0.00000  Uiso   1.00
H1404  H     0.40530   0.15726   0.22409   0.00000  Uiso   1.00
H1405  H     0.27829   0.03801   0.22614   0.00000  Uiso   1.00
H1406  H     0.09797   0.58590   0.52443   0.00000  Uiso   1.00
H1407  H     0.49750   0.19080   0.25860   0.00000  Uiso   1.00
H1408  H     0.15140   0.89072   0.22276   0.00000  Uiso   1.00
H1409  H     0.14073   0.67649   0.48221   0.00000  Uiso   1.00
H1410  H     0.28031   0.54623   0.62455   0.00000  Uiso   1.00
H1411  H     0.17936   0.37434   0.51393   0.00000  Uiso   1.00
H1412  H     0.05824   0.24871   0.51360   0.00000  Uiso   1.00
H1413  H     0.21125   0.46327   0.47855   0.00000  Uiso   1.00
H1414  H     0.27744   0.40149   0.54606   0.00000  Uiso   1.00
H1415  H     0.91001   0.12452   0.51886   0.00000  Uiso   1.00
H1416  H     0.89935   0.91029   0.77830   0.00000  Uiso   1.00
H1417  H     0.37226   0.44669   0.58732   0.00000  Uiso   1.00
O1418  O     0.78241   0.09375   0.53803   0.00000  Uiso   1.00
O1419  O     0.87242   0.02066   0.77443   0.00000  Uiso   1.00
O1420  O     0.38887   0.51643   0.62785   0.00000  Uiso   1.00
N1421  N     0.85633   0.21787   0.54738   0.00000  Uiso   1.00
N1422  N     0.15799   0.64086   0.47830   0.00000  Uiso   1.00
N1423  N     0.28850   0.51909   0.61138   0.00000  Uiso   1.00
N1424  N     0.90580   0.16431   0.52734   0.00000  Uiso   1.00
N1425  N     0.87414   0.92063   0.79160   0.00000  Uiso   1.00
N1426  N     0.33798   0.46553   0.59134   0.00000  Uiso   1.00
C1427  C     0.75317   0.93279   0.39140   0.00000  Uiso   1.00
C1428  C     0.35910   0.28557   0.72294   0.00000  Uiso   1.00
C1429  C     0.28562   0.23937   0.72853   0.00000  Uiso   1.00
C1430  C     0.23868   0.26746   0.72568   0.00000  Uiso   1.00
C1431  C     0.14044   0.28673   0.72413   0.00000  Uiso   1.00
C1432  C     0.78757   0.94578   0.36695   0.00000  Uiso   1.00
C1433  C     0.79410   0.89415   0.35350   0.00000  Uiso   1.00
C1434  C     0.82726   0.91681   0.33158   0.00000  Uiso   1.00
C1435  C     0.87679   0.92608   0.29486   0.00000  Uiso   1.00
C1436  C     0.81192   0.99084   0.40736   0.00000  Uiso   1.00
C1437  C     0.83895   0.97710   0.42788   0.00000  Uiso   1.00
C1438  C     0.89262   0.03771   0.43998   0.00000  Uiso   1.00
C1439  C     0.97996   0.11694   0.46600   0.00000  Uiso   1.00
C1440  C     0.80046   0.06484   0.37640   0.00000  Uiso   1.00
C1441  C     0.71812   0.02396   0.38145   0.00000  Uiso   1.00
C1442  C     0.33794   0.38547   0.71193   0.00000  Uiso   1.00
C1443  C     0.26441   0.33932   0.71752   0.00000  Uiso   1.00
C1444  C     0.81326   0.01750   0.35880   0.00000  Uiso   1.00
C1445  C     0.84642   0.04025   0.33690   0.00000  Uiso   1.00
C1446  C     0.85300   0.98867   0.32342   0.00000  Uiso   1.00
C1447  C     0.83761   0.06257   0.39921   0.00000  Uiso   1.00
C1448  C     0.89126   0.12320   0.41128   0.00000  Uiso   1.00
C1449  C     0.91836   0.10956   0.43182   0.00000  Uiso   1.00
H1450  H     0.73318   0.87694   0.39774   0.00000  Uiso   1.00
H1451  H     0.26576   0.18386   0.73483   0.00000  Uiso   1.00
H1452  H     0.77423   0.83865   0.35981   0.00000  Uiso   1.00
H1453  H     0.81906   0.92159   0.43417   0.00000  Uiso   1.00
H1454  H     0.12843   0.18619   0.73540   0.00000  Uiso   1.00
H1455  H     0.83106   0.82782   0.31416   0.00000  Uiso   1.00
H1456  H     0.92559   0.00272   0.47098   0.00000  Uiso   1.00
H1457  H     0.82046   0.12068   0.37005   0.00000  Uiso   1.00
H1458  H     0.35783   0.44098   0.70563   0.00000  Uiso   1.00
H1459  H     0.86630   0.09576   0.33061   0.00000  Uiso   1.00
H1460  H     0.91113   0.17870   0.40497   0.00000  Uiso   1.00
H1461  H     0.20316   0.39487   0.71170   0.00000  Uiso   1.00
H1462  H     0.90579   0.03650   0.29046   0.00000  Uiso   1.00
H1463  H     0.00032   0.21140   0.44728   0.00000  Uiso   1.00
O1464  O     0.07916   0.27755   0.72551   0.00000  Uiso   1.00
O1465  O     0.89700   0.91137   0.27686   0.00000  Uiso   1.00
O1466  O     0.02103   0.14083   0.48260   0.00000  Uiso   1.00
N1467  N     0.16376   0.23710   0.72952   0.00000  Uiso   1.00
N1468  N     0.84235   0.88035   0.31400   0.00000  Uiso   1.00
N1469  N     0.93075   0.04387   0.46061   0.00000  Uiso   1.00
N1470  N     0.20397   0.34939   0.71676   0.00000  Uiso   1.00
N1471  N     0.88256   0.99264   0.30125   0.00000  Uiso   1.00
N1472  N     0.97096   0.15616   0.44785   0.00000  Uiso   1.00
C1473  C     0.76324   0.79728   0.88079   0.00000  Uiso   1.00
C1474  C     0.70912   0.71637   0.87588   0.00000  Uiso   1.00
C1475  C     0.63606   0.67818   0.88290   0.00000  Uiso   1.00
C1476  C     0.59566   0.60447   0.87667   0.00000  Uiso   1.00
C1477  C     0.50682   0.48405   0.87097   0.00000  Uiso   1.00
C1478  C     0.79225   0.83295   0.85683   0.00000  Uiso   1.00
C1479  C     0.78909   0.89277   0.84785   0.00000  Uiso   1.00
C1480  C     0.48535   0.25053   0.15892   0.00000  Uiso   1.00
C1481  C     0.52562   0.31113   0.12367   0.00000  Uiso   1.00
C1482  C     0.82821   0.79938   0.89351   0.00000  Uiso   1.00
C1483  C     0.85530   0.83099   0.91537   0.00000  Uiso   1.00
C1484  C     0.91518   0.82717   0.92398   0.00000  Uiso   1.00
C1485  C     0.01127   0.83565   0.94568   0.00000  Uiso   1.00
C1486  C     0.82142   0.73430   0.85723   0.00000  Uiso   1.00
C1487  C     0.74073   0.68217   0.86308   0.00000  Uiso   1.00
C1488  C     0.70043   0.60850   0.85683   0.00000  Uiso   1.00
C1489  C     0.62732   0.57020   0.86385   0.00000  Uiso   1.00
C1490  C     0.82385   0.79874   0.84404   0.00000  Uiso   1.00
C1491  C     0.52013   0.15642   0.15512   0.00000  Uiso   1.00
C1492  C     0.51701   0.21626   0.14610   0.00000  Uiso   1.00
C1493  C     0.85981   0.76517   0.88071   0.00000  Uiso   1.00
C1494  C     0.91967   0.76130   0.88930   0.00000  Uiso   1.00
C1495  C     0.94684   0.79290   0.91116   0.00000  Uiso   1.00
H1496  H     0.07197   0.49059   0.55742   0.00000  Uiso   1.00
H1497  H     0.94495   0.37134   0.55947   0.00000  Uiso   1.00
H1498  H     0.76464   0.91924   0.85776   0.00000  Uiso   1.00
H1499  H     0.16416   0.52413   0.59193   0.00000  Uiso   1.00
H1500  H     0.81806   0.22406   0.55609   0.00000  Uiso   1.00
H1501  H     0.80740   0.00982   0.81554   0.00000  Uiso   1.00
H1502  H     0.94698   0.87956   0.95788   0.00000  Uiso   1.00
H1503  H     0.84603   0.70767   0.84726   0.00000  Uiso   1.00
H1504  H     0.72490   0.58204   0.84693   0.00000  Uiso   1.00
H1505  H     0.87792   0.79660   0.81189   0.00000  Uiso   1.00
H1506  H     0.94411   0.73483   0.87939   0.00000  Uiso   1.00
H1507  H     0.57667   0.45785   0.85219   0.00000  Uiso   1.00
H1508  H     0.56601   0.24362   0.11164   0.00000  Uiso   1.00
H1509  H     0.03892   0.78002   0.92065   0.00000  Uiso   1.00
O1510  O     0.44908   0.42708   0.87137   0.00000  Uiso   1.00
O1511  O     0.53909   0.35399   0.10777   0.00000  Uiso   1.00
O1512  O     0.05554   0.84976   0.96118   0.00000  Uiso   1.00
N1513  N     0.52300   0.55120   0.88071   0.00000  Uiso   1.00
N1514  N     0.82466   0.97419   0.81163   0.00000  Uiso   1.00
N1515  N     0.95517   0.85242   0.94471   0.00000  Uiso   1.00
N1516  N     0.57247   0.49764   0.86068   0.00000  Uiso   1.00
N1517  N     0.54080   0.25396   0.12493   0.00000  Uiso   1.00
N1518  N     0.00464   0.79886   0.92467   0.00000  Uiso   1.00
C1519  C     0.41984   0.26612   0.72473   0.00000  Uiso   1.00
C1520  C     0.02576   0.61890   0.05627   0.00000  Uiso   1.00
C1521  C     0.95229   0.57270   0.06186   0.00000  Uiso   1.00
C1522  C     0.90534   0.60079   0.05902   0.00000  Uiso   1.00
C1523  C     0.80711   0.62007   0.05746   0.00000  Uiso   1.00
C1524  C     0.45424   0.27911   0.70028   0.00000  Uiso   1.00
C1525  C     0.46077   0.22748   0.68683   0.00000  Uiso   1.00
C1526  C     0.49393   0.25015   0.66492   0.00000  Uiso   1.00
C1527  C     0.54346   0.25941   0.62820   0.00000  Uiso   1.00
C1528  C     0.47859   0.32417   0.74069   0.00000  Uiso   1.00
C1529  C     0.50561   0.31043   0.76121   0.00000  Uiso   1.00
C1530  C     0.55929   0.37104   0.77331   0.00000  Uiso   1.00
C1531  C     0.64663   0.45027   0.79933   0.00000  Uiso   1.00
C1532  C     0.46713   0.39817   0.70973   0.00000  Uiso   1.00
C1533  C     0.38478   0.35729   0.71479   0.00000  Uiso   1.00
C1534  C     0.00461   0.71880   0.04527   0.00000  Uiso   1.00
C1535  C     0.93108   0.67265   0.05086   0.00000  Uiso   1.00
C1536  C     0.47993   0.35083   0.69213   0.00000  Uiso   1.00
C1537  C     0.51309   0.37358   0.67024   0.00000  Uiso   1.00
C1538  C     0.51966   0.32200   0.65675   0.00000  Uiso   1.00
C1539  C     0.50428   0.39590   0.73254   0.00000  Uiso   1.00
C1540  C     0.55793   0.45654   0.74461   0.00000  Uiso   1.00
C1541  C     0.58502   0.44290   0.76515   0.00000  Uiso   1.00
H1542  H     0.39985   0.21028   0.73107   0.00000  Uiso   1.00
H1543  H     0.93243   0.51719   0.06816   0.00000  Uiso   1.00
H1544  H     0.44089   0.17198   0.69314   0.00000  Uiso   1.00
H1545  H     0.48572   0.25492   0.76751   0.00000  Uiso   1.00
H1546  H     0.79510   0.51952   0.06873   0.00000  Uiso   1.00
H1547  H     0.49772   0.16115   0.64750   0.00000  Uiso   1.00
H1548  H     0.59226   0.33605   0.80431   0.00000  Uiso   1.00
H1549  H     0.48713   0.45402   0.70339   0.00000  Uiso   1.00
H1550  H     0.02450   0.77431   0.03896   0.00000  Uiso   1.00
H1551  H     0.53296   0.42909   0.66394   0.00000  Uiso   1.00
H1552  H     0.57779   0.51204   0.73830   0.00000  Uiso   1.00
H1553  H     0.86982   0.72821   0.04503   0.00000  Uiso   1.00
H1554  H     0.57245   0.36984   0.62379   0.00000  Uiso   1.00
H1555  H     0.66699   0.54473   0.78061   0.00000  Uiso   1.00
O1556  O     0.74583   0.61088   0.05885   0.00000  Uiso   1.00
O1557  O     0.56367   0.24470   0.61019   0.00000  Uiso   1.00
O1558  O     0.68769   0.47416   0.81593   0.00000  Uiso   1.00
N1559  N     0.83043   0.57043   0.06285   0.00000  Uiso   1.00
N1560  N     0.50902   0.21369   0.64733   0.00000  Uiso   1.00
N1561  N     0.59742   0.37720   0.79394   0.00000  Uiso   1.00
N1562  N     0.87064   0.68272   0.05010   0.00000  Uiso   1.00
N1563  N     0.54923   0.32598   0.63458   0.00000  Uiso   1.00
N1564  N     0.63763   0.48949   0.78119   0.00000  Uiso   1.00
C1565  C     0.42990   0.13062   0.21412   0.00000  Uiso   1.00
C1566  C     0.37579   0.04971   0.20921   0.00000  Uiso   1.00
C1567  C     0.30273   0.01151   0.21623   0.00000  Uiso   1.00
C1568  C     0.26233   0.93781   0.21000   0.00000  Uiso   1.00
C1569  C     0.17348   0.81739   0.20431   0.00000  Uiso   1.00
C1570  C     0.45892   0.16628   0.19017   0.00000  Uiso   1.00
C1571  C     0.45576   0.22610   0.18118   0.00000  Uiso   1.00
C1572  C     0.15202   0.58387   0.49226   0.00000  Uiso   1.00
C1573  C     0.19228   0.64446   0.45701   0.00000  Uiso   1.00
C1574  C     0.49488   0.13271   0.22684   0.00000  Uiso   1.00
C1575  C     0.52197   0.16433   0.24870   0.00000  Uiso   1.00
C1576  C     0.58185   0.16051   0.25731   0.00000  Uiso   1.00
C1577  C     0.67794   0.16898   0.27901   0.00000  Uiso   1.00
C1578  C     0.48809   0.06764   0.19056   0.00000  Uiso   1.00
C1579  C     0.40739   0.01550   0.19641   0.00000  Uiso   1.00
C1580  C     0.36710   0.94183   0.19017   0.00000  Uiso   1.00
C1581  C     0.29399   0.90353   0.19718   0.00000  Uiso   1.00
C1582  C     0.49052   0.13207   0.17737   0.00000  Uiso   1.00
C1583  C     0.18680   0.48975   0.48845   0.00000  Uiso   1.00
C1584  C     0.18368   0.54960   0.47944   0.00000  Uiso   1.00
C1585  C     0.52648   0.09850   0.21405   0.00000  Uiso   1.00
C1586  C     0.58633   0.09464   0.22263   0.00000  Uiso   1.00
C1587  C     0.61351   0.12624   0.24449   0.00000  Uiso   1.00
H1588  H     0.73863   0.82392   0.89075   0.00000  Uiso   1.00
H1589  H     0.61162   0.70468   0.89280   0.00000  Uiso   1.00
H1590  H     0.43131   0.25257   0.19109   0.00000  Uiso   1.00
H1591  H     0.83083   0.85746   0.92526   0.00000  Uiso   1.00
H1592  H     0.48473   0.55739   0.88943   0.00000  Uiso   1.00
H1593  H     0.47407   0.34315   0.14887   0.00000  Uiso   1.00
H1594  H     0.61365   0.21289   0.29122   0.00000  Uiso   1.00
H1595  H     0.51269   0.04100   0.18060   0.00000  Uiso   1.00
H1596  H     0.39157   0.91537   0.18026   0.00000  Uiso   1.00
H1597  H     0.54459   0.12994   0.14522   0.00000  Uiso   1.00
H1598  H     0.61078   0.06816   0.21272   0.00000  Uiso   1.00
H1599  H     0.24334   0.79119   0.18552   0.00000  Uiso   1.00
H1600  H     0.23268   0.57695   0.44497   0.00000  Uiso   1.00
H1601  H     0.70559   0.11336   0.25398   0.00000  Uiso   1.00
O1602  O     0.11574   0.76042   0.20470   0.00000  Uiso   1.00
O1603  O     0.20575   0.68733   0.44110   0.00000  Uiso   1.00
O1604  O     0.72221   0.18309   0.29452   0.00000  Uiso   1.00
N1605  N     0.18966   0.88454   0.21405   0.00000  Uiso   1.00
N1606  N     0.49133   0.30752   0.14496   0.00000  Uiso   1.00
N1607  N     0.62184   0.18576   0.27804   0.00000  Uiso   1.00
N1608  N     0.23914   0.83098   0.19401   0.00000  Uiso   1.00
N1609  N     0.20747   0.58730   0.45826   0.00000  Uiso   1.00
N1610  N     0.67131   0.13220   0.25801   0.00000  Uiso   1.00
C1611  C     0.08651   0.59945   0.05806   0.00000  Uiso   1.00
C1612  C     0.69243   0.95223   0.38960   0.00000  Uiso   1.00
C1613  C     0.61895   0.90603   0.39520   0.00000  Uiso   1.00
C1614  C     0.57201   0.93413   0.39235   0.00000  Uiso   1.00
C1615  C     0.47378   0.95340   0.39079   0.00000  Uiso   1.00
C1616  C     0.12091   0.61244   0.03362   0.00000  Uiso   1.00
C1617  C     0.12744   0.56081   0.02016   0.00000  Uiso   1.00
C1618  C     0.16060   0.58348   0.99825   0.00000  Uiso   1.00
C1619  C     0.21012   0.59274   0.96153   0.00000  Uiso   1.00
C1620  C     0.14526   0.65751   0.07402   0.00000  Uiso   1.00
C1621  C     0.17228   0.64377   0.09454   0.00000  Uiso   1.00
C1622  C     0.22596   0.70437   0.10664   0.00000  Uiso   1.00
C1623  C     0.31329   0.78360   0.13266   0.00000  Uiso   1.00
C1624  C     0.13380   0.73151   0.04306   0.00000  Uiso   1.00
C1625  C     0.05145   0.69063   0.04812   0.00000  Uiso   1.00
C1626  C     0.67127   0.05213   0.37860   0.00000  Uiso   1.00
C1627  C     0.59774   0.00598   0.38419   0.00000  Uiso   1.00
C1628  C     0.14659   0.68417   0.02547   0.00000  Uiso   1.00
C1629  C     0.17976   0.70692   0.00357   0.00000  Uiso   1.00
C1630  C     0.18633   0.65533   0.99009   0.00000  Uiso   1.00
C1631  C     0.17094   0.72923   0.06588   0.00000  Uiso   1.00
C1632  C     0.22459   0.78987   0.07795   0.00000  Uiso   1.00
C1633  C     0.25169   0.77623   0.09848   0.00000  Uiso   1.00
H1634  H     0.06651   0.54361   0.06440   0.00000  Uiso   1.00
H1635  H     0.59910   0.85052   0.40150   0.00000  Uiso   1.00
H1636  H     0.10756   0.50531   0.02647   0.00000  Uiso   1.00
H1637  H     0.15239   0.58826   0.10084   0.00000  Uiso   1.00
H1638  H     0.46176   0.85286   0.40207   0.00000  Uiso   1.00
H1639  H     0.16439   0.49449   0.98083   0.00000  Uiso   1.00
H1640  H     0.25893   0.66938   0.13765   0.00000  Uiso   1.00
H1641  H     0.15380   0.78735   0.03672   0.00000  Uiso   1.00
H1642  H     0.69117   0.10764   0.37230   0.00000  Uiso   1.00
H1643  H     0.19963   0.76243   0.99727   0.00000  Uiso   1.00
H1644  H     0.24446   0.84537   0.07164   0.00000  Uiso   1.00
H1645  H     0.53649   0.06154   0.37836   0.00000  Uiso   1.00
H1646  H     0.23912   0.70317   0.95713   0.00000  Uiso   1.00
H1647  H     0.33365   0.87807   0.11394   0.00000  Uiso   1.00
O1648  O     0.41249   0.94421   0.39218   0.00000  Uiso   1.00
O1649  O     0.23034   0.57803   0.94353   0.00000  Uiso   1.00
O1650  O     0.35436   0.80749   0.14927   0.00000  Uiso   1.00
N1651  N     0.49710   0.90377   0.39618   0.00000  Uiso   1.00
N1652  N     0.17569   0.54702   0.98067   0.00000  Uiso   1.00
N1653  N     0.26409   0.71053   0.12727   0.00000  Uiso   1.00
N1654  N     0.53731   0.01606   0.38343   0.00000  Uiso   1.00
N1655  N     0.21590   0.65931   0.96791   0.00000  Uiso   1.00
N1656  N     0.30430   0.82282   0.11452   0.00000  Uiso   1.00
