data_job_02409
_audit_creation_date              2018-12-19
_audit_creation_method            'Materials Studio'
_symmetry_space_group_name_H-M    'P1'
_symmetry_Int_Tables_number       1
_symmetry_cell_setting            triclinic
loop_
_symmetry_equiv_pos_as_xyz
  x,y,z
_cell_length_a                    47.5842
_cell_length_b                    24.9241
_cell_length_c                    9.1756
_cell_angle_alpha                 90.0000
_cell_angle_beta                  90.0000
_cell_angle_gamma                 90.0000
loop_
_atom_site_label
_atom_site_type_symbol
_atom_site_fract_x
_atom_site_fract_y
_atom_site_fract_z
_atom_site_U_iso_or_equiv
_atom_site_adp_type
_atom_site_occupancy
C1     C     0.19599   0.18119   0.13713   0.00000  Uiso   1.00
C2     C     0.20183   0.21645   0.00475   0.00000  Uiso   1.00
C3     C     0.20497   0.27181   0.00640   0.00000  Uiso   1.00
C4     C     0.21022   0.29668   0.87377   0.00000  Uiso   1.00
C5     C     0.21897   0.35593   0.68790   0.00000  Uiso   1.00
C6     C     0.16917   0.15027   0.10216   0.00000  Uiso   1.00
C7     C     0.14486   0.14996   0.18572   0.00000  Uiso   1.00
C8     C     0.12261   0.11911   0.13509   0.00000  Uiso   1.00
C9     C     0.08066   0.07557   0.10051   0.00000  Uiso   1.00
C10    C     0.21951   0.13966   0.14107   0.00000  Uiso   1.00
C11    C     0.23752   0.13043   0.25736   0.00000  Uiso   1.00
C12    C     0.25765   0.09064   0.23950   0.00000  Uiso   1.00
C13    C     0.29386   0.03063   0.26534   0.00000  Uiso   1.00
C14    C     0.19970   0.12693   0.89866   0.00000  Uiso   1.00
C15    C     0.20385   0.18698   0.87522   0.00000  Uiso   1.00
C16    C     0.20909   0.21178   0.74255   0.00000  Uiso   1.00
C17    C     0.21224   0.26716   0.74400   0.00000  Uiso   1.00
C18    C     0.17119   0.12080   0.97263   0.00000  Uiso   1.00
C19    C     0.14897   0.08994   0.92187   0.00000  Uiso   1.00
C20    C     0.12463   0.08959   0.00533   0.00000  Uiso   1.00
C21    C     0.22153   0.11019   0.01154   0.00000  Uiso   1.00
C22    C     0.24163   0.07041   0.99351   0.00000  Uiso   1.00
C23    C     0.25967   0.06112   0.10974   0.00000  Uiso   1.00
H24    H     0.19441   0.20413   0.23798   0.00000  Uiso   1.00
H25    H     0.20341   0.29460   0.10666   0.00000  Uiso   1.00
H26    H     0.14330   0.17276   0.28596   0.00000  Uiso   1.00
H27    H     0.23595   0.15324   0.35758   0.00000  Uiso   1.00
H28    H     0.21426   0.38191   0.90394   0.00000  Uiso   1.00
H29    H     0.08753   0.12501   0.28202   0.00000  Uiso   1.00
H30    H     0.28289   0.08382   0.43306   0.00000  Uiso   1.00
H31    H     0.20128   0.10399   0.79781   0.00000  Uiso   1.00
H32    H     0.21065   0.18897   0.64233   0.00000  Uiso   1.00
H33    H     0.15054   0.06714   0.82163   0.00000  Uiso   1.00
H34    H     0.24319   0.04761   0.89325   0.00000  Uiso   1.00
H35    H     0.22013   0.29618   0.52707   0.00000  Uiso   1.00
H36    H     0.09340   0.03927   0.90516   0.00000  Uiso   1.00
H37    H     0.28877   0.99809   0.05619   0.00000  Uiso   1.00
O38    O     0.22323   0.39675   0.62116   0.00000  Uiso   1.00
O39    O     0.05696   0.05970   0.11721   0.00000  Uiso   1.00
O40    O     0.31328   0.00567   0.31536   0.00000  Uiso   1.00
N41    N     0.21436   0.35007   0.83658   0.00000  Uiso   1.00
N42    N     0.09587   0.10989   0.19006   0.00000  Uiso   1.00
N43    N     0.27852   0.07138   0.33128   0.00000  Uiso   1.00
N44    N     0.21752   0.30394   0.63380   0.00000  Uiso   1.00
N45    N     0.09903   0.06375   0.98727   0.00000  Uiso   1.00
N46    N     0.28168   0.02524   0.12849   0.00000  Uiso   1.00
C47    C     0.19599   0.68119   0.63713   0.00000  Uiso   1.00
C48    C     0.20183   0.71645   0.50475   0.00000  Uiso   1.00
C49    C     0.20497   0.77181   0.50640   0.00000  Uiso   1.00
C50    C     0.21022   0.79668   0.37377   0.00000  Uiso   1.00
C51    C     0.21897   0.85593   0.18790   0.00000  Uiso   1.00
C52    C     0.16917   0.65027   0.60216   0.00000  Uiso   1.00
C53    C     0.14486   0.64996   0.68572   0.00000  Uiso   1.00
C54    C     0.12261   0.61911   0.63509   0.00000  Uiso   1.00
C55    C     0.08066   0.57557   0.60051   0.00000  Uiso   1.00
C56    C     0.21951   0.63966   0.64107   0.00000  Uiso   1.00
C57    C     0.23752   0.63043   0.75736   0.00000  Uiso   1.00
C58    C     0.25765   0.59064   0.73950   0.00000  Uiso   1.00
C59    C     0.29386   0.53063   0.76534   0.00000  Uiso   1.00
C60    C     0.19970   0.62693   0.39866   0.00000  Uiso   1.00
C61    C     0.20385   0.68698   0.37522   0.00000  Uiso   1.00
C62    C     0.20909   0.71178   0.24255   0.00000  Uiso   1.00
C63    C     0.21224   0.76716   0.24400   0.00000  Uiso   1.00
C64    C     0.17119   0.62080   0.47263   0.00000  Uiso   1.00
C65    C     0.14897   0.58994   0.42187   0.00000  Uiso   1.00
C66    C     0.12463   0.58959   0.50533   0.00000  Uiso   1.00
C67    C     0.22153   0.61019   0.51154   0.00000  Uiso   1.00
C68    C     0.24163   0.57041   0.49351   0.00000  Uiso   1.00
C69    C     0.25967   0.56112   0.60974   0.00000  Uiso   1.00
H70    H     0.19441   0.70413   0.73798   0.00000  Uiso   1.00
H71    H     0.20341   0.79460   0.60666   0.00000  Uiso   1.00
H72    H     0.14330   0.67276   0.78596   0.00000  Uiso   1.00
H73    H     0.23595   0.65324   0.85758   0.00000  Uiso   1.00
H74    H     0.21426   0.88191   0.40394   0.00000  Uiso   1.00
H75    H     0.08753   0.62501   0.78202   0.00000  Uiso   1.00
H76    H     0.28289   0.58382   0.93306   0.00000  Uiso   1.00
H77    H     0.20128   0.60399   0.29781   0.00000  Uiso   1.00
H78    H     0.21065   0.68897   0.14233   0.00000  Uiso   1.00
H79    H     0.15054   0.56714   0.32163   0.00000  Uiso   1.00
H80    H     0.24319   0.54761   0.39325   0.00000  Uiso   1.00
H81    H     0.22013   0.79618   0.02707   0.00000  Uiso   1.00
H82    H     0.09340   0.53927   0.40516   0.00000  Uiso   1.00
H83    H     0.28877   0.49809   0.55619   0.00000  Uiso   1.00
O84    O     0.22323   0.89675   0.12116   0.00000  Uiso   1.00
O85    O     0.05696   0.55970   0.61721   0.00000  Uiso   1.00
O86    O     0.31328   0.50567   0.81536   0.00000  Uiso   1.00
N87    N     0.21436   0.85007   0.33658   0.00000  Uiso   1.00
N88    N     0.09587   0.60989   0.69006   0.00000  Uiso   1.00
N89    N     0.27852   0.57138   0.83128   0.00000  Uiso   1.00
N90    N     0.21752   0.80394   0.13380   0.00000  Uiso   1.00
N91    N     0.09903   0.56375   0.48727   0.00000  Uiso   1.00
N92    N     0.28168   0.52524   0.62849   0.00000  Uiso   1.00
C93    C     0.69599   0.18119   0.63713   0.00000  Uiso   1.00
C94    C     0.70183   0.21645   0.50475   0.00000  Uiso   1.00
C95    C     0.70497   0.27181   0.50640   0.00000  Uiso   1.00
C96    C     0.71022   0.29668   0.37377   0.00000  Uiso   1.00
C97    C     0.71897   0.35593   0.18790   0.00000  Uiso   1.00
C98    C     0.66917   0.15027   0.60216   0.00000  Uiso   1.00
C99    C     0.64486   0.14996   0.68572   0.00000  Uiso   1.00
C100   C     0.62261   0.11911   0.63509   0.00000  Uiso   1.00
C101   C     0.58066   0.07557   0.60051   0.00000  Uiso   1.00
C102   C     0.71951   0.13966   0.64107   0.00000  Uiso   1.00
C103   C     0.73752   0.13043   0.75736   0.00000  Uiso   1.00
C104   C     0.75765   0.09064   0.73950   0.00000  Uiso   1.00
C105   C     0.79386   0.03063   0.76534   0.00000  Uiso   1.00
C106   C     0.69970   0.12693   0.39866   0.00000  Uiso   1.00
C107   C     0.70385   0.18698   0.37522   0.00000  Uiso   1.00
C108   C     0.70909   0.21178   0.24255   0.00000  Uiso   1.00
C109   C     0.71224   0.26716   0.24400   0.00000  Uiso   1.00
C110   C     0.67119   0.12080   0.47263   0.00000  Uiso   1.00
C111   C     0.64897   0.08994   0.42187   0.00000  Uiso   1.00
C112   C     0.62463   0.08959   0.50533   0.00000  Uiso   1.00
C113   C     0.72153   0.11019   0.51154   0.00000  Uiso   1.00
C114   C     0.74163   0.07041   0.49351   0.00000  Uiso   1.00
C115   C     0.75967   0.06112   0.60974   0.00000  Uiso   1.00
H116   H     0.69441   0.20413   0.73798   0.00000  Uiso   1.00
H117   H     0.70341   0.29460   0.60666   0.00000  Uiso   1.00
H118   H     0.64330   0.17276   0.78596   0.00000  Uiso   1.00
H119   H     0.73595   0.15324   0.85758   0.00000  Uiso   1.00
H120   H     0.71426   0.38191   0.40394   0.00000  Uiso   1.00
H121   H     0.58753   0.12501   0.78202   0.00000  Uiso   1.00
H122   H     0.78289   0.08382   0.93306   0.00000  Uiso   1.00
H123   H     0.70128   0.10399   0.29781   0.00000  Uiso   1.00
H124   H     0.71065   0.18897   0.14233   0.00000  Uiso   1.00
H125   H     0.65054   0.06714   0.32163   0.00000  Uiso   1.00
H126   H     0.74319   0.04761   0.39325   0.00000  Uiso   1.00
H127   H     0.72013   0.29618   0.02707   0.00000  Uiso   1.00
H128   H     0.59340   0.03927   0.40516   0.00000  Uiso   1.00
H129   H     0.78877   0.99809   0.55619   0.00000  Uiso   1.00
O130   O     0.72323   0.39675   0.12116   0.00000  Uiso   1.00
O131   O     0.55696   0.05970   0.61721   0.00000  Uiso   1.00
O132   O     0.81328   0.00567   0.81536   0.00000  Uiso   1.00
N133   N     0.71436   0.35007   0.33658   0.00000  Uiso   1.00
N134   N     0.59587   0.10989   0.69006   0.00000  Uiso   1.00
N135   N     0.77852   0.07138   0.83128   0.00000  Uiso   1.00
N136   N     0.71752   0.30394   0.13380   0.00000  Uiso   1.00
N137   N     0.59903   0.06375   0.48727   0.00000  Uiso   1.00
N138   N     0.78168   0.02524   0.62849   0.00000  Uiso   1.00
C139   C     0.69599   0.68119   0.13713   0.00000  Uiso   1.00
C140   C     0.70183   0.71645   0.00475   0.00000  Uiso   1.00
C141   C     0.70497   0.77181   0.00640   0.00000  Uiso   1.00
C142   C     0.71022   0.79668   0.87377   0.00000  Uiso   1.00
C143   C     0.71897   0.85593   0.68790   0.00000  Uiso   1.00
C144   C     0.66917   0.65027   0.10216   0.00000  Uiso   1.00
C145   C     0.64486   0.64996   0.18572   0.00000  Uiso   1.00
C146   C     0.62261   0.61911   0.13509   0.00000  Uiso   1.00
C147   C     0.58066   0.57557   0.10051   0.00000  Uiso   1.00
C148   C     0.71951   0.63966   0.14107   0.00000  Uiso   1.00
C149   C     0.73752   0.63043   0.25736   0.00000  Uiso   1.00
C150   C     0.75765   0.59064   0.23950   0.00000  Uiso   1.00
C151   C     0.79386   0.53063   0.26534   0.00000  Uiso   1.00
C152   C     0.69970   0.62693   0.89866   0.00000  Uiso   1.00
C153   C     0.70385   0.68698   0.87522   0.00000  Uiso   1.00
C154   C     0.70909   0.71178   0.74255   0.00000  Uiso   1.00
C155   C     0.71224   0.76716   0.74400   0.00000  Uiso   1.00
C156   C     0.67119   0.62080   0.97263   0.00000  Uiso   1.00
C157   C     0.64897   0.58994   0.92187   0.00000  Uiso   1.00
C158   C     0.62463   0.58959   0.00533   0.00000  Uiso   1.00
C159   C     0.72153   0.61019   0.01154   0.00000  Uiso   1.00
C160   C     0.74163   0.57041   0.99351   0.00000  Uiso   1.00
C161   C     0.75967   0.56112   0.10974   0.00000  Uiso   1.00
H162   H     0.69441   0.70413   0.23798   0.00000  Uiso   1.00
H163   H     0.70341   0.79460   0.10666   0.00000  Uiso   1.00
H164   H     0.64330   0.67276   0.28596   0.00000  Uiso   1.00
H165   H     0.73595   0.65324   0.35758   0.00000  Uiso   1.00
H166   H     0.71426   0.88191   0.90394   0.00000  Uiso   1.00
H167   H     0.58753   0.62501   0.28202   0.00000  Uiso   1.00
H168   H     0.78289   0.58382   0.43306   0.00000  Uiso   1.00
H169   H     0.70128   0.60399   0.79781   0.00000  Uiso   1.00
H170   H     0.71065   0.68897   0.64233   0.00000  Uiso   1.00
H171   H     0.65054   0.56714   0.82163   0.00000  Uiso   1.00
H172   H     0.74319   0.54761   0.89325   0.00000  Uiso   1.00
H173   H     0.72013   0.79618   0.52707   0.00000  Uiso   1.00
H174   H     0.59340   0.53927   0.90516   0.00000  Uiso   1.00
H175   H     0.78877   0.49809   0.05619   0.00000  Uiso   1.00
O176   O     0.72323   0.89675   0.62116   0.00000  Uiso   1.00
O177   O     0.55696   0.55970   0.11721   0.00000  Uiso   1.00
O178   O     0.81328   0.50567   0.31536   0.00000  Uiso   1.00
N179   N     0.71436   0.85007   0.83658   0.00000  Uiso   1.00
N180   N     0.59587   0.60989   0.19006   0.00000  Uiso   1.00
N181   N     0.77852   0.57138   0.33128   0.00000  Uiso   1.00
N182   N     0.71752   0.80394   0.63380   0.00000  Uiso   1.00
N183   N     0.59903   0.56375   0.98727   0.00000  Uiso   1.00
N184   N     0.78168   0.52524   0.12849   0.00000  Uiso   1.00
C185   C     0.80401   0.81881   0.13713   0.00000  Uiso   1.00
C186   C     0.79817   0.78355   0.00475   0.00000  Uiso   1.00
C187   C     0.79503   0.72819   0.00640   0.00000  Uiso   1.00
C188   C     0.78978   0.70332   0.87377   0.00000  Uiso   1.00
C189   C     0.78103   0.64407   0.68790   0.00000  Uiso   1.00
C190   C     0.83083   0.84973   0.10216   0.00000  Uiso   1.00
C191   C     0.85514   0.85004   0.18572   0.00000  Uiso   1.00
C192   C     0.87739   0.88089   0.13509   0.00000  Uiso   1.00
C193   C     0.91934   0.92443   0.10051   0.00000  Uiso   1.00
C194   C     0.78049   0.86034   0.14107   0.00000  Uiso   1.00
C195   C     0.76248   0.86957   0.25736   0.00000  Uiso   1.00
C196   C     0.74235   0.90936   0.23950   0.00000  Uiso   1.00
C197   C     0.70614   0.96937   0.26534   0.00000  Uiso   1.00
C198   C     0.80030   0.87307   0.89866   0.00000  Uiso   1.00
C199   C     0.79615   0.81302   0.87522   0.00000  Uiso   1.00
C200   C     0.79091   0.78822   0.74255   0.00000  Uiso   1.00
C201   C     0.78776   0.73284   0.74400   0.00000  Uiso   1.00
C202   C     0.82881   0.87920   0.97263   0.00000  Uiso   1.00
C203   C     0.85103   0.91006   0.92187   0.00000  Uiso   1.00
C204   C     0.87537   0.91041   0.00533   0.00000  Uiso   1.00
C205   C     0.77847   0.88981   0.01154   0.00000  Uiso   1.00
C206   C     0.75837   0.92959   0.99351   0.00000  Uiso   1.00
C207   C     0.74033   0.93888   0.10974   0.00000  Uiso   1.00
H208   H     0.80559   0.79587   0.23798   0.00000  Uiso   1.00
H209   H     0.79659   0.70540   0.10666   0.00000  Uiso   1.00
H210   H     0.85670   0.82724   0.28596   0.00000  Uiso   1.00
H211   H     0.76405   0.84676   0.35758   0.00000  Uiso   1.00
H212   H     0.78574   0.61809   0.90394   0.00000  Uiso   1.00
H213   H     0.91247   0.87499   0.28202   0.00000  Uiso   1.00
H214   H     0.71711   0.91618   0.43306   0.00000  Uiso   1.00
H215   H     0.79872   0.89601   0.79781   0.00000  Uiso   1.00
H216   H     0.78935   0.81103   0.64233   0.00000  Uiso   1.00
H217   H     0.84946   0.93286   0.82163   0.00000  Uiso   1.00
H218   H     0.75681   0.95239   0.89325   0.00000  Uiso   1.00
H219   H     0.77987   0.70382   0.52707   0.00000  Uiso   1.00
H220   H     0.90660   0.96073   0.90516   0.00000  Uiso   1.00
H221   H     0.71123   0.00191   0.05619   0.00000  Uiso   1.00
O222   O     0.77677   0.60325   0.62116   0.00000  Uiso   1.00
O223   O     0.94304   0.94030   0.11721   0.00000  Uiso   1.00
O224   O     0.68672   0.99433   0.31536   0.00000  Uiso   1.00
N225   N     0.78564   0.64993   0.83658   0.00000  Uiso   1.00
N226   N     0.90413   0.89011   0.19006   0.00000  Uiso   1.00
N227   N     0.72148   0.92862   0.33128   0.00000  Uiso   1.00
N228   N     0.78248   0.69606   0.63380   0.00000  Uiso   1.00
N229   N     0.90097   0.93625   0.98727   0.00000  Uiso   1.00
N230   N     0.71832   0.97476   0.12849   0.00000  Uiso   1.00
C231   C     0.80401   0.31881   0.63713   0.00000  Uiso   1.00
C232   C     0.79817   0.28355   0.50475   0.00000  Uiso   1.00
C233   C     0.79503   0.22819   0.50640   0.00000  Uiso   1.00
C234   C     0.78978   0.20332   0.37377   0.00000  Uiso   1.00
C235   C     0.78103   0.14407   0.18790   0.00000  Uiso   1.00
C236   C     0.83083   0.34973   0.60216   0.00000  Uiso   1.00
C237   C     0.85514   0.35004   0.68572   0.00000  Uiso   1.00
C238   C     0.87739   0.38089   0.63509   0.00000  Uiso   1.00
C239   C     0.91934   0.42443   0.60051   0.00000  Uiso   1.00
C240   C     0.78049   0.36034   0.64107   0.00000  Uiso   1.00
C241   C     0.76248   0.36957   0.75736   0.00000  Uiso   1.00
C242   C     0.74235   0.40936   0.73950   0.00000  Uiso   1.00
C243   C     0.70614   0.46937   0.76534   0.00000  Uiso   1.00
C244   C     0.80030   0.37307   0.39866   0.00000  Uiso   1.00
C245   C     0.79615   0.31302   0.37522   0.00000  Uiso   1.00
C246   C     0.79091   0.28822   0.24255   0.00000  Uiso   1.00
C247   C     0.78776   0.23284   0.24400   0.00000  Uiso   1.00
C248   C     0.82881   0.37920   0.47263   0.00000  Uiso   1.00
C249   C     0.85103   0.41006   0.42187   0.00000  Uiso   1.00
C250   C     0.87537   0.41041   0.50533   0.00000  Uiso   1.00
C251   C     0.77847   0.38981   0.51154   0.00000  Uiso   1.00
C252   C     0.75837   0.42959   0.49351   0.00000  Uiso   1.00
C253   C     0.74033   0.43888   0.60974   0.00000  Uiso   1.00
H254   H     0.80559   0.29587   0.73798   0.00000  Uiso   1.00
H255   H     0.79659   0.20540   0.60666   0.00000  Uiso   1.00
H256   H     0.85670   0.32724   0.78596   0.00000  Uiso   1.00
H257   H     0.76405   0.34676   0.85758   0.00000  Uiso   1.00
H258   H     0.78574   0.11809   0.40394   0.00000  Uiso   1.00
H259   H     0.91247   0.37499   0.78202   0.00000  Uiso   1.00
H260   H     0.71711   0.41618   0.93306   0.00000  Uiso   1.00
H261   H     0.79872   0.39601   0.29781   0.00000  Uiso   1.00
H262   H     0.78935   0.31103   0.14233   0.00000  Uiso   1.00
H263   H     0.84946   0.43286   0.32163   0.00000  Uiso   1.00
H264   H     0.75681   0.45239   0.39325   0.00000  Uiso   1.00
H265   H     0.77987   0.20382   0.02707   0.00000  Uiso   1.00
H266   H     0.90660   0.46073   0.40516   0.00000  Uiso   1.00
H267   H     0.71123   0.50191   0.55619   0.00000  Uiso   1.00
O268   O     0.77677   0.10325   0.12116   0.00000  Uiso   1.00
O269   O     0.94304   0.44030   0.61721   0.00000  Uiso   1.00
O270   O     0.68672   0.49433   0.81536   0.00000  Uiso   1.00
N271   N     0.78564   0.14993   0.33658   0.00000  Uiso   1.00
N272   N     0.90413   0.39011   0.69006   0.00000  Uiso   1.00
N273   N     0.72148   0.42862   0.83128   0.00000  Uiso   1.00
N274   N     0.78248   0.19606   0.13380   0.00000  Uiso   1.00
N275   N     0.90097   0.43625   0.48727   0.00000  Uiso   1.00
N276   N     0.71832   0.47476   0.62849   0.00000  Uiso   1.00
C277   C     0.30401   0.81881   0.63713   0.00000  Uiso   1.00
C278   C     0.29817   0.78355   0.50475   0.00000  Uiso   1.00
C279   C     0.29503   0.72819   0.50640   0.00000  Uiso   1.00
C280   C     0.28978   0.70332   0.37377   0.00000  Uiso   1.00
C281   C     0.28103   0.64407   0.18790   0.00000  Uiso   1.00
C282   C     0.33083   0.84973   0.60216   0.00000  Uiso   1.00
C283   C     0.35514   0.85004   0.68572   0.00000  Uiso   1.00
C284   C     0.37739   0.88089   0.63509   0.00000  Uiso   1.00
C285   C     0.41934   0.92443   0.60051   0.00000  Uiso   1.00
C286   C     0.28049   0.86034   0.64107   0.00000  Uiso   1.00
C287   C     0.26248   0.86957   0.75736   0.00000  Uiso   1.00
C288   C     0.24235   0.90936   0.73950   0.00000  Uiso   1.00
C289   C     0.20614   0.96937   0.76534   0.00000  Uiso   1.00
C290   C     0.30030   0.87307   0.39866   0.00000  Uiso   1.00
C291   C     0.29615   0.81302   0.37522   0.00000  Uiso   1.00
C292   C     0.29091   0.78822   0.24255   0.00000  Uiso   1.00
C293   C     0.28776   0.73284   0.24400   0.00000  Uiso   1.00
C294   C     0.32881   0.87920   0.47263   0.00000  Uiso   1.00
C295   C     0.35103   0.91006   0.42187   0.00000  Uiso   1.00
C296   C     0.37537   0.91041   0.50533   0.00000  Uiso   1.00
C297   C     0.27847   0.88981   0.51154   0.00000  Uiso   1.00
C298   C     0.25837   0.92959   0.49351   0.00000  Uiso   1.00
C299   C     0.24033   0.93888   0.60974   0.00000  Uiso   1.00
H300   H     0.30559   0.79587   0.73798   0.00000  Uiso   1.00
H301   H     0.29659   0.70540   0.60666   0.00000  Uiso   1.00
H302   H     0.35670   0.82724   0.78596   0.00000  Uiso   1.00
H303   H     0.26405   0.84676   0.85758   0.00000  Uiso   1.00
H304   H     0.28574   0.61809   0.40394   0.00000  Uiso   1.00
H305   H     0.41247   0.87499   0.78202   0.00000  Uiso   1.00
H306   H     0.21711   0.91618   0.93306   0.00000  Uiso   1.00
H307   H     0.29872   0.89601   0.29781   0.00000  Uiso   1.00
H308   H     0.28935   0.81103   0.14233   0.00000  Uiso   1.00
H309   H     0.34946   0.93286   0.32163   0.00000  Uiso   1.00
H310   H     0.25681   0.95239   0.39325   0.00000  Uiso   1.00
H311   H     0.27987   0.70382   0.02707   0.00000  Uiso   1.00
H312   H     0.40660   0.96073   0.40516   0.00000  Uiso   1.00
H313   H     0.21123   0.00191   0.55619   0.00000  Uiso   1.00
O314   O     0.27677   0.60325   0.12116   0.00000  Uiso   1.00
O315   O     0.44304   0.94030   0.61721   0.00000  Uiso   1.00
O316   O     0.18672   0.99433   0.81536   0.00000  Uiso   1.00
N317   N     0.28564   0.64993   0.33658   0.00000  Uiso   1.00
N318   N     0.40413   0.89011   0.69006   0.00000  Uiso   1.00
N319   N     0.22148   0.92862   0.83128   0.00000  Uiso   1.00
N320   N     0.28248   0.69606   0.13380   0.00000  Uiso   1.00
N321   N     0.40097   0.93625   0.48727   0.00000  Uiso   1.00
N322   N     0.21832   0.97476   0.62849   0.00000  Uiso   1.00
C323   C     0.30401   0.31881   0.13713   0.00000  Uiso   1.00
C324   C     0.29817   0.28355   0.00475   0.00000  Uiso   1.00
C325   C     0.29503   0.22819   0.00640   0.00000  Uiso   1.00
C326   C     0.28978   0.20332   0.87377   0.00000  Uiso   1.00
C327   C     0.28103   0.14407   0.68790   0.00000  Uiso   1.00
C328   C     0.33083   0.34973   0.10216   0.00000  Uiso   1.00
C329   C     0.35514   0.35004   0.18572   0.00000  Uiso   1.00
C330   C     0.37739   0.38089   0.13509   0.00000  Uiso   1.00
C331   C     0.41934   0.42443   0.10051   0.00000  Uiso   1.00
C332   C     0.28049   0.36034   0.14107   0.00000  Uiso   1.00
C333   C     0.26248   0.36957   0.25736   0.00000  Uiso   1.00
C334   C     0.24235   0.40936   0.23950   0.00000  Uiso   1.00
C335   C     0.20614   0.46937   0.26534   0.00000  Uiso   1.00
C336   C     0.30030   0.37307   0.89866   0.00000  Uiso   1.00
C337   C     0.29615   0.31302   0.87522   0.00000  Uiso   1.00
C338   C     0.29091   0.28822   0.74255   0.00000  Uiso   1.00
C339   C     0.28776   0.23284   0.74400   0.00000  Uiso   1.00
C340   C     0.32881   0.37920   0.97263   0.00000  Uiso   1.00
C341   C     0.35103   0.41006   0.92187   0.00000  Uiso   1.00
C342   C     0.37537   0.41041   0.00533   0.00000  Uiso   1.00
C343   C     0.27847   0.38981   0.01154   0.00000  Uiso   1.00
C344   C     0.25837   0.42959   0.99351   0.00000  Uiso   1.00
C345   C     0.24033   0.43888   0.10974   0.00000  Uiso   1.00
H346   H     0.30559   0.29587   0.23798   0.00000  Uiso   1.00
H347   H     0.29659   0.20540   0.10666   0.00000  Uiso   1.00
H348   H     0.35670   0.32724   0.28596   0.00000  Uiso   1.00
H349   H     0.26405   0.34676   0.35758   0.00000  Uiso   1.00
H350   H     0.28574   0.11809   0.90394   0.00000  Uiso   1.00
H351   H     0.41247   0.37499   0.28202   0.00000  Uiso   1.00
H352   H     0.21711   0.41618   0.43306   0.00000  Uiso   1.00
H353   H     0.29872   0.39601   0.79781   0.00000  Uiso   1.00
H354   H     0.28935   0.31103   0.64233   0.00000  Uiso   1.00
H355   H     0.34946   0.43286   0.82163   0.00000  Uiso   1.00
H356   H     0.25681   0.45239   0.89325   0.00000  Uiso   1.00
H357   H     0.27987   0.20382   0.52707   0.00000  Uiso   1.00
H358   H     0.40660   0.46073   0.90516   0.00000  Uiso   1.00
H359   H     0.21123   0.50191   0.05619   0.00000  Uiso   1.00
O360   O     0.27677   0.10325   0.62116   0.00000  Uiso   1.00
O361   O     0.44304   0.44030   0.11721   0.00000  Uiso   1.00
O362   O     0.18672   0.49433   0.31536   0.00000  Uiso   1.00
N363   N     0.28564   0.14993   0.83658   0.00000  Uiso   1.00
N364   N     0.40413   0.39011   0.19006   0.00000  Uiso   1.00
N365   N     0.22148   0.42862   0.33128   0.00000  Uiso   1.00
N366   N     0.28248   0.19606   0.63380   0.00000  Uiso   1.00
N367   N     0.40097   0.43625   0.98727   0.00000  Uiso   1.00
N368   N     0.21832   0.47476   0.12849   0.00000  Uiso   1.00
C369   C     0.44599   0.06881   0.38713   0.00000  Uiso   1.00
C370   C     0.45183   0.03355   0.25475   0.00000  Uiso   1.00
C371   C     0.45497   0.97819   0.25640   0.00000  Uiso   1.00
C372   C     0.46022   0.95332   0.12377   0.00000  Uiso   1.00
C373   C     0.46897   0.89407   0.93790   0.00000  Uiso   1.00
C374   C     0.41917   0.09973   0.35216   0.00000  Uiso   1.00
C375   C     0.39486   0.10004   0.43572   0.00000  Uiso   1.00
C376   C     0.37261   0.13089   0.38509   0.00000  Uiso   1.00
C377   C     0.33066   0.17443   0.35051   0.00000  Uiso   1.00
C378   C     0.46951   0.11034   0.39107   0.00000  Uiso   1.00
C379   C     0.48752   0.11957   0.50736   0.00000  Uiso   1.00
C380   C     0.50765   0.15936   0.48950   0.00000  Uiso   1.00
C381   C     0.54386   0.21937   0.51534   0.00000  Uiso   1.00
C382   C     0.44970   0.12307   0.14866   0.00000  Uiso   1.00
C383   C     0.45385   0.06302   0.12522   0.00000  Uiso   1.00
C384   C     0.45909   0.03822   0.99255   0.00000  Uiso   1.00
C385   C     0.46224   0.98284   0.99400   0.00000  Uiso   1.00
C386   C     0.42119   0.12920   0.22263   0.00000  Uiso   1.00
C387   C     0.39897   0.16006   0.17187   0.00000  Uiso   1.00
C388   C     0.37463   0.16041   0.25533   0.00000  Uiso   1.00
C389   C     0.47153   0.13981   0.26154   0.00000  Uiso   1.00
C390   C     0.49163   0.17959   0.24351   0.00000  Uiso   1.00
C391   C     0.50967   0.18888   0.35974   0.00000  Uiso   1.00
H392   H     0.44441   0.04587   0.48798   0.00000  Uiso   1.00
H393   H     0.45341   0.95540   0.35666   0.00000  Uiso   1.00
H394   H     0.39330   0.07724   0.53596   0.00000  Uiso   1.00
H395   H     0.48595   0.09676   0.60758   0.00000  Uiso   1.00
H396   H     0.46426   0.86809   0.15394   0.00000  Uiso   1.00
H397   H     0.33753   0.12499   0.53202   0.00000  Uiso   1.00
H398   H     0.53289   0.16618   0.68306   0.00000  Uiso   1.00
H399   H     0.45128   0.14601   0.04781   0.00000  Uiso   1.00
H400   H     0.46065   0.06103   0.89233   0.00000  Uiso   1.00
H401   H     0.40054   0.18286   0.07163   0.00000  Uiso   1.00
H402   H     0.49319   0.20239   0.14325   0.00000  Uiso   1.00
H403   H     0.47013   0.95382   0.77707   0.00000  Uiso   1.00
H404   H     0.34340   0.21073   0.15516   0.00000  Uiso   1.00
H405   H     0.53877   0.25191   0.30619   0.00000  Uiso   1.00
O406   O     0.47323   0.85325   0.87116   0.00000  Uiso   1.00
O407   O     0.30696   0.19030   0.36721   0.00000  Uiso   1.00
O408   O     0.56328   0.24433   0.56536   0.00000  Uiso   1.00
N409   N     0.46436   0.89993   0.08658   0.00000  Uiso   1.00
N410   N     0.34587   0.14011   0.44006   0.00000  Uiso   1.00
N411   N     0.52852   0.17862   0.58128   0.00000  Uiso   1.00
N412   N     0.46752   0.94606   0.88380   0.00000  Uiso   1.00
N413   N     0.34903   0.18625   0.23727   0.00000  Uiso   1.00
N414   N     0.53168   0.22476   0.37849   0.00000  Uiso   1.00
C415   C     0.44599   0.56881   0.88713   0.00000  Uiso   1.00
C416   C     0.45183   0.53355   0.75475   0.00000  Uiso   1.00
C417   C     0.45497   0.47819   0.75640   0.00000  Uiso   1.00
C418   C     0.46022   0.45332   0.62377   0.00000  Uiso   1.00
C419   C     0.46897   0.39407   0.43790   0.00000  Uiso   1.00
C420   C     0.41917   0.59973   0.85216   0.00000  Uiso   1.00
C421   C     0.39486   0.60004   0.93572   0.00000  Uiso   1.00
C422   C     0.37261   0.63089   0.88509   0.00000  Uiso   1.00
C423   C     0.33066   0.67443   0.85051   0.00000  Uiso   1.00
C424   C     0.46951   0.61034   0.89107   0.00000  Uiso   1.00
C425   C     0.48752   0.61957   0.00736   0.00000  Uiso   1.00
C426   C     0.50765   0.65936   0.98950   0.00000  Uiso   1.00
C427   C     0.54386   0.71937   0.01534   0.00000  Uiso   1.00
C428   C     0.44970   0.62307   0.64866   0.00000  Uiso   1.00
C429   C     0.45385   0.56302   0.62522   0.00000  Uiso   1.00
C430   C     0.45909   0.53822   0.49255   0.00000  Uiso   1.00
C431   C     0.46224   0.48284   0.49400   0.00000  Uiso   1.00
C432   C     0.42119   0.62920   0.72263   0.00000  Uiso   1.00
C433   C     0.39897   0.66006   0.67187   0.00000  Uiso   1.00
C434   C     0.37463   0.66041   0.75533   0.00000  Uiso   1.00
C435   C     0.47153   0.63981   0.76154   0.00000  Uiso   1.00
C436   C     0.49163   0.67959   0.74351   0.00000  Uiso   1.00
C437   C     0.50967   0.68888   0.85974   0.00000  Uiso   1.00
H438   H     0.44441   0.54587   0.98798   0.00000  Uiso   1.00
H439   H     0.45341   0.45540   0.85666   0.00000  Uiso   1.00
H440   H     0.39330   0.57724   0.03596   0.00000  Uiso   1.00
H441   H     0.48595   0.59676   0.10758   0.00000  Uiso   1.00
H442   H     0.46426   0.36809   0.65394   0.00000  Uiso   1.00
H443   H     0.33753   0.62499   0.03202   0.00000  Uiso   1.00
H444   H     0.53289   0.66618   0.18306   0.00000  Uiso   1.00
H445   H     0.45128   0.64601   0.54781   0.00000  Uiso   1.00
H446   H     0.46065   0.56103   0.39233   0.00000  Uiso   1.00
H447   H     0.40054   0.68286   0.57163   0.00000  Uiso   1.00
H448   H     0.49319   0.70239   0.64325   0.00000  Uiso   1.00
H449   H     0.47013   0.45382   0.27707   0.00000  Uiso   1.00
H450   H     0.34340   0.71073   0.65516   0.00000  Uiso   1.00
H451   H     0.53877   0.75191   0.80619   0.00000  Uiso   1.00
O452   O     0.47323   0.35325   0.37116   0.00000  Uiso   1.00
O453   O     0.30696   0.69030   0.86721   0.00000  Uiso   1.00
O454   O     0.56328   0.74433   0.06536   0.00000  Uiso   1.00
N455   N     0.46436   0.39993   0.58658   0.00000  Uiso   1.00
N456   N     0.34587   0.64011   0.94006   0.00000  Uiso   1.00
N457   N     0.52852   0.67862   0.08128   0.00000  Uiso   1.00
N458   N     0.46752   0.44606   0.38380   0.00000  Uiso   1.00
N459   N     0.34903   0.68625   0.73727   0.00000  Uiso   1.00
N460   N     0.53168   0.72476   0.87849   0.00000  Uiso   1.00
C461   C     0.94599   0.06881   0.88713   0.00000  Uiso   1.00
C462   C     0.95183   0.03355   0.75475   0.00000  Uiso   1.00
C463   C     0.95497   0.97819   0.75640   0.00000  Uiso   1.00
C464   C     0.96022   0.95332   0.62377   0.00000  Uiso   1.00
C465   C     0.96897   0.89407   0.43790   0.00000  Uiso   1.00
C466   C     0.91917   0.09973   0.85216   0.00000  Uiso   1.00
C467   C     0.89486   0.10004   0.93572   0.00000  Uiso   1.00
C468   C     0.87261   0.13089   0.88509   0.00000  Uiso   1.00
C469   C     0.83066   0.17443   0.85051   0.00000  Uiso   1.00
C470   C     0.96951   0.11034   0.89107   0.00000  Uiso   1.00
C471   C     0.98752   0.11957   0.00736   0.00000  Uiso   1.00
C472   C     0.00765   0.15936   0.98950   0.00000  Uiso   1.00
C473   C     0.04386   0.21937   0.01534   0.00000  Uiso   1.00
C474   C     0.94970   0.12307   0.64866   0.00000  Uiso   1.00
C475   C     0.95385   0.06302   0.62522   0.00000  Uiso   1.00
C476   C     0.95909   0.03822   0.49255   0.00000  Uiso   1.00
C477   C     0.96224   0.98284   0.49400   0.00000  Uiso   1.00
C478   C     0.92119   0.12920   0.72263   0.00000  Uiso   1.00
C479   C     0.89897   0.16006   0.67187   0.00000  Uiso   1.00
C480   C     0.87463   0.16041   0.75533   0.00000  Uiso   1.00
C481   C     0.97153   0.13981   0.76154   0.00000  Uiso   1.00
C482   C     0.99163   0.17959   0.74351   0.00000  Uiso   1.00
C483   C     0.00967   0.18888   0.85974   0.00000  Uiso   1.00
H484   H     0.94441   0.04587   0.98798   0.00000  Uiso   1.00
H485   H     0.95341   0.95540   0.85666   0.00000  Uiso   1.00
H486   H     0.89330   0.07724   0.03596   0.00000  Uiso   1.00
H487   H     0.98595   0.09676   0.10758   0.00000  Uiso   1.00
H488   H     0.96426   0.86809   0.65394   0.00000  Uiso   1.00
H489   H     0.83753   0.12499   0.03202   0.00000  Uiso   1.00
H490   H     0.03289   0.16618   0.18306   0.00000  Uiso   1.00
H491   H     0.95128   0.14601   0.54781   0.00000  Uiso   1.00
H492   H     0.96065   0.06103   0.39233   0.00000  Uiso   1.00
H493   H     0.90054   0.18286   0.57163   0.00000  Uiso   1.00
H494   H     0.99319   0.20239   0.64325   0.00000  Uiso   1.00
H495   H     0.97013   0.95382   0.27707   0.00000  Uiso   1.00
H496   H     0.84340   0.21073   0.65516   0.00000  Uiso   1.00
H497   H     0.03877   0.25191   0.80619   0.00000  Uiso   1.00
O498   O     0.97323   0.85325   0.37116   0.00000  Uiso   1.00
O499   O     0.80696   0.19030   0.86721   0.00000  Uiso   1.00
O500   O     0.06328   0.24433   0.06536   0.00000  Uiso   1.00
N501   N     0.96436   0.89993   0.58658   0.00000  Uiso   1.00
N502   N     0.84587   0.14011   0.94006   0.00000  Uiso   1.00
N503   N     0.02852   0.17862   0.08128   0.00000  Uiso   1.00
N504   N     0.96752   0.94606   0.38380   0.00000  Uiso   1.00
N505   N     0.84903   0.18625   0.73727   0.00000  Uiso   1.00
N506   N     0.03168   0.22476   0.87849   0.00000  Uiso   1.00
C507   C     0.94599   0.56881   0.38713   0.00000  Uiso   1.00
C508   C     0.95183   0.53355   0.25475   0.00000  Uiso   1.00
C509   C     0.95497   0.47819   0.25640   0.00000  Uiso   1.00
C510   C     0.96022   0.45332   0.12377   0.00000  Uiso   1.00
C511   C     0.96897   0.39407   0.93790   0.00000  Uiso   1.00
C512   C     0.91917   0.59973   0.35216   0.00000  Uiso   1.00
C513   C     0.89486   0.60004   0.43572   0.00000  Uiso   1.00
C514   C     0.87261   0.63089   0.38509   0.00000  Uiso   1.00
C515   C     0.83066   0.67443   0.35051   0.00000  Uiso   1.00
C516   C     0.96951   0.61034   0.39107   0.00000  Uiso   1.00
C517   C     0.98752   0.61957   0.50736   0.00000  Uiso   1.00
C518   C     0.00765   0.65936   0.48950   0.00000  Uiso   1.00
C519   C     0.04386   0.71937   0.51534   0.00000  Uiso   1.00
C520   C     0.94970   0.62307   0.14866   0.00000  Uiso   1.00
C521   C     0.95385   0.56302   0.12522   0.00000  Uiso   1.00
C522   C     0.95909   0.53822   0.99255   0.00000  Uiso   1.00
C523   C     0.96224   0.48284   0.99400   0.00000  Uiso   1.00
C524   C     0.92119   0.62920   0.22263   0.00000  Uiso   1.00
C525   C     0.89897   0.66006   0.17187   0.00000  Uiso   1.00
C526   C     0.87463   0.66041   0.25533   0.00000  Uiso   1.00
C527   C     0.97153   0.63981   0.26154   0.00000  Uiso   1.00
C528   C     0.99163   0.67959   0.24351   0.00000  Uiso   1.00
C529   C     0.00967   0.68888   0.35974   0.00000  Uiso   1.00
H530   H     0.94441   0.54587   0.48798   0.00000  Uiso   1.00
H531   H     0.95341   0.45540   0.35666   0.00000  Uiso   1.00
H532   H     0.89330   0.57724   0.53596   0.00000  Uiso   1.00
H533   H     0.98595   0.59676   0.60758   0.00000  Uiso   1.00
H534   H     0.96426   0.36809   0.15394   0.00000  Uiso   1.00
H535   H     0.83753   0.62499   0.53202   0.00000  Uiso   1.00
H536   H     0.03289   0.66618   0.68306   0.00000  Uiso   1.00
H537   H     0.95128   0.64601   0.04781   0.00000  Uiso   1.00
H538   H     0.96065   0.56103   0.89233   0.00000  Uiso   1.00
H539   H     0.90054   0.68286   0.07163   0.00000  Uiso   1.00
H540   H     0.99319   0.70239   0.14325   0.00000  Uiso   1.00
H541   H     0.97013   0.45382   0.77707   0.00000  Uiso   1.00
H542   H     0.84340   0.71073   0.15516   0.00000  Uiso   1.00
H543   H     0.03877   0.75191   0.30619   0.00000  Uiso   1.00
O544   O     0.97323   0.35325   0.87116   0.00000  Uiso   1.00
O545   O     0.80696   0.69030   0.36721   0.00000  Uiso   1.00
O546   O     0.06328   0.74433   0.56536   0.00000  Uiso   1.00
N547   N     0.96436   0.39993   0.08658   0.00000  Uiso   1.00
N548   N     0.84587   0.64011   0.44006   0.00000  Uiso   1.00
N549   N     0.02852   0.67862   0.58128   0.00000  Uiso   1.00
N550   N     0.96752   0.44606   0.88380   0.00000  Uiso   1.00
N551   N     0.84903   0.68625   0.23727   0.00000  Uiso   1.00
N552   N     0.03168   0.72476   0.37849   0.00000  Uiso   1.00
C553   C     0.05401   0.43119   0.38713   0.00000  Uiso   1.00
C554   C     0.04817   0.46645   0.25475   0.00000  Uiso   1.00
C555   C     0.04503   0.52181   0.25640   0.00000  Uiso   1.00
C556   C     0.03978   0.54668   0.12377   0.00000  Uiso   1.00
C557   C     0.03103   0.60593   0.93790   0.00000  Uiso   1.00
C558   C     0.08083   0.40027   0.35216   0.00000  Uiso   1.00
C559   C     0.10514   0.39996   0.43572   0.00000  Uiso   1.00
C560   C     0.12739   0.36911   0.38509   0.00000  Uiso   1.00
C561   C     0.16934   0.32557   0.35051   0.00000  Uiso   1.00
C562   C     0.03049   0.38966   0.39107   0.00000  Uiso   1.00
C563   C     0.01248   0.38043   0.50736   0.00000  Uiso   1.00
C564   C     0.99235   0.34064   0.48950   0.00000  Uiso   1.00
C565   C     0.95614   0.28063   0.51534   0.00000  Uiso   1.00
C566   C     0.05030   0.37693   0.14866   0.00000  Uiso   1.00
C567   C     0.04615   0.43698   0.12522   0.00000  Uiso   1.00
C568   C     0.04091   0.46178   0.99255   0.00000  Uiso   1.00
C569   C     0.03776   0.51716   0.99400   0.00000  Uiso   1.00
C570   C     0.07881   0.37080   0.22263   0.00000  Uiso   1.00
C571   C     0.10103   0.33994   0.17187   0.00000  Uiso   1.00
C572   C     0.12537   0.33959   0.25533   0.00000  Uiso   1.00
C573   C     0.02847   0.36019   0.26154   0.00000  Uiso   1.00
C574   C     0.00837   0.32041   0.24351   0.00000  Uiso   1.00
C575   C     0.99033   0.31112   0.35974   0.00000  Uiso   1.00
H576   H     0.05559   0.45413   0.48798   0.00000  Uiso   1.00
H577   H     0.04659   0.54460   0.35666   0.00000  Uiso   1.00
H578   H     0.10670   0.42276   0.53596   0.00000  Uiso   1.00
H579   H     0.01405   0.40324   0.60758   0.00000  Uiso   1.00
H580   H     0.03574   0.63191   0.15394   0.00000  Uiso   1.00
H581   H     0.16247   0.37501   0.53202   0.00000  Uiso   1.00
H582   H     0.96711   0.33382   0.68306   0.00000  Uiso   1.00
H583   H     0.04872   0.35399   0.04781   0.00000  Uiso   1.00
H584   H     0.03935   0.43897   0.89233   0.00000  Uiso   1.00
H585   H     0.09946   0.31714   0.07163   0.00000  Uiso   1.00
H586   H     0.00681   0.29761   0.14325   0.00000  Uiso   1.00
H587   H     0.02987   0.54618   0.77707   0.00000  Uiso   1.00
H588   H     0.15660   0.28927   0.15516   0.00000  Uiso   1.00
H589   H     0.96123   0.24809   0.30619   0.00000  Uiso   1.00
O590   O     0.02677   0.64675   0.87116   0.00000  Uiso   1.00
O591   O     0.19304   0.30970   0.36721   0.00000  Uiso   1.00
O592   O     0.93672   0.25567   0.56536   0.00000  Uiso   1.00
N593   N     0.03564   0.60007   0.08658   0.00000  Uiso   1.00
N594   N     0.15413   0.35989   0.44006   0.00000  Uiso   1.00
N595   N     0.97148   0.32138   0.58128   0.00000  Uiso   1.00
N596   N     0.03248   0.55394   0.88380   0.00000  Uiso   1.00
N597   N     0.15097   0.31375   0.23727   0.00000  Uiso   1.00
N598   N     0.96832   0.27524   0.37849   0.00000  Uiso   1.00
C599   C     0.05401   0.93119   0.88713   0.00000  Uiso   1.00
C600   C     0.04817   0.96645   0.75475   0.00000  Uiso   1.00
C601   C     0.04503   0.02181   0.75640   0.00000  Uiso   1.00
C602   C     0.03978   0.04668   0.62377   0.00000  Uiso   1.00
C603   C     0.03103   0.10593   0.43790   0.00000  Uiso   1.00
C604   C     0.08083   0.90027   0.85216   0.00000  Uiso   1.00
C605   C     0.10514   0.89996   0.93572   0.00000  Uiso   1.00
C606   C     0.12739   0.86911   0.88509   0.00000  Uiso   1.00
C607   C     0.16934   0.82557   0.85051   0.00000  Uiso   1.00
C608   C     0.03049   0.88966   0.89107   0.00000  Uiso   1.00
C609   C     0.01248   0.88043   0.00736   0.00000  Uiso   1.00
C610   C     0.99235   0.84064   0.98950   0.00000  Uiso   1.00
C611   C     0.95614   0.78063   0.01534   0.00000  Uiso   1.00
C612   C     0.05030   0.87693   0.64866   0.00000  Uiso   1.00
C613   C     0.04615   0.93698   0.62522   0.00000  Uiso   1.00
C614   C     0.04091   0.96178   0.49255   0.00000  Uiso   1.00
C615   C     0.03776   0.01716   0.49400   0.00000  Uiso   1.00
C616   C     0.07881   0.87080   0.72263   0.00000  Uiso   1.00
C617   C     0.10103   0.83994   0.67187   0.00000  Uiso   1.00
C618   C     0.12537   0.83959   0.75533   0.00000  Uiso   1.00
C619   C     0.02847   0.86019   0.76154   0.00000  Uiso   1.00
C620   C     0.00837   0.82041   0.74351   0.00000  Uiso   1.00
C621   C     0.99033   0.81112   0.85974   0.00000  Uiso   1.00
H622   H     0.05559   0.95413   0.98798   0.00000  Uiso   1.00
H623   H     0.04659   0.04460   0.85666   0.00000  Uiso   1.00
H624   H     0.10670   0.92276   0.03596   0.00000  Uiso   1.00
H625   H     0.01405   0.90324   0.10758   0.00000  Uiso   1.00
H626   H     0.03574   0.13191   0.65394   0.00000  Uiso   1.00
H627   H     0.16247   0.87501   0.03202   0.00000  Uiso   1.00
H628   H     0.96711   0.83382   0.18306   0.00000  Uiso   1.00
H629   H     0.04872   0.85399   0.54781   0.00000  Uiso   1.00
H630   H     0.03935   0.93897   0.39233   0.00000  Uiso   1.00
H631   H     0.09946   0.81714   0.57163   0.00000  Uiso   1.00
H632   H     0.00681   0.79761   0.64325   0.00000  Uiso   1.00
H633   H     0.02987   0.04618   0.27707   0.00000  Uiso   1.00
H634   H     0.15660   0.78927   0.65516   0.00000  Uiso   1.00
H635   H     0.96123   0.74809   0.80619   0.00000  Uiso   1.00
O636   O     0.02677   0.14675   0.37116   0.00000  Uiso   1.00
O637   O     0.19304   0.80970   0.86721   0.00000  Uiso   1.00
O638   O     0.93672   0.75567   0.06536   0.00000  Uiso   1.00
N639   N     0.03564   0.10007   0.58658   0.00000  Uiso   1.00
N640   N     0.15413   0.85989   0.94006   0.00000  Uiso   1.00
N641   N     0.97148   0.82138   0.08128   0.00000  Uiso   1.00
N642   N     0.03248   0.05394   0.38380   0.00000  Uiso   1.00
N643   N     0.15097   0.81375   0.73727   0.00000  Uiso   1.00
N644   N     0.96832   0.77524   0.87849   0.00000  Uiso   1.00
C645   C     0.55401   0.43119   0.88713   0.00000  Uiso   1.00
C646   C     0.54817   0.46645   0.75475   0.00000  Uiso   1.00
C647   C     0.54503   0.52181   0.75640   0.00000  Uiso   1.00
C648   C     0.53978   0.54668   0.62377   0.00000  Uiso   1.00
C649   C     0.53103   0.60593   0.43790   0.00000  Uiso   1.00
C650   C     0.58083   0.40027   0.85216   0.00000  Uiso   1.00
C651   C     0.60514   0.39996   0.93572   0.00000  Uiso   1.00
C652   C     0.62739   0.36911   0.88509   0.00000  Uiso   1.00
C653   C     0.66934   0.32557   0.85051   0.00000  Uiso   1.00
C654   C     0.53049   0.38966   0.89107   0.00000  Uiso   1.00
C655   C     0.51248   0.38043   0.00736   0.00000  Uiso   1.00
C656   C     0.49235   0.34064   0.98950   0.00000  Uiso   1.00
C657   C     0.45614   0.28063   0.01534   0.00000  Uiso   1.00
C658   C     0.55030   0.37693   0.64866   0.00000  Uiso   1.00
C659   C     0.54615   0.43698   0.62522   0.00000  Uiso   1.00
C660   C     0.54091   0.46178   0.49255   0.00000  Uiso   1.00
C661   C     0.53776   0.51716   0.49400   0.00000  Uiso   1.00
C662   C     0.57881   0.37080   0.72263   0.00000  Uiso   1.00
C663   C     0.60103   0.33994   0.67187   0.00000  Uiso   1.00
C664   C     0.62537   0.33959   0.75533   0.00000  Uiso   1.00
C665   C     0.52847   0.36019   0.76154   0.00000  Uiso   1.00
C666   C     0.50837   0.32041   0.74351   0.00000  Uiso   1.00
C667   C     0.49033   0.31112   0.85974   0.00000  Uiso   1.00
H668   H     0.55559   0.45413   0.98798   0.00000  Uiso   1.00
H669   H     0.54659   0.54460   0.85666   0.00000  Uiso   1.00
H670   H     0.60670   0.42276   0.03596   0.00000  Uiso   1.00
H671   H     0.51405   0.40324   0.10758   0.00000  Uiso   1.00
H672   H     0.53574   0.63191   0.65394   0.00000  Uiso   1.00
H673   H     0.66247   0.37501   0.03202   0.00000  Uiso   1.00
H674   H     0.46711   0.33382   0.18306   0.00000  Uiso   1.00
H675   H     0.54872   0.35399   0.54781   0.00000  Uiso   1.00
H676   H     0.53935   0.43897   0.39233   0.00000  Uiso   1.00
H677   H     0.59946   0.31714   0.57163   0.00000  Uiso   1.00
H678   H     0.50681   0.29761   0.64325   0.00000  Uiso   1.00
H679   H     0.52987   0.54618   0.27707   0.00000  Uiso   1.00
H680   H     0.65660   0.28927   0.65516   0.00000  Uiso   1.00
H681   H     0.46123   0.24809   0.80619   0.00000  Uiso   1.00
O682   O     0.52677   0.64675   0.37116   0.00000  Uiso   1.00
O683   O     0.69304   0.30970   0.86721   0.00000  Uiso   1.00
O684   O     0.43672   0.25567   0.06536   0.00000  Uiso   1.00
N685   N     0.53564   0.60007   0.58658   0.00000  Uiso   1.00
N686   N     0.65413   0.35989   0.94006   0.00000  Uiso   1.00
N687   N     0.47148   0.32138   0.08128   0.00000  Uiso   1.00
N688   N     0.53248   0.55394   0.38380   0.00000  Uiso   1.00
N689   N     0.65097   0.31375   0.73727   0.00000  Uiso   1.00
N690   N     0.46832   0.27524   0.87849   0.00000  Uiso   1.00
C691   C     0.55401   0.93119   0.38713   0.00000  Uiso   1.00
C692   C     0.54817   0.96645   0.25475   0.00000  Uiso   1.00
C693   C     0.54503   0.02181   0.25640   0.00000  Uiso   1.00
C694   C     0.53978   0.04668   0.12377   0.00000  Uiso   1.00
C695   C     0.53103   0.10593   0.93790   0.00000  Uiso   1.00
C696   C     0.58083   0.90027   0.35216   0.00000  Uiso   1.00
C697   C     0.60514   0.89996   0.43572   0.00000  Uiso   1.00
C698   C     0.62739   0.86911   0.38509   0.00000  Uiso   1.00
C699   C     0.66934   0.82557   0.35051   0.00000  Uiso   1.00
C700   C     0.53049   0.88966   0.39107   0.00000  Uiso   1.00
C701   C     0.51248   0.88043   0.50736   0.00000  Uiso   1.00
C702   C     0.49235   0.84064   0.48950   0.00000  Uiso   1.00
C703   C     0.45614   0.78063   0.51534   0.00000  Uiso   1.00
C704   C     0.55030   0.87693   0.14866   0.00000  Uiso   1.00
C705   C     0.54615   0.93698   0.12522   0.00000  Uiso   1.00
C706   C     0.54091   0.96178   0.99255   0.00000  Uiso   1.00
C707   C     0.53776   0.01716   0.99400   0.00000  Uiso   1.00
C708   C     0.57881   0.87080   0.22263   0.00000  Uiso   1.00
C709   C     0.60103   0.83994   0.17187   0.00000  Uiso   1.00
C710   C     0.62537   0.83959   0.25533   0.00000  Uiso   1.00
C711   C     0.52847   0.86019   0.26154   0.00000  Uiso   1.00
C712   C     0.50837   0.82041   0.24351   0.00000  Uiso   1.00
C713   C     0.49033   0.81112   0.35974   0.00000  Uiso   1.00
H714   H     0.55559   0.95413   0.48798   0.00000  Uiso   1.00
H715   H     0.54659   0.04460   0.35666   0.00000  Uiso   1.00
H716   H     0.60670   0.92276   0.53596   0.00000  Uiso   1.00
H717   H     0.51405   0.90324   0.60758   0.00000  Uiso   1.00
H718   H     0.53574   0.13191   0.15394   0.00000  Uiso   1.00
H719   H     0.66247   0.87501   0.53202   0.00000  Uiso   1.00
H720   H     0.46711   0.83382   0.68306   0.00000  Uiso   1.00
H721   H     0.54872   0.85399   0.04781   0.00000  Uiso   1.00
H722   H     0.53935   0.93897   0.89233   0.00000  Uiso   1.00
H723   H     0.59946   0.81714   0.07163   0.00000  Uiso   1.00
H724   H     0.50681   0.79761   0.14325   0.00000  Uiso   1.00
H725   H     0.52987   0.04618   0.77707   0.00000  Uiso   1.00
H726   H     0.65660   0.78927   0.15516   0.00000  Uiso   1.00
H727   H     0.46123   0.74809   0.30619   0.00000  Uiso   1.00
O728   O     0.52677   0.14675   0.87116   0.00000  Uiso   1.00
O729   O     0.69304   0.80970   0.36721   0.00000  Uiso   1.00
O730   O     0.43672   0.75567   0.56536   0.00000  Uiso   1.00
N731   N     0.53564   0.10007   0.08658   0.00000  Uiso   1.00
N732   N     0.65413   0.85989   0.44006   0.00000  Uiso   1.00
N733   N     0.47148   0.82138   0.58128   0.00000  Uiso   1.00
N734   N     0.53248   0.05394   0.88380   0.00000  Uiso   1.00
N735   N     0.65097   0.81375   0.23727   0.00000  Uiso   1.00
N736   N     0.46832   0.77524   0.37849   0.00000  Uiso   1.00
