data_job_01706
_audit_creation_date              2018-12-19
_audit_creation_method            'Materials Studio'
_symmetry_space_group_name_H-M    'P1'
_symmetry_Int_Tables_number       1
_symmetry_cell_setting            triclinic
loop_
_symmetry_equiv_pos_as_xyz
  x,y,z
_cell_length_a                    17.4710
_cell_length_b                    17.4710
_cell_length_c                    37.6444
_cell_angle_alpha                 90.0000
_cell_angle_beta                  90.0000
_cell_angle_gamma                 90.0000
loop_
_atom_site_label
_atom_site_type_symbol
_atom_site_fract_x
_atom_site_fract_y
_atom_site_fract_z
_atom_site_U_iso_or_equiv
_atom_site_adp_type
_atom_site_occupancy
C1     C     0.40732   0.08817   0.55308   0.00000  Uiso   1.00
C2     C     0.37434   0.06705   0.51688   0.00000  Uiso   1.00
C3     C     0.40036   0.00860   0.49503   0.00000  Uiso   1.00
C4     C     0.36254   0.99846   0.46293   0.00000  Uiso   1.00
C5     C     0.32074   0.95858   0.40821   0.00000  Uiso   1.00
C6     C     0.42910   0.17254   0.55072   0.00000  Uiso   1.00
C7     C     0.50116   0.20279   0.55733   0.00000  Uiso   1.00
C8     C     0.50943   0.28145   0.55374   0.00000  Uiso   1.00
C9     C     0.55263   0.40536   0.55159   0.00000  Uiso   1.00
C10    C     0.34076   0.08381   0.57921   0.00000  Uiso   1.00
C11    C     0.33855   0.03947   0.60978   0.00000  Uiso   1.00
C12    C     0.27245   0.04344   0.63017   0.00000  Uiso   1.00
C13    C     0.17849   0.02958   0.67225   0.00000  Uiso   1.00
C14    C     0.29387   0.17409   0.53494   0.00000  Uiso   1.00
C15    C     0.31272   0.11372   0.50702   0.00000  Uiso   1.00
C16    C     0.27485   0.10366   0.47496   0.00000  Uiso   1.00
C17    C     0.30081   0.04520   0.45306   0.00000  Uiso   1.00
C18    C     0.36749   0.21921   0.54087   0.00000  Uiso   1.00
C19    C     0.37564   0.29784   0.53727   0.00000  Uiso   1.00
C20    C     0.44770   0.32820   0.54387   0.00000  Uiso   1.00
C21    C     0.27914   0.13047   0.56936   0.00000  Uiso   1.00
C22    C     0.21303   0.13452   0.58971   0.00000  Uiso   1.00
C23    C     0.21072   0.09019   0.62030   0.00000  Uiso   1.00
H24    H     0.45529   0.05185   0.56075   0.00000  Uiso   1.00
H25    H     0.44806   0.97251   0.50266   0.00000  Uiso   1.00
H26    H     0.54883   0.16667   0.56496   0.00000  Uiso   1.00
H27    H     0.38625   0.00336   0.61739   0.00000  Uiso   1.00
H28    H     0.41288   0.90514   0.43390   0.00000  Uiso   1.00
H29    H     0.62537   0.31453   0.56528   0.00000  Uiso   1.00
H30    H     0.28252   0.97018   0.67585   0.00000  Uiso   1.00
H31    H     0.24589   0.21042   0.52727   0.00000  Uiso   1.00
H32    H     0.22716   0.13978   0.46734   0.00000  Uiso   1.00
H33    H     0.32795   0.33394   0.52964   0.00000  Uiso   1.00
H34    H     0.16536   0.17063   0.58207   0.00000  Uiso   1.00
H35    H     0.23360   0.04090   0.40524   0.00000  Uiso   1.00
H36    H     0.44609   0.45030   0.53662   0.00000  Uiso   1.00
H37    H     0.10324   0.10595   0.64718   0.00000  Uiso   1.00
O38    O     0.31471   0.92371   0.38075   0.00000  Uiso   1.00
O39    O     0.59348   0.46081   0.55312   0.00000  Uiso   1.00
O40    O     0.14368   0.00903   0.69818   0.00000  Uiso   1.00
N41    N     0.37324   0.94678   0.43538   0.00000  Uiso   1.00
N42    N     0.57191   0.32953   0.55821   0.00000  Uiso   1.00
N43    N     0.25139   0.00761   0.66159   0.00000  Uiso   1.00
N44    N     0.27677   0.01983   0.41996   0.00000  Uiso   1.00
N45    N     0.47544   0.40259   0.54279   0.00000  Uiso   1.00
N46    N     0.15492   0.08066   0.64616   0.00000  Uiso   1.00
C47    C     0.90732   0.58817   0.05308   0.00000  Uiso   1.00
C48    C     0.87434   0.56705   0.01688   0.00000  Uiso   1.00
C49    C     0.90036   0.50860   0.99503   0.00000  Uiso   1.00
C50    C     0.86254   0.49846   0.96293   0.00000  Uiso   1.00
C51    C     0.82074   0.45858   0.90821   0.00000  Uiso   1.00
C52    C     0.92910   0.67254   0.05072   0.00000  Uiso   1.00
C53    C     0.00116   0.70279   0.05733   0.00000  Uiso   1.00
C54    C     0.00943   0.78145   0.05374   0.00000  Uiso   1.00
C55    C     0.05263   0.90536   0.05159   0.00000  Uiso   1.00
C56    C     0.84076   0.58381   0.07921   0.00000  Uiso   1.00
C57    C     0.83855   0.53947   0.10978   0.00000  Uiso   1.00
C58    C     0.77245   0.54344   0.13017   0.00000  Uiso   1.00
C59    C     0.67849   0.52958   0.17225   0.00000  Uiso   1.00
C60    C     0.79387   0.67409   0.03494   0.00000  Uiso   1.00
C61    C     0.81272   0.61372   0.00702   0.00000  Uiso   1.00
C62    C     0.77485   0.60366   0.97496   0.00000  Uiso   1.00
C63    C     0.80081   0.54520   0.95306   0.00000  Uiso   1.00
C64    C     0.86749   0.71921   0.04087   0.00000  Uiso   1.00
C65    C     0.87564   0.79784   0.03727   0.00000  Uiso   1.00
C66    C     0.94770   0.82820   0.04387   0.00000  Uiso   1.00
C67    C     0.77914   0.63047   0.06936   0.00000  Uiso   1.00
C68    C     0.71303   0.63452   0.08971   0.00000  Uiso   1.00
C69    C     0.71072   0.59019   0.12030   0.00000  Uiso   1.00
H70    H     0.95529   0.55185   0.06075   0.00000  Uiso   1.00
H71    H     0.94806   0.47251   0.00266   0.00000  Uiso   1.00
H72    H     0.04883   0.66667   0.06496   0.00000  Uiso   1.00
H73    H     0.88625   0.50336   0.11739   0.00000  Uiso   1.00
H74    H     0.91288   0.40514   0.93390   0.00000  Uiso   1.00
H75    H     0.12537   0.81453   0.06528   0.00000  Uiso   1.00
H76    H     0.78252   0.47018   0.17585   0.00000  Uiso   1.00
H77    H     0.74589   0.71042   0.02727   0.00000  Uiso   1.00
H78    H     0.72716   0.63978   0.96734   0.00000  Uiso   1.00
H79    H     0.82795   0.83394   0.02964   0.00000  Uiso   1.00
H80    H     0.66536   0.67063   0.08207   0.00000  Uiso   1.00
H81    H     0.73360   0.54090   0.90524   0.00000  Uiso   1.00
H82    H     0.94609   0.95030   0.03662   0.00000  Uiso   1.00
H83    H     0.60324   0.60595   0.14718   0.00000  Uiso   1.00
O84    O     0.81471   0.42371   0.88075   0.00000  Uiso   1.00
O85    O     0.09348   0.96081   0.05312   0.00000  Uiso   1.00
O86    O     0.64368   0.50903   0.19818   0.00000  Uiso   1.00
N87    N     0.87324   0.44678   0.93538   0.00000  Uiso   1.00
N88    N     0.07191   0.82953   0.05821   0.00000  Uiso   1.00
N89    N     0.75139   0.50761   0.16159   0.00000  Uiso   1.00
N90    N     0.77677   0.51983   0.91996   0.00000  Uiso   1.00
N91    N     0.97544   0.90259   0.04279   0.00000  Uiso   1.00
N92    N     0.65492   0.58066   0.14616   0.00000  Uiso   1.00
C93    C     0.09268   0.41183   0.05308   0.00000  Uiso   1.00
C94    C     0.12566   0.43295   0.01688   0.00000  Uiso   1.00
C95    C     0.09964   0.49140   0.99503   0.00000  Uiso   1.00
C96    C     0.13746   0.50154   0.96293   0.00000  Uiso   1.00
C97    C     0.17926   0.54142   0.90821   0.00000  Uiso   1.00
C98    C     0.07090   0.32746   0.05072   0.00000  Uiso   1.00
C99    C     0.99884   0.29721   0.05733   0.00000  Uiso   1.00
C100   C     0.99057   0.21855   0.05374   0.00000  Uiso   1.00
C101   C     0.94737   0.09464   0.05159   0.00000  Uiso   1.00
C102   C     0.15924   0.41619   0.07921   0.00000  Uiso   1.00
C103   C     0.16145   0.46053   0.10978   0.00000  Uiso   1.00
C104   C     0.22755   0.45656   0.13017   0.00000  Uiso   1.00
C105   C     0.32151   0.47042   0.17225   0.00000  Uiso   1.00
C106   C     0.20613   0.32591   0.03494   0.00000  Uiso   1.00
C107   C     0.18728   0.38628   0.00702   0.00000  Uiso   1.00
C108   C     0.22515   0.39634   0.97496   0.00000  Uiso   1.00
C109   C     0.19919   0.45480   0.95306   0.00000  Uiso   1.00
C110   C     0.13251   0.28079   0.04087   0.00000  Uiso   1.00
C111   C     0.12436   0.20216   0.03727   0.00000  Uiso   1.00
C112   C     0.05230   0.17180   0.04387   0.00000  Uiso   1.00
C113   C     0.22086   0.36953   0.06936   0.00000  Uiso   1.00
C114   C     0.28697   0.36548   0.08971   0.00000  Uiso   1.00
C115   C     0.28928   0.40981   0.12030   0.00000  Uiso   1.00
H116   H     0.04471   0.44815   0.06075   0.00000  Uiso   1.00
H117   H     0.05194   0.52749   0.00266   0.00000  Uiso   1.00
H118   H     0.95117   0.33333   0.06496   0.00000  Uiso   1.00
H119   H     0.11375   0.49664   0.11739   0.00000  Uiso   1.00
H120   H     0.08712   0.59486   0.93390   0.00000  Uiso   1.00
H121   H     0.87463   0.18547   0.06528   0.00000  Uiso   1.00
H122   H     0.21748   0.52982   0.17585   0.00000  Uiso   1.00
H123   H     0.25411   0.28958   0.02727   0.00000  Uiso   1.00
H124   H     0.27284   0.36022   0.96734   0.00000  Uiso   1.00
H125   H     0.17205   0.16606   0.02964   0.00000  Uiso   1.00
H126   H     0.33464   0.32937   0.08207   0.00000  Uiso   1.00
H127   H     0.26640   0.45910   0.90524   0.00000  Uiso   1.00
H128   H     0.05391   0.04970   0.03662   0.00000  Uiso   1.00
H129   H     0.39676   0.39405   0.14718   0.00000  Uiso   1.00
O130   O     0.18529   0.57629   0.88075   0.00000  Uiso   1.00
O131   O     0.90652   0.03919   0.05312   0.00000  Uiso   1.00
O132   O     0.35632   0.49097   0.19818   0.00000  Uiso   1.00
N133   N     0.12676   0.55322   0.93538   0.00000  Uiso   1.00
N134   N     0.92809   0.17047   0.05821   0.00000  Uiso   1.00
N135   N     0.24861   0.49239   0.16159   0.00000  Uiso   1.00
N136   N     0.22323   0.48017   0.91996   0.00000  Uiso   1.00
N137   N     0.02456   0.09741   0.04279   0.00000  Uiso   1.00
N138   N     0.34508   0.41934   0.14616   0.00000  Uiso   1.00
C139   C     0.59268   0.91183   0.55308   0.00000  Uiso   1.00
C140   C     0.62566   0.93295   0.51688   0.00000  Uiso   1.00
C141   C     0.59964   0.99140   0.49503   0.00000  Uiso   1.00
C142   C     0.63746   0.00154   0.46293   0.00000  Uiso   1.00
C143   C     0.67926   0.04142   0.40821   0.00000  Uiso   1.00
C144   C     0.57090   0.82746   0.55072   0.00000  Uiso   1.00
C145   C     0.49884   0.79721   0.55733   0.00000  Uiso   1.00
C146   C     0.49057   0.71855   0.55374   0.00000  Uiso   1.00
C147   C     0.44737   0.59464   0.55159   0.00000  Uiso   1.00
C148   C     0.65924   0.91619   0.57921   0.00000  Uiso   1.00
C149   C     0.66145   0.96053   0.60978   0.00000  Uiso   1.00
C150   C     0.72755   0.95656   0.63017   0.00000  Uiso   1.00
C151   C     0.82151   0.97042   0.67225   0.00000  Uiso   1.00
C152   C     0.70613   0.82591   0.53494   0.00000  Uiso   1.00
C153   C     0.68728   0.88628   0.50702   0.00000  Uiso   1.00
C154   C     0.72515   0.89634   0.47496   0.00000  Uiso   1.00
C155   C     0.69919   0.95480   0.45306   0.00000  Uiso   1.00
C156   C     0.63251   0.78079   0.54087   0.00000  Uiso   1.00
C157   C     0.62436   0.70216   0.53727   0.00000  Uiso   1.00
C158   C     0.55230   0.67180   0.54387   0.00000  Uiso   1.00
C159   C     0.72086   0.86953   0.56936   0.00000  Uiso   1.00
C160   C     0.78697   0.86548   0.58971   0.00000  Uiso   1.00
C161   C     0.78928   0.90981   0.62030   0.00000  Uiso   1.00
H162   H     0.54471   0.94815   0.56075   0.00000  Uiso   1.00
H163   H     0.55194   0.02749   0.50266   0.00000  Uiso   1.00
H164   H     0.45117   0.83333   0.56496   0.00000  Uiso   1.00
H165   H     0.61375   0.99664   0.61739   0.00000  Uiso   1.00
H166   H     0.58712   0.09486   0.43390   0.00000  Uiso   1.00
H167   H     0.37463   0.68547   0.56528   0.00000  Uiso   1.00
H168   H     0.71748   0.02982   0.67585   0.00000  Uiso   1.00
H169   H     0.75411   0.78958   0.52727   0.00000  Uiso   1.00
H170   H     0.77284   0.86022   0.46734   0.00000  Uiso   1.00
H171   H     0.67205   0.66606   0.52964   0.00000  Uiso   1.00
H172   H     0.83464   0.82937   0.58207   0.00000  Uiso   1.00
H173   H     0.76640   0.95910   0.40524   0.00000  Uiso   1.00
H174   H     0.55391   0.54970   0.53662   0.00000  Uiso   1.00
H175   H     0.89676   0.89405   0.64718   0.00000  Uiso   1.00
O176   O     0.68529   0.07629   0.38075   0.00000  Uiso   1.00
O177   O     0.40652   0.53919   0.55312   0.00000  Uiso   1.00
O178   O     0.85632   0.99097   0.69818   0.00000  Uiso   1.00
N179   N     0.62676   0.05322   0.43538   0.00000  Uiso   1.00
N180   N     0.42809   0.67047   0.55821   0.00000  Uiso   1.00
N181   N     0.74861   0.99239   0.66159   0.00000  Uiso   1.00
N182   N     0.72323   0.98017   0.41996   0.00000  Uiso   1.00
N183   N     0.52456   0.59741   0.54279   0.00000  Uiso   1.00
N184   N     0.84508   0.91934   0.64616   0.00000  Uiso   1.00
C185   C     0.91183   0.90732   0.80308   0.00000  Uiso   1.00
C186   C     0.93295   0.87434   0.76688   0.00000  Uiso   1.00
C187   C     0.99140   0.90036   0.74503   0.00000  Uiso   1.00
C188   C     0.00154   0.86254   0.71293   0.00000  Uiso   1.00
C189   C     0.04142   0.82074   0.65821   0.00000  Uiso   1.00
C190   C     0.82746   0.92910   0.80072   0.00000  Uiso   1.00
C191   C     0.79721   0.00116   0.80733   0.00000  Uiso   1.00
C192   C     0.71855   0.00943   0.80374   0.00000  Uiso   1.00
C193   C     0.59464   0.05263   0.80159   0.00000  Uiso   1.00
C194   C     0.91619   0.84076   0.82921   0.00000  Uiso   1.00
C195   C     0.96053   0.83855   0.85978   0.00000  Uiso   1.00
C196   C     0.95656   0.77245   0.88017   0.00000  Uiso   1.00
C197   C     0.97042   0.67849   0.92225   0.00000  Uiso   1.00
C198   C     0.82591   0.79387   0.78494   0.00000  Uiso   1.00
C199   C     0.88628   0.81272   0.75702   0.00000  Uiso   1.00
C200   C     0.89634   0.77485   0.72496   0.00000  Uiso   1.00
C201   C     0.95480   0.80081   0.70306   0.00000  Uiso   1.00
C202   C     0.78079   0.86749   0.79087   0.00000  Uiso   1.00
C203   C     0.70216   0.87564   0.78727   0.00000  Uiso   1.00
C204   C     0.67180   0.94770   0.79387   0.00000  Uiso   1.00
C205   C     0.86953   0.77914   0.81936   0.00000  Uiso   1.00
C206   C     0.86548   0.71303   0.83971   0.00000  Uiso   1.00
C207   C     0.90981   0.71072   0.87030   0.00000  Uiso   1.00
H208   H     0.94815   0.95529   0.81075   0.00000  Uiso   1.00
H209   H     0.02749   0.94806   0.75266   0.00000  Uiso   1.00
H210   H     0.83333   0.04883   0.81496   0.00000  Uiso   1.00
H211   H     0.99664   0.88625   0.86739   0.00000  Uiso   1.00
H212   H     0.09486   0.91288   0.68390   0.00000  Uiso   1.00
H213   H     0.68547   0.12537   0.81528   0.00000  Uiso   1.00
H214   H     0.02982   0.78252   0.92585   0.00000  Uiso   1.00
H215   H     0.78958   0.74589   0.77727   0.00000  Uiso   1.00
H216   H     0.86022   0.72716   0.71734   0.00000  Uiso   1.00
H217   H     0.66606   0.82795   0.77964   0.00000  Uiso   1.00
H218   H     0.82937   0.66536   0.83207   0.00000  Uiso   1.00
H219   H     0.95910   0.73360   0.65524   0.00000  Uiso   1.00
H220   H     0.54970   0.94609   0.78662   0.00000  Uiso   1.00
H221   H     0.89405   0.60324   0.89718   0.00000  Uiso   1.00
O222   O     0.07629   0.81471   0.63075   0.00000  Uiso   1.00
O223   O     0.53919   0.09348   0.80312   0.00000  Uiso   1.00
O224   O     0.99097   0.64368   0.94818   0.00000  Uiso   1.00
N225   N     0.05322   0.87324   0.68538   0.00000  Uiso   1.00
N226   N     0.67047   0.07191   0.80821   0.00000  Uiso   1.00
N227   N     0.99239   0.75139   0.91159   0.00000  Uiso   1.00
N228   N     0.98017   0.77677   0.66996   0.00000  Uiso   1.00
N229   N     0.59741   0.97544   0.79279   0.00000  Uiso   1.00
N230   N     0.91934   0.65492   0.89616   0.00000  Uiso   1.00
C231   C     0.41183   0.40732   0.30308   0.00000  Uiso   1.00
C232   C     0.43295   0.37434   0.26688   0.00000  Uiso   1.00
C233   C     0.49140   0.40036   0.24503   0.00000  Uiso   1.00
C234   C     0.50154   0.36254   0.21293   0.00000  Uiso   1.00
C235   C     0.54142   0.32074   0.15821   0.00000  Uiso   1.00
C236   C     0.32746   0.42910   0.30072   0.00000  Uiso   1.00
C237   C     0.29721   0.50116   0.30733   0.00000  Uiso   1.00
C238   C     0.21855   0.50943   0.30374   0.00000  Uiso   1.00
C239   C     0.09464   0.55263   0.30159   0.00000  Uiso   1.00
C240   C     0.41619   0.34076   0.32921   0.00000  Uiso   1.00
C241   C     0.46053   0.33855   0.35978   0.00000  Uiso   1.00
C242   C     0.45656   0.27245   0.38017   0.00000  Uiso   1.00
C243   C     0.47042   0.17849   0.42225   0.00000  Uiso   1.00
C244   C     0.32591   0.29387   0.28494   0.00000  Uiso   1.00
C245   C     0.38628   0.31272   0.25702   0.00000  Uiso   1.00
C246   C     0.39634   0.27485   0.22496   0.00000  Uiso   1.00
C247   C     0.45480   0.30081   0.20306   0.00000  Uiso   1.00
C248   C     0.28079   0.36749   0.29087   0.00000  Uiso   1.00
C249   C     0.20216   0.37564   0.28727   0.00000  Uiso   1.00
C250   C     0.17180   0.44770   0.29387   0.00000  Uiso   1.00
C251   C     0.36953   0.27914   0.31936   0.00000  Uiso   1.00
C252   C     0.36548   0.21303   0.33971   0.00000  Uiso   1.00
C253   C     0.40981   0.21072   0.37030   0.00000  Uiso   1.00
H254   H     0.44815   0.45529   0.31075   0.00000  Uiso   1.00
H255   H     0.52749   0.44806   0.25266   0.00000  Uiso   1.00
H256   H     0.33333   0.54883   0.31496   0.00000  Uiso   1.00
H257   H     0.49664   0.38625   0.36739   0.00000  Uiso   1.00
H258   H     0.59486   0.41288   0.18390   0.00000  Uiso   1.00
H259   H     0.18547   0.62537   0.31528   0.00000  Uiso   1.00
H260   H     0.52982   0.28252   0.42585   0.00000  Uiso   1.00
H261   H     0.28958   0.24589   0.27727   0.00000  Uiso   1.00
H262   H     0.36022   0.22716   0.21734   0.00000  Uiso   1.00
H263   H     0.16606   0.32795   0.27964   0.00000  Uiso   1.00
H264   H     0.32937   0.16536   0.33207   0.00000  Uiso   1.00
H265   H     0.45910   0.23360   0.15524   0.00000  Uiso   1.00
H266   H     0.04970   0.44609   0.28662   0.00000  Uiso   1.00
H267   H     0.39405   0.10324   0.39718   0.00000  Uiso   1.00
O268   O     0.57629   0.31471   0.13075   0.00000  Uiso   1.00
O269   O     0.03919   0.59348   0.30312   0.00000  Uiso   1.00
O270   O     0.49097   0.14368   0.44818   0.00000  Uiso   1.00
N271   N     0.55322   0.37324   0.18538   0.00000  Uiso   1.00
N272   N     0.17047   0.57191   0.30821   0.00000  Uiso   1.00
N273   N     0.49239   0.25139   0.41159   0.00000  Uiso   1.00
N274   N     0.48017   0.27677   0.16996   0.00000  Uiso   1.00
N275   N     0.09741   0.47544   0.29279   0.00000  Uiso   1.00
N276   N     0.41934   0.15492   0.39616   0.00000  Uiso   1.00
C277   C     0.58817   0.59268   0.30308   0.00000  Uiso   1.00
C278   C     0.56705   0.62566   0.26688   0.00000  Uiso   1.00
C279   C     0.50860   0.59964   0.24503   0.00000  Uiso   1.00
C280   C     0.49846   0.63746   0.21293   0.00000  Uiso   1.00
C281   C     0.45858   0.67926   0.15821   0.00000  Uiso   1.00
C282   C     0.67254   0.57090   0.30072   0.00000  Uiso   1.00
C283   C     0.70279   0.49884   0.30733   0.00000  Uiso   1.00
C284   C     0.78145   0.49057   0.30374   0.00000  Uiso   1.00
C285   C     0.90536   0.44737   0.30159   0.00000  Uiso   1.00
C286   C     0.58381   0.65924   0.32921   0.00000  Uiso   1.00
C287   C     0.53947   0.66145   0.35978   0.00000  Uiso   1.00
C288   C     0.54344   0.72755   0.38017   0.00000  Uiso   1.00
C289   C     0.52958   0.82151   0.42225   0.00000  Uiso   1.00
C290   C     0.67409   0.70613   0.28494   0.00000  Uiso   1.00
C291   C     0.61372   0.68728   0.25702   0.00000  Uiso   1.00
C292   C     0.60366   0.72515   0.22496   0.00000  Uiso   1.00
C293   C     0.54520   0.69919   0.20306   0.00000  Uiso   1.00
C294   C     0.71921   0.63251   0.29087   0.00000  Uiso   1.00
C295   C     0.79784   0.62436   0.28727   0.00000  Uiso   1.00
C296   C     0.82820   0.55230   0.29387   0.00000  Uiso   1.00
C297   C     0.63047   0.72086   0.31936   0.00000  Uiso   1.00
C298   C     0.63452   0.78697   0.33971   0.00000  Uiso   1.00
C299   C     0.59019   0.78928   0.37030   0.00000  Uiso   1.00
H300   H     0.55185   0.54471   0.31075   0.00000  Uiso   1.00
H301   H     0.47251   0.55194   0.25266   0.00000  Uiso   1.00
H302   H     0.66667   0.45117   0.31496   0.00000  Uiso   1.00
H303   H     0.50336   0.61375   0.36739   0.00000  Uiso   1.00
H304   H     0.40514   0.58712   0.18390   0.00000  Uiso   1.00
H305   H     0.81453   0.37463   0.31528   0.00000  Uiso   1.00
H306   H     0.47018   0.71748   0.42585   0.00000  Uiso   1.00
H307   H     0.71042   0.75411   0.27727   0.00000  Uiso   1.00
H308   H     0.63978   0.77284   0.21734   0.00000  Uiso   1.00
H309   H     0.83394   0.67205   0.27964   0.00000  Uiso   1.00
H310   H     0.67063   0.83464   0.33207   0.00000  Uiso   1.00
H311   H     0.54090   0.76640   0.15524   0.00000  Uiso   1.00
H312   H     0.95030   0.55391   0.28662   0.00000  Uiso   1.00
H313   H     0.60595   0.89676   0.39718   0.00000  Uiso   1.00
O314   O     0.42371   0.68529   0.13075   0.00000  Uiso   1.00
O315   O     0.96081   0.40652   0.30312   0.00000  Uiso   1.00
O316   O     0.50903   0.85632   0.44818   0.00000  Uiso   1.00
N317   N     0.44678   0.62676   0.18538   0.00000  Uiso   1.00
N318   N     0.82953   0.42809   0.30821   0.00000  Uiso   1.00
N319   N     0.50761   0.74861   0.41159   0.00000  Uiso   1.00
N320   N     0.51983   0.72323   0.16996   0.00000  Uiso   1.00
N321   N     0.90259   0.52456   0.29279   0.00000  Uiso   1.00
N322   N     0.58066   0.84508   0.39616   0.00000  Uiso   1.00
C323   C     0.08817   0.09268   0.80308   0.00000  Uiso   1.00
C324   C     0.06705   0.12566   0.76688   0.00000  Uiso   1.00
C325   C     0.00860   0.09964   0.74503   0.00000  Uiso   1.00
C326   C     0.99846   0.13746   0.71293   0.00000  Uiso   1.00
C327   C     0.95858   0.17926   0.65821   0.00000  Uiso   1.00
C328   C     0.17254   0.07090   0.80072   0.00000  Uiso   1.00
C329   C     0.20279   0.99884   0.80733   0.00000  Uiso   1.00
C330   C     0.28145   0.99057   0.80374   0.00000  Uiso   1.00
C331   C     0.40536   0.94737   0.80159   0.00000  Uiso   1.00
C332   C     0.08381   0.15924   0.82921   0.00000  Uiso   1.00
C333   C     0.03947   0.16145   0.85978   0.00000  Uiso   1.00
C334   C     0.04344   0.22755   0.88017   0.00000  Uiso   1.00
C335   C     0.02958   0.32151   0.92225   0.00000  Uiso   1.00
C336   C     0.17409   0.20613   0.78494   0.00000  Uiso   1.00
C337   C     0.11372   0.18728   0.75702   0.00000  Uiso   1.00
C338   C     0.10366   0.22515   0.72496   0.00000  Uiso   1.00
C339   C     0.04520   0.19919   0.70306   0.00000  Uiso   1.00
C340   C     0.21921   0.13251   0.79087   0.00000  Uiso   1.00
C341   C     0.29784   0.12436   0.78727   0.00000  Uiso   1.00
C342   C     0.32820   0.05230   0.79387   0.00000  Uiso   1.00
C343   C     0.13047   0.22086   0.81936   0.00000  Uiso   1.00
C344   C     0.13452   0.28697   0.83971   0.00000  Uiso   1.00
C345   C     0.09019   0.28928   0.87030   0.00000  Uiso   1.00
H346   H     0.05185   0.04471   0.81075   0.00000  Uiso   1.00
H347   H     0.97251   0.05194   0.75266   0.00000  Uiso   1.00
H348   H     0.16667   0.95117   0.81496   0.00000  Uiso   1.00
H349   H     0.00336   0.11375   0.86739   0.00000  Uiso   1.00
H350   H     0.90514   0.08712   0.68390   0.00000  Uiso   1.00
H351   H     0.31453   0.87463   0.81528   0.00000  Uiso   1.00
H352   H     0.97018   0.21748   0.92585   0.00000  Uiso   1.00
H353   H     0.21042   0.25411   0.77727   0.00000  Uiso   1.00
H354   H     0.13978   0.27284   0.71734   0.00000  Uiso   1.00
H355   H     0.33394   0.17205   0.77964   0.00000  Uiso   1.00
H356   H     0.17063   0.33464   0.83207   0.00000  Uiso   1.00
H357   H     0.04090   0.26640   0.65524   0.00000  Uiso   1.00
H358   H     0.45030   0.05391   0.78662   0.00000  Uiso   1.00
H359   H     0.10595   0.39676   0.89718   0.00000  Uiso   1.00
O360   O     0.92371   0.18529   0.63075   0.00000  Uiso   1.00
O361   O     0.46081   0.90652   0.80312   0.00000  Uiso   1.00
O362   O     0.00903   0.35632   0.94818   0.00000  Uiso   1.00
N363   N     0.94678   0.12676   0.68538   0.00000  Uiso   1.00
N364   N     0.32953   0.92809   0.80821   0.00000  Uiso   1.00
N365   N     0.00761   0.24861   0.91159   0.00000  Uiso   1.00
N366   N     0.01983   0.22323   0.66996   0.00000  Uiso   1.00
N367   N     0.40259   0.02456   0.79279   0.00000  Uiso   1.00
N368   N     0.08066   0.34508   0.89616   0.00000  Uiso   1.00
C369   C     0.59268   0.41183   0.69692   0.00000  Uiso   1.00
C370   C     0.62566   0.43295   0.73312   0.00000  Uiso   1.00
C371   C     0.59964   0.49140   0.75497   0.00000  Uiso   1.00
C372   C     0.63746   0.50154   0.78707   0.00000  Uiso   1.00
C373   C     0.67926   0.54142   0.84179   0.00000  Uiso   1.00
C374   C     0.57090   0.32746   0.69928   0.00000  Uiso   1.00
C375   C     0.49884   0.29721   0.69267   0.00000  Uiso   1.00
C376   C     0.49057   0.21855   0.69626   0.00000  Uiso   1.00
C377   C     0.44737   0.09464   0.69841   0.00000  Uiso   1.00
C378   C     0.65924   0.41619   0.67079   0.00000  Uiso   1.00
C379   C     0.66145   0.46053   0.64022   0.00000  Uiso   1.00
C380   C     0.72755   0.45656   0.61983   0.00000  Uiso   1.00
C381   C     0.82151   0.47042   0.57775   0.00000  Uiso   1.00
C382   C     0.70613   0.32591   0.71506   0.00000  Uiso   1.00
C383   C     0.68728   0.38628   0.74298   0.00000  Uiso   1.00
C384   C     0.72515   0.39634   0.77504   0.00000  Uiso   1.00
C385   C     0.69919   0.45480   0.79694   0.00000  Uiso   1.00
C386   C     0.63251   0.28079   0.70913   0.00000  Uiso   1.00
C387   C     0.62436   0.20216   0.71273   0.00000  Uiso   1.00
C388   C     0.55230   0.17180   0.70613   0.00000  Uiso   1.00
C389   C     0.72086   0.36953   0.68064   0.00000  Uiso   1.00
C390   C     0.78697   0.36548   0.66029   0.00000  Uiso   1.00
C391   C     0.78928   0.40981   0.62970   0.00000  Uiso   1.00
H392   H     0.54471   0.44815   0.68925   0.00000  Uiso   1.00
H393   H     0.55194   0.52749   0.74734   0.00000  Uiso   1.00
H394   H     0.45117   0.33333   0.68504   0.00000  Uiso   1.00
H395   H     0.61375   0.49664   0.63261   0.00000  Uiso   1.00
H396   H     0.58712   0.59486   0.81610   0.00000  Uiso   1.00
H397   H     0.37463   0.18547   0.68472   0.00000  Uiso   1.00
H398   H     0.71748   0.52982   0.57415   0.00000  Uiso   1.00
H399   H     0.75411   0.28958   0.72273   0.00000  Uiso   1.00
H400   H     0.77284   0.36022   0.78266   0.00000  Uiso   1.00
H401   H     0.67205   0.16606   0.72036   0.00000  Uiso   1.00
H402   H     0.83464   0.32937   0.66793   0.00000  Uiso   1.00
H403   H     0.76640   0.45910   0.84476   0.00000  Uiso   1.00
H404   H     0.55391   0.04970   0.71338   0.00000  Uiso   1.00
H405   H     0.89676   0.39405   0.60282   0.00000  Uiso   1.00
O406   O     0.68529   0.57629   0.86925   0.00000  Uiso   1.00
O407   O     0.40652   0.03919   0.69688   0.00000  Uiso   1.00
O408   O     0.85632   0.49097   0.55182   0.00000  Uiso   1.00
N409   N     0.62676   0.55322   0.81462   0.00000  Uiso   1.00
N410   N     0.42809   0.17047   0.69179   0.00000  Uiso   1.00
N411   N     0.74861   0.49239   0.58841   0.00000  Uiso   1.00
N412   N     0.72323   0.48017   0.83004   0.00000  Uiso   1.00
N413   N     0.52456   0.09741   0.70721   0.00000  Uiso   1.00
N414   N     0.84508   0.41934   0.60384   0.00000  Uiso   1.00
C415   C     0.09268   0.91183   0.19692   0.00000  Uiso   1.00
C416   C     0.12566   0.93295   0.23312   0.00000  Uiso   1.00
C417   C     0.09964   0.99140   0.25497   0.00000  Uiso   1.00
C418   C     0.13746   0.00154   0.28707   0.00000  Uiso   1.00
C419   C     0.17926   0.04142   0.34179   0.00000  Uiso   1.00
C420   C     0.07090   0.82746   0.19928   0.00000  Uiso   1.00
C421   C     0.99884   0.79721   0.19267   0.00000  Uiso   1.00
C422   C     0.99057   0.71855   0.19626   0.00000  Uiso   1.00
C423   C     0.94737   0.59464   0.19841   0.00000  Uiso   1.00
C424   C     0.15924   0.91619   0.17079   0.00000  Uiso   1.00
C425   C     0.16145   0.96053   0.14022   0.00000  Uiso   1.00
C426   C     0.22755   0.95656   0.11983   0.00000  Uiso   1.00
C427   C     0.32151   0.97042   0.07775   0.00000  Uiso   1.00
C428   C     0.20613   0.82591   0.21506   0.00000  Uiso   1.00
C429   C     0.18728   0.88628   0.24298   0.00000  Uiso   1.00
C430   C     0.22515   0.89634   0.27504   0.00000  Uiso   1.00
C431   C     0.19919   0.95480   0.29694   0.00000  Uiso   1.00
C432   C     0.13251   0.78079   0.20913   0.00000  Uiso   1.00
C433   C     0.12436   0.70216   0.21273   0.00000  Uiso   1.00
C434   C     0.05230   0.67180   0.20613   0.00000  Uiso   1.00
C435   C     0.22086   0.86953   0.18064   0.00000  Uiso   1.00
C436   C     0.28697   0.86548   0.16029   0.00000  Uiso   1.00
C437   C     0.28928   0.90981   0.12970   0.00000  Uiso   1.00
H438   H     0.04471   0.94815   0.18925   0.00000  Uiso   1.00
H439   H     0.05194   0.02749   0.24734   0.00000  Uiso   1.00
H440   H     0.95117   0.83333   0.18504   0.00000  Uiso   1.00
H441   H     0.11375   0.99664   0.13261   0.00000  Uiso   1.00
H442   H     0.08712   0.09486   0.31610   0.00000  Uiso   1.00
H443   H     0.87463   0.68547   0.18472   0.00000  Uiso   1.00
H444   H     0.21748   0.02982   0.07415   0.00000  Uiso   1.00
H445   H     0.25411   0.78958   0.22273   0.00000  Uiso   1.00
H446   H     0.27284   0.86022   0.28266   0.00000  Uiso   1.00
H447   H     0.17205   0.66606   0.22036   0.00000  Uiso   1.00
H448   H     0.33464   0.82937   0.16793   0.00000  Uiso   1.00
H449   H     0.26640   0.95910   0.34476   0.00000  Uiso   1.00
H450   H     0.05391   0.54970   0.21338   0.00000  Uiso   1.00
H451   H     0.39676   0.89405   0.10282   0.00000  Uiso   1.00
O452   O     0.18529   0.07629   0.36925   0.00000  Uiso   1.00
O453   O     0.90652   0.53919   0.19688   0.00000  Uiso   1.00
O454   O     0.35632   0.99097   0.05182   0.00000  Uiso   1.00
N455   N     0.12676   0.05322   0.31462   0.00000  Uiso   1.00
N456   N     0.92809   0.67047   0.19179   0.00000  Uiso   1.00
N457   N     0.24861   0.99239   0.08841   0.00000  Uiso   1.00
N458   N     0.22323   0.98017   0.33004   0.00000  Uiso   1.00
N459   N     0.02456   0.59741   0.20721   0.00000  Uiso   1.00
N460   N     0.34508   0.91934   0.10384   0.00000  Uiso   1.00
C461   C     0.90732   0.08817   0.19692   0.00000  Uiso   1.00
C462   C     0.87434   0.06705   0.23312   0.00000  Uiso   1.00
C463   C     0.90036   0.00860   0.25497   0.00000  Uiso   1.00
C464   C     0.86254   0.99846   0.28707   0.00000  Uiso   1.00
C465   C     0.82074   0.95858   0.34179   0.00000  Uiso   1.00
C466   C     0.92910   0.17254   0.19928   0.00000  Uiso   1.00
C467   C     0.00116   0.20279   0.19267   0.00000  Uiso   1.00
C468   C     0.00943   0.28145   0.19626   0.00000  Uiso   1.00
C469   C     0.05263   0.40536   0.19841   0.00000  Uiso   1.00
C470   C     0.84076   0.08381   0.17079   0.00000  Uiso   1.00
C471   C     0.83855   0.03947   0.14022   0.00000  Uiso   1.00
C472   C     0.77245   0.04344   0.11983   0.00000  Uiso   1.00
C473   C     0.67849   0.02958   0.07775   0.00000  Uiso   1.00
C474   C     0.79387   0.17409   0.21506   0.00000  Uiso   1.00
C475   C     0.81272   0.11372   0.24298   0.00000  Uiso   1.00
C476   C     0.77485   0.10366   0.27504   0.00000  Uiso   1.00
C477   C     0.80081   0.04520   0.29694   0.00000  Uiso   1.00
C478   C     0.86749   0.21921   0.20913   0.00000  Uiso   1.00
C479   C     0.87564   0.29784   0.21273   0.00000  Uiso   1.00
C480   C     0.94770   0.32820   0.20613   0.00000  Uiso   1.00
C481   C     0.77914   0.13047   0.18064   0.00000  Uiso   1.00
C482   C     0.71303   0.13452   0.16029   0.00000  Uiso   1.00
C483   C     0.71072   0.09019   0.12970   0.00000  Uiso   1.00
H484   H     0.95529   0.05185   0.18925   0.00000  Uiso   1.00
H485   H     0.94806   0.97251   0.24734   0.00000  Uiso   1.00
H486   H     0.04883   0.16667   0.18504   0.00000  Uiso   1.00
H487   H     0.88625   0.00336   0.13261   0.00000  Uiso   1.00
H488   H     0.91288   0.90514   0.31610   0.00000  Uiso   1.00
H489   H     0.12537   0.31453   0.18472   0.00000  Uiso   1.00
H490   H     0.78252   0.97018   0.07415   0.00000  Uiso   1.00
H491   H     0.74589   0.21042   0.22273   0.00000  Uiso   1.00
H492   H     0.72716   0.13978   0.28266   0.00000  Uiso   1.00
H493   H     0.82795   0.33394   0.22036   0.00000  Uiso   1.00
H494   H     0.66536   0.17063   0.16793   0.00000  Uiso   1.00
H495   H     0.73360   0.04090   0.34476   0.00000  Uiso   1.00
H496   H     0.94609   0.45030   0.21338   0.00000  Uiso   1.00
H497   H     0.60324   0.10595   0.10282   0.00000  Uiso   1.00
O498   O     0.81471   0.92371   0.36925   0.00000  Uiso   1.00
O499   O     0.09348   0.46081   0.19688   0.00000  Uiso   1.00
O500   O     0.64368   0.00903   0.05182   0.00000  Uiso   1.00
N501   N     0.87324   0.94678   0.31462   0.00000  Uiso   1.00
N502   N     0.07191   0.32953   0.19179   0.00000  Uiso   1.00
N503   N     0.75139   0.00761   0.08841   0.00000  Uiso   1.00
N504   N     0.77677   0.01983   0.33004   0.00000  Uiso   1.00
N505   N     0.97544   0.40259   0.20721   0.00000  Uiso   1.00
N506   N     0.65492   0.08066   0.10384   0.00000  Uiso   1.00
C507   C     0.40732   0.58817   0.69692   0.00000  Uiso   1.00
C508   C     0.37434   0.56705   0.73312   0.00000  Uiso   1.00
C509   C     0.40036   0.50860   0.75497   0.00000  Uiso   1.00
C510   C     0.36254   0.49846   0.78707   0.00000  Uiso   1.00
C511   C     0.32074   0.45858   0.84179   0.00000  Uiso   1.00
C512   C     0.42910   0.67254   0.69928   0.00000  Uiso   1.00
C513   C     0.50116   0.70279   0.69267   0.00000  Uiso   1.00
C514   C     0.50943   0.78145   0.69626   0.00000  Uiso   1.00
C515   C     0.55263   0.90536   0.69841   0.00000  Uiso   1.00
C516   C     0.34076   0.58381   0.67079   0.00000  Uiso   1.00
C517   C     0.33855   0.53947   0.64022   0.00000  Uiso   1.00
C518   C     0.27245   0.54344   0.61983   0.00000  Uiso   1.00
C519   C     0.17849   0.52958   0.57775   0.00000  Uiso   1.00
C520   C     0.29387   0.67409   0.71506   0.00000  Uiso   1.00
C521   C     0.31272   0.61372   0.74298   0.00000  Uiso   1.00
C522   C     0.27485   0.60366   0.77504   0.00000  Uiso   1.00
C523   C     0.30081   0.54520   0.79694   0.00000  Uiso   1.00
C524   C     0.36749   0.71921   0.70913   0.00000  Uiso   1.00
C525   C     0.37564   0.79784   0.71273   0.00000  Uiso   1.00
C526   C     0.44770   0.82820   0.70613   0.00000  Uiso   1.00
C527   C     0.27914   0.63047   0.68064   0.00000  Uiso   1.00
C528   C     0.21303   0.63452   0.66029   0.00000  Uiso   1.00
C529   C     0.21072   0.59019   0.62970   0.00000  Uiso   1.00
H530   H     0.45529   0.55185   0.68925   0.00000  Uiso   1.00
H531   H     0.44806   0.47251   0.74734   0.00000  Uiso   1.00
H532   H     0.54883   0.66667   0.68504   0.00000  Uiso   1.00
H533   H     0.38625   0.50336   0.63261   0.00000  Uiso   1.00
H534   H     0.41288   0.40514   0.81610   0.00000  Uiso   1.00
H535   H     0.62537   0.81453   0.68472   0.00000  Uiso   1.00
H536   H     0.28252   0.47018   0.57415   0.00000  Uiso   1.00
H537   H     0.24589   0.71042   0.72273   0.00000  Uiso   1.00
H538   H     0.22716   0.63978   0.78266   0.00000  Uiso   1.00
H539   H     0.32795   0.83394   0.72036   0.00000  Uiso   1.00
H540   H     0.16536   0.67063   0.66793   0.00000  Uiso   1.00
H541   H     0.23360   0.54090   0.84476   0.00000  Uiso   1.00
H542   H     0.44609   0.95030   0.71338   0.00000  Uiso   1.00
H543   H     0.10324   0.60595   0.60282   0.00000  Uiso   1.00
O544   O     0.31471   0.42371   0.86925   0.00000  Uiso   1.00
O545   O     0.59348   0.96081   0.69688   0.00000  Uiso   1.00
O546   O     0.14368   0.50903   0.55182   0.00000  Uiso   1.00
N547   N     0.37324   0.44678   0.81462   0.00000  Uiso   1.00
N548   N     0.57191   0.82953   0.69179   0.00000  Uiso   1.00
N549   N     0.25139   0.50761   0.58841   0.00000  Uiso   1.00
N550   N     0.27677   0.51983   0.83004   0.00000  Uiso   1.00
N551   N     0.47544   0.90259   0.70721   0.00000  Uiso   1.00
N552   N     0.15492   0.58066   0.60384   0.00000  Uiso   1.00
C553   C     0.08817   0.59268   0.44692   0.00000  Uiso   1.00
C554   C     0.06705   0.62566   0.48312   0.00000  Uiso   1.00
C555   C     0.00860   0.59964   0.50497   0.00000  Uiso   1.00
C556   C     0.99846   0.63746   0.53707   0.00000  Uiso   1.00
C557   C     0.95858   0.67926   0.59179   0.00000  Uiso   1.00
C558   C     0.17254   0.57090   0.44928   0.00000  Uiso   1.00
C559   C     0.20279   0.49884   0.44267   0.00000  Uiso   1.00
C560   C     0.28145   0.49057   0.44626   0.00000  Uiso   1.00
C561   C     0.40536   0.44737   0.44841   0.00000  Uiso   1.00
C562   C     0.08381   0.65924   0.42079   0.00000  Uiso   1.00
C563   C     0.03947   0.66145   0.39022   0.00000  Uiso   1.00
C564   C     0.04344   0.72755   0.36983   0.00000  Uiso   1.00
C565   C     0.02958   0.82151   0.32775   0.00000  Uiso   1.00
C566   C     0.17409   0.70613   0.46506   0.00000  Uiso   1.00
C567   C     0.11372   0.68728   0.49298   0.00000  Uiso   1.00
C568   C     0.10366   0.72515   0.52504   0.00000  Uiso   1.00
C569   C     0.04520   0.69919   0.54694   0.00000  Uiso   1.00
C570   C     0.21921   0.63251   0.45913   0.00000  Uiso   1.00
C571   C     0.29784   0.62436   0.46273   0.00000  Uiso   1.00
C572   C     0.32820   0.55230   0.45613   0.00000  Uiso   1.00
C573   C     0.13047   0.72086   0.43064   0.00000  Uiso   1.00
C574   C     0.13452   0.78697   0.41029   0.00000  Uiso   1.00
C575   C     0.09019   0.78928   0.37970   0.00000  Uiso   1.00
H576   H     0.05185   0.54471   0.43925   0.00000  Uiso   1.00
H577   H     0.97251   0.55194   0.49734   0.00000  Uiso   1.00
H578   H     0.16667   0.45117   0.43504   0.00000  Uiso   1.00
H579   H     0.00336   0.61375   0.38261   0.00000  Uiso   1.00
H580   H     0.90514   0.58712   0.56610   0.00000  Uiso   1.00
H581   H     0.31453   0.37463   0.43472   0.00000  Uiso   1.00
H582   H     0.97018   0.71748   0.32415   0.00000  Uiso   1.00
H583   H     0.21042   0.75411   0.47273   0.00000  Uiso   1.00
H584   H     0.13978   0.77284   0.53266   0.00000  Uiso   1.00
H585   H     0.33394   0.67205   0.47036   0.00000  Uiso   1.00
H586   H     0.17063   0.83464   0.41793   0.00000  Uiso   1.00
H587   H     0.04090   0.76640   0.59476   0.00000  Uiso   1.00
H588   H     0.45030   0.55391   0.46338   0.00000  Uiso   1.00
H589   H     0.10595   0.89676   0.35282   0.00000  Uiso   1.00
O590   O     0.92371   0.68529   0.61925   0.00000  Uiso   1.00
O591   O     0.46081   0.40652   0.44688   0.00000  Uiso   1.00
O592   O     0.00903   0.85632   0.30182   0.00000  Uiso   1.00
N593   N     0.94678   0.62676   0.56462   0.00000  Uiso   1.00
N594   N     0.32953   0.42809   0.44179   0.00000  Uiso   1.00
N595   N     0.00761   0.74861   0.33841   0.00000  Uiso   1.00
N596   N     0.01983   0.72323   0.58004   0.00000  Uiso   1.00
N597   N     0.40259   0.52456   0.45721   0.00000  Uiso   1.00
N598   N     0.08066   0.84508   0.35384   0.00000  Uiso   1.00
C599   C     0.58817   0.09268   0.94692   0.00000  Uiso   1.00
C600   C     0.56705   0.12566   0.98312   0.00000  Uiso   1.00
C601   C     0.50860   0.09964   0.00497   0.00000  Uiso   1.00
C602   C     0.49846   0.13746   0.03707   0.00000  Uiso   1.00
C603   C     0.45858   0.17926   0.09179   0.00000  Uiso   1.00
C604   C     0.67254   0.07090   0.94928   0.00000  Uiso   1.00
C605   C     0.70279   0.99884   0.94267   0.00000  Uiso   1.00
C606   C     0.78145   0.99057   0.94626   0.00000  Uiso   1.00
C607   C     0.90536   0.94737   0.94841   0.00000  Uiso   1.00
C608   C     0.58381   0.15924   0.92079   0.00000  Uiso   1.00
C609   C     0.53947   0.16145   0.89022   0.00000  Uiso   1.00
C610   C     0.54344   0.22755   0.86983   0.00000  Uiso   1.00
C611   C     0.52958   0.32151   0.82775   0.00000  Uiso   1.00
C612   C     0.67409   0.20613   0.96506   0.00000  Uiso   1.00
C613   C     0.61372   0.18728   0.99298   0.00000  Uiso   1.00
C614   C     0.60366   0.22515   0.02504   0.00000  Uiso   1.00
C615   C     0.54520   0.19919   0.04694   0.00000  Uiso   1.00
C616   C     0.71921   0.13251   0.95913   0.00000  Uiso   1.00
C617   C     0.79784   0.12436   0.96273   0.00000  Uiso   1.00
C618   C     0.82820   0.05230   0.95613   0.00000  Uiso   1.00
C619   C     0.63047   0.22086   0.93064   0.00000  Uiso   1.00
C620   C     0.63452   0.28697   0.91029   0.00000  Uiso   1.00
C621   C     0.59019   0.28928   0.87970   0.00000  Uiso   1.00
H622   H     0.55185   0.04471   0.93925   0.00000  Uiso   1.00
H623   H     0.47251   0.05194   0.99734   0.00000  Uiso   1.00
H624   H     0.66667   0.95117   0.93504   0.00000  Uiso   1.00
H625   H     0.50336   0.11375   0.88261   0.00000  Uiso   1.00
H626   H     0.40514   0.08712   0.06610   0.00000  Uiso   1.00
H627   H     0.81453   0.87463   0.93472   0.00000  Uiso   1.00
H628   H     0.47018   0.21748   0.82415   0.00000  Uiso   1.00
H629   H     0.71042   0.25411   0.97273   0.00000  Uiso   1.00
H630   H     0.63978   0.27284   0.03266   0.00000  Uiso   1.00
H631   H     0.83394   0.17205   0.97036   0.00000  Uiso   1.00
H632   H     0.67063   0.33464   0.91793   0.00000  Uiso   1.00
H633   H     0.54090   0.26640   0.09476   0.00000  Uiso   1.00
H634   H     0.95030   0.05391   0.96338   0.00000  Uiso   1.00
H635   H     0.60595   0.39676   0.85282   0.00000  Uiso   1.00
O636   O     0.42371   0.18529   0.11925   0.00000  Uiso   1.00
O637   O     0.96081   0.90652   0.94688   0.00000  Uiso   1.00
O638   O     0.50903   0.35632   0.80182   0.00000  Uiso   1.00
N639   N     0.44678   0.12676   0.06462   0.00000  Uiso   1.00
N640   N     0.82953   0.92809   0.94179   0.00000  Uiso   1.00
N641   N     0.50761   0.24861   0.83841   0.00000  Uiso   1.00
N642   N     0.51983   0.22323   0.08004   0.00000  Uiso   1.00
N643   N     0.90259   0.02456   0.95721   0.00000  Uiso   1.00
N644   N     0.58066   0.34508   0.85384   0.00000  Uiso   1.00
C645   C     0.41183   0.90732   0.94692   0.00000  Uiso   1.00
C646   C     0.43295   0.87434   0.98312   0.00000  Uiso   1.00
C647   C     0.49140   0.90036   0.00497   0.00000  Uiso   1.00
C648   C     0.50154   0.86254   0.03707   0.00000  Uiso   1.00
C649   C     0.54142   0.82074   0.09179   0.00000  Uiso   1.00
C650   C     0.32746   0.92910   0.94928   0.00000  Uiso   1.00
C651   C     0.29721   0.00116   0.94267   0.00000  Uiso   1.00
C652   C     0.21855   0.00943   0.94626   0.00000  Uiso   1.00
C653   C     0.09464   0.05263   0.94841   0.00000  Uiso   1.00
C654   C     0.41619   0.84076   0.92079   0.00000  Uiso   1.00
C655   C     0.46053   0.83855   0.89022   0.00000  Uiso   1.00
C656   C     0.45656   0.77245   0.86983   0.00000  Uiso   1.00
C657   C     0.47042   0.67849   0.82775   0.00000  Uiso   1.00
C658   C     0.32591   0.79387   0.96506   0.00000  Uiso   1.00
C659   C     0.38628   0.81272   0.99298   0.00000  Uiso   1.00
C660   C     0.39634   0.77485   0.02504   0.00000  Uiso   1.00
C661   C     0.45480   0.80081   0.04694   0.00000  Uiso   1.00
C662   C     0.28079   0.86749   0.95913   0.00000  Uiso   1.00
C663   C     0.20216   0.87564   0.96273   0.00000  Uiso   1.00
C664   C     0.17180   0.94770   0.95613   0.00000  Uiso   1.00
C665   C     0.36953   0.77914   0.93064   0.00000  Uiso   1.00
C666   C     0.36548   0.71303   0.91029   0.00000  Uiso   1.00
C667   C     0.40981   0.71072   0.87970   0.00000  Uiso   1.00
H668   H     0.44815   0.95529   0.93925   0.00000  Uiso   1.00
H669   H     0.52749   0.94806   0.99734   0.00000  Uiso   1.00
H670   H     0.33333   0.04883   0.93504   0.00000  Uiso   1.00
H671   H     0.49664   0.88625   0.88261   0.00000  Uiso   1.00
H672   H     0.59486   0.91288   0.06610   0.00000  Uiso   1.00
H673   H     0.18547   0.12537   0.93472   0.00000  Uiso   1.00
H674   H     0.52982   0.78252   0.82415   0.00000  Uiso   1.00
H675   H     0.28958   0.74589   0.97273   0.00000  Uiso   1.00
H676   H     0.36022   0.72716   0.03266   0.00000  Uiso   1.00
H677   H     0.16606   0.82795   0.97036   0.00000  Uiso   1.00
H678   H     0.32937   0.66536   0.91793   0.00000  Uiso   1.00
H679   H     0.45910   0.73360   0.09476   0.00000  Uiso   1.00
H680   H     0.04970   0.94609   0.96338   0.00000  Uiso   1.00
H681   H     0.39405   0.60324   0.85282   0.00000  Uiso   1.00
O682   O     0.57629   0.81471   0.11925   0.00000  Uiso   1.00
O683   O     0.03919   0.09348   0.94688   0.00000  Uiso   1.00
O684   O     0.49097   0.64368   0.80182   0.00000  Uiso   1.00
N685   N     0.55322   0.87324   0.06462   0.00000  Uiso   1.00
N686   N     0.17047   0.07191   0.94179   0.00000  Uiso   1.00
N687   N     0.49239   0.75139   0.83841   0.00000  Uiso   1.00
N688   N     0.48017   0.77677   0.08004   0.00000  Uiso   1.00
N689   N     0.09741   0.97544   0.95721   0.00000  Uiso   1.00
N690   N     0.41934   0.65492   0.85384   0.00000  Uiso   1.00
C691   C     0.91183   0.40732   0.44692   0.00000  Uiso   1.00
C692   C     0.93295   0.37434   0.48312   0.00000  Uiso   1.00
C693   C     0.99140   0.40036   0.50497   0.00000  Uiso   1.00
C694   C     0.00154   0.36254   0.53707   0.00000  Uiso   1.00
C695   C     0.04142   0.32074   0.59179   0.00000  Uiso   1.00
C696   C     0.82746   0.42910   0.44928   0.00000  Uiso   1.00
C697   C     0.79721   0.50116   0.44267   0.00000  Uiso   1.00
C698   C     0.71855   0.50943   0.44626   0.00000  Uiso   1.00
C699   C     0.59464   0.55263   0.44841   0.00000  Uiso   1.00
C700   C     0.91619   0.34076   0.42079   0.00000  Uiso   1.00
C701   C     0.96053   0.33855   0.39022   0.00000  Uiso   1.00
C702   C     0.95656   0.27245   0.36983   0.00000  Uiso   1.00
C703   C     0.97042   0.17849   0.32775   0.00000  Uiso   1.00
C704   C     0.82591   0.29387   0.46506   0.00000  Uiso   1.00
C705   C     0.88628   0.31272   0.49298   0.00000  Uiso   1.00
C706   C     0.89634   0.27485   0.52504   0.00000  Uiso   1.00
C707   C     0.95480   0.30081   0.54694   0.00000  Uiso   1.00
C708   C     0.78079   0.36749   0.45913   0.00000  Uiso   1.00
C709   C     0.70216   0.37564   0.46273   0.00000  Uiso   1.00
C710   C     0.67180   0.44770   0.45613   0.00000  Uiso   1.00
C711   C     0.86953   0.27914   0.43064   0.00000  Uiso   1.00
C712   C     0.86548   0.21303   0.41029   0.00000  Uiso   1.00
C713   C     0.90981   0.21072   0.37970   0.00000  Uiso   1.00
H714   H     0.94815   0.45529   0.43925   0.00000  Uiso   1.00
H715   H     0.02749   0.44806   0.49734   0.00000  Uiso   1.00
H716   H     0.83333   0.54883   0.43504   0.00000  Uiso   1.00
H717   H     0.99664   0.38625   0.38261   0.00000  Uiso   1.00
H718   H     0.09486   0.41288   0.56610   0.00000  Uiso   1.00
H719   H     0.68547   0.62537   0.43472   0.00000  Uiso   1.00
H720   H     0.02982   0.28252   0.32415   0.00000  Uiso   1.00
H721   H     0.78958   0.24589   0.47273   0.00000  Uiso   1.00
H722   H     0.86022   0.22716   0.53266   0.00000  Uiso   1.00
H723   H     0.66606   0.32795   0.47036   0.00000  Uiso   1.00
H724   H     0.82937   0.16536   0.41793   0.00000  Uiso   1.00
H725   H     0.95910   0.23360   0.59476   0.00000  Uiso   1.00
H726   H     0.54970   0.44609   0.46338   0.00000  Uiso   1.00
H727   H     0.89405   0.10324   0.35282   0.00000  Uiso   1.00
O728   O     0.07629   0.31471   0.61925   0.00000  Uiso   1.00
O729   O     0.53919   0.59348   0.44688   0.00000  Uiso   1.00
O730   O     0.99097   0.14368   0.30182   0.00000  Uiso   1.00
N731   N     0.05322   0.37324   0.56462   0.00000  Uiso   1.00
N732   N     0.67047   0.57191   0.44179   0.00000  Uiso   1.00
N733   N     0.99239   0.25139   0.33841   0.00000  Uiso   1.00
N734   N     0.98017   0.27677   0.58004   0.00000  Uiso   1.00
N735   N     0.59741   0.47544   0.45721   0.00000  Uiso   1.00
N736   N     0.91934   0.15492   0.35384   0.00000  Uiso   1.00
