data_job_06834
_audit_creation_date              2018-12-19
_audit_creation_method            'Materials Studio'
_symmetry_space_group_name_H-M    'P1'
_symmetry_Int_Tables_number       1
_symmetry_cell_setting            triclinic
loop_
_symmetry_equiv_pos_as_xyz
  x,y,z
_cell_length_a                    40.8200
_cell_length_b                    22.6269
_cell_length_c                    33.1606
_cell_angle_alpha                 90.0000
_cell_angle_beta                  130.9171
_cell_angle_gamma                 90.0000
loop_
_atom_site_label
_atom_site_type_symbol
_atom_site_fract_x
_atom_site_fract_y
_atom_site_fract_z
_atom_site_U_iso_or_equiv
_atom_site_adp_type
_atom_site_occupancy
C1     C     0.48774   0.55309   0.11686   0.00000  Uiso   1.00
C2     C     0.52575   0.59580   0.15139   0.00000  Uiso   1.00
C3     C     0.56763   0.58572   0.17147   0.00000  Uiso   1.00
C4     C     0.59778   0.63028   0.20223   0.00000  Uiso   1.00
C5     C     0.65854   0.68856   0.25430   0.00000  Uiso   1.00
C6     C     0.47097   0.54313   0.14607   0.00000  Uiso   1.00
C7     C     0.96677   0.98877   0.16167   0.00000  Uiso   1.00
C8     C     0.95080   0.98901   0.18793   0.00000  Uiso   1.00
C9     C     0.92648   0.96551   0.23171   0.00000  Uiso   1.00
C10    C     0.45216   0.58688   0.06609   0.00000  Uiso   1.00
C11    C     0.43213   0.56929   0.01444   0.00000  Uiso   1.00
C12    C     0.40031   0.60635   0.97337   0.00000  Uiso   1.00
C13    C     0.34678   0.65077   0.89297   0.00000  Uiso   1.00
C14    C     0.46682   0.65017   0.13577   0.00000  Uiso   1.00
C15    C     0.51439   0.64853   0.16166   0.00000  Uiso   1.00
C16    C     0.54449   0.69312   0.19239   0.00000  Uiso   1.00
C17    C     0.58640   0.68311   0.21251   0.00000  Uiso   1.00
C18    C     0.45961   0.59586   0.15634   0.00000  Uiso   1.00
C19    C     0.44364   0.59618   0.18258   0.00000  Uiso   1.00
C20    C     0.93942   0.04183   0.19822   0.00000  Uiso   1.00
C21    C     0.44080   0.63961   0.07636   0.00000  Uiso   1.00
C22    C     0.40900   0.67670   0.03536   0.00000  Uiso   1.00
C23    C     0.38893   0.65917   0.98366   0.00000  Uiso   1.00
H24    H     0.49658   0.51204   0.10887   0.00000  Uiso   1.00
H25    H     0.57640   0.54490   0.16352   0.00000  Uiso   1.00
H26    H     0.97556   0.94797   0.15371   0.00000  Uiso   1.00
H27    H     0.44093   0.52848   0.00651   0.00000  Uiso   1.00
H28    H     0.65990   0.60458   0.22866   0.00000  Uiso   1.00
H29    H     0.94725   0.90019   0.20796   0.00000  Uiso   1.00
H30    H     0.37422   0.56996   0.89755   0.00000  Uiso   1.00
H31    H     0.45798   0.69123   0.14376   0.00000  Uiso   1.00
H32    H     0.53569   0.73392   0.20033   0.00000  Uiso   1.00
H33    H     0.43485   0.63699   0.19052   0.00000  Uiso   1.00
H34    H     0.40022   0.71750   0.04332   0.00000  Uiso   1.00
H35    H     0.62686   0.75799   0.25853   0.00000  Uiso   1.00
H36    H     0.91421   0.05361   0.23783   0.00000  Uiso   1.00
H37    H     0.34118   0.72338   0.92743   0.00000  Uiso   1.00
O38    O     0.69520   0.70613   0.28019   0.00000  Uiso   1.00
O39    O     0.91621   0.93799   0.25302   0.00000  Uiso   1.00
O40    O     0.32040   0.66071   0.84578   0.00000  Uiso   1.00
N41    N     0.64146   0.63483   0.22792   0.00000  Uiso   1.00
N42    N     0.94265   0.94374   0.20857   0.00000  Uiso   1.00
N43    N     0.37437   0.60245   0.91837   0.00000  Uiso   1.00
N44    N     0.62368   0.71738   0.24399   0.00000  Uiso   1.00
N45    N     0.92487   0.02630   0.22464   0.00000  Uiso   1.00
N46    N     0.35659   0.68500   0.93444   0.00000  Uiso   1.00
C47    C     0.60354   0.23281   0.12743   0.00000  Uiso   1.00
C48    C     0.08991   0.73732   0.16054   0.00000  Uiso   1.00
C49    C     0.09011   0.78845   0.18381   0.00000  Uiso   1.00
C50    C     0.07646   0.78336   0.21255   0.00000  Uiso   1.00
C51    C     0.05735   0.79861   0.26318   0.00000  Uiso   1.00
C52    C     0.63902   0.18594   0.15451   0.00000  Uiso   1.00
C53    C     0.68051   0.19388   0.17270   0.00000  Uiso   1.00
C54    C     0.70820   0.14554   0.19636   0.00000  Uiso   1.00
C55    C     0.76534   0.08102   0.23761   0.00000  Uiso   1.00
C56    C     0.56483   0.20667   0.07386   0.00000  Uiso   1.00
C57    C     0.54394   0.23204   0.02424   0.00000  Uiso   1.00
C58    C     0.50917   0.20115   0.97999   0.00000  Uiso   1.00
C59    C     0.45110   0.16881   0.89601   0.00000  Uiso   1.00
C60    C     0.57894   0.13285   0.13709   0.00000  Uiso   1.00
C61    C     0.57655   0.18302   0.16578   0.00000  Uiso   1.00
C62    C     0.06289   0.67785   0.19449   0.00000  Uiso   1.00
C63    C     0.06307   0.72897   0.21780   0.00000  Uiso   1.00
C64    C     0.62566   0.13165   0.15976   0.00000  Uiso   1.00
C65    C     0.65330   0.08329   0.18339   0.00000  Uiso   1.00
C66    C     0.69482   0.09115   0.20162   0.00000  Uiso   1.00
C67    C     0.55147   0.15238   0.07910   0.00000  Uiso   1.00
C68    C     0.51672   0.12144   0.03493   0.00000  Uiso   1.00
C69    C     0.49578   0.14675   0.98525   0.00000  Uiso   1.00
H70    H     0.61394   0.27508   0.12334   0.00000  Uiso   1.00
H71    H     0.10045   0.83046   0.17974   0.00000  Uiso   1.00
H72    H     0.69084   0.23590   0.16863   0.00000  Uiso   1.00
H73    H     0.55429   0.27405   0.02019   0.00000  Uiso   1.00
H74    H     0.07962   0.86790   0.24460   0.00000  Uiso   1.00
H75    H     0.77021   0.16852   0.22116   0.00000  Uiso   1.00
H76    H     0.98225   0.74897   0.90814   0.00000  Uiso   1.00
H77    H     0.56854   0.09058   0.14117   0.00000  Uiso   1.00
H78    H     0.55256   0.13583   0.19855   0.00000  Uiso   1.00
H79    H     0.64295   0.04128   0.18744   0.00000  Uiso   1.00
H80    H     0.50639   0.07943   0.03900   0.00000  Uiso   1.00
H81    H     0.04075   0.70994   0.25987   0.00000  Uiso   1.00
H82    H     0.73134   0.01056   0.23643   0.00000  Uiso   1.00
H83    H     0.44338   0.09101   0.92341   0.00000  Uiso   1.00
O84    O     0.05051   0.82201   0.28967   0.00000  Uiso   1.00
O85    O     0.80054   0.06043   0.25891   0.00000  Uiso   1.00
O86    O     0.42276   0.16598   0.84824   0.00000  Uiso   1.00
N87    N     0.07266   0.82452   0.24031   0.00000  Uiso   1.00
N88    N     0.75085   0.13811   0.21841   0.00000  Uiso   1.00
N89    N     0.48164   0.21332   0.92576   0.00000  Uiso   1.00
N90    N     0.05174   0.73952   0.24852   0.00000  Uiso   1.00
N91    N     0.72993   0.05311   0.22662   0.00000  Uiso   1.00
N92    N     0.46073   0.12832   0.93397   0.00000  Uiso   1.00
C93    C     0.71973   0.52317   0.12853   0.00000  Uiso   1.00
C94    C     0.75062   0.47888   0.17283   0.00000  Uiso   1.00
C95    C     0.74049   0.44078   0.19607   0.00000  Uiso   1.00
C96    C     0.77326   0.40366   0.23599   0.00000  Uiso   1.00
C97    C     0.81493   0.33476   0.30234   0.00000  Uiso   1.00
C98    C     0.74166   0.58333   0.14985   0.00000  Uiso   1.00
C99    C     0.72399   0.63306   0.15378   0.00000  Uiso   1.00
C100   C     0.74922   0.68388   0.17435   0.00000  Uiso   1.00
C101   C     0.77697   0.77716   0.20500   0.00000  Uiso   1.00
C102   C     0.71915   0.50854   0.08318   0.00000  Uiso   1.00
C103   C     0.68255   0.49541   0.03104   0.00000  Uiso   1.00
C104   C     0.18883   0.98327   0.99547   0.00000  Uiso   1.00
C105   C     0.18163   0.96043   0.92260   0.00000  Uiso   1.00
C106   C     0.79595   0.52499   0.15809   0.00000  Uiso   1.00
C107   C     0.79202   0.47987   0.18888   0.00000  Uiso   1.00
C108   C     0.82481   0.44280   0.22877   0.00000  Uiso   1.00
C109   C     0.81473   0.40465   0.25207   0.00000  Uiso   1.00
C110   C     0.78306   0.58433   0.16590   0.00000  Uiso   1.00
C111   C     0.80832   0.63508   0.18647   0.00000  Uiso   1.00
C112   C     0.79069   0.68487   0.19043   0.00000  Uiso   1.00
C113   C     0.76055   0.50953   0.09923   0.00000  Uiso   1.00
C114   C     0.76688   0.49742   0.06374   0.00000  Uiso   1.00
C115   C     0.23030   0.98426   0.01155   0.00000  Uiso   1.00
H116   H     0.68750   0.52240   0.11604   0.00000  Uiso   1.00
H117   H     0.70845   0.44003   0.18364   0.00000  Uiso   1.00
H118   H     0.69195   0.63229   0.14135   0.00000  Uiso   1.00
H119   H     0.65052   0.49465   0.01863   0.00000  Uiso   1.00
H120   H     0.74993   0.34916   0.26569   0.00000  Uiso   1.00
H121   H     0.71515   0.75455   0.17649   0.00000  Uiso   1.00
H122   H     0.12778   0.96431   0.91771   0.00000  Uiso   1.00
H123   H     0.82818   0.52576   0.17058   0.00000  Uiso   1.00
H124   H     0.85685   0.44357   0.24118   0.00000  Uiso   1.00
H125   H     0.84035   0.63583   0.19889   0.00000  Uiso   1.00
H126   H     0.29892   0.99819   0.07617   0.00000  Uiso   1.00
H127   H     0.87038   0.35204   0.31239   0.00000  Uiso   1.00
H128   H     0.83559   0.75743   0.22319   0.00000  Uiso   1.00
H129   H     0.24823   0.96719   0.96442   0.00000  Uiso   1.00
O130   O     0.32648   0.79649   0.33451   0.00000  Uiso   1.00
O131   O     0.78083   0.82834   0.21747   0.00000  Uiso   1.00
O132   O     0.16622   0.94755   0.87797   0.00000  Uiso   1.00
N133   N     0.77434   0.36111   0.26699   0.00000  Uiso   1.00
N134   N     0.74182   0.74012   0.18360   0.00000  Uiso   1.00
N135   N     0.16014   0.96878   0.94166   0.00000  Uiso   1.00
N136   N     0.83915   0.36266   0.29212   0.00000  Uiso   1.00
N137   N     0.80663   0.74167   0.20873   0.00000  Uiso   1.00
N138   N     0.22495   0.97033   0.96679   0.00000  Uiso   1.00
C139   C     0.98774   0.05309   0.11686   0.00000  Uiso   1.00
C140   C     0.02575   0.09580   0.15139   0.00000  Uiso   1.00
C141   C     0.06763   0.08572   0.17147   0.00000  Uiso   1.00
C142   C     0.09778   0.13028   0.20223   0.00000  Uiso   1.00
C143   C     0.15854   0.18856   0.25430   0.00000  Uiso   1.00
C144   C     0.97097   0.04313   0.14607   0.00000  Uiso   1.00
C145   C     0.46677   0.48877   0.16167   0.00000  Uiso   1.00
C146   C     0.45080   0.48901   0.18793   0.00000  Uiso   1.00
C147   C     0.42648   0.46551   0.23171   0.00000  Uiso   1.00
C148   C     0.95216   0.08688   0.06609   0.00000  Uiso   1.00
C149   C     0.93213   0.06929   0.01444   0.00000  Uiso   1.00
C150   C     0.90031   0.10635   0.97337   0.00000  Uiso   1.00
C151   C     0.84678   0.15077   0.89297   0.00000  Uiso   1.00
C152   C     0.96682   0.15017   0.13577   0.00000  Uiso   1.00
C153   C     0.01439   0.14853   0.16166   0.00000  Uiso   1.00
C154   C     0.04449   0.19312   0.19239   0.00000  Uiso   1.00
C155   C     0.08640   0.18311   0.21251   0.00000  Uiso   1.00
C156   C     0.95961   0.09586   0.15634   0.00000  Uiso   1.00
C157   C     0.94364   0.09618   0.18258   0.00000  Uiso   1.00
C158   C     0.43942   0.54183   0.19822   0.00000  Uiso   1.00
C159   C     0.94080   0.13961   0.07636   0.00000  Uiso   1.00
C160   C     0.90900   0.17670   0.03536   0.00000  Uiso   1.00
C161   C     0.88893   0.15917   0.98366   0.00000  Uiso   1.00
H162   H     0.99658   0.01204   0.10887   0.00000  Uiso   1.00
H163   H     0.07640   0.04490   0.16352   0.00000  Uiso   1.00
H164   H     0.47556   0.44797   0.15371   0.00000  Uiso   1.00
H165   H     0.94093   0.02848   0.00651   0.00000  Uiso   1.00
H166   H     0.15990   0.10458   0.22866   0.00000  Uiso   1.00
H167   H     0.44725   0.40019   0.20796   0.00000  Uiso   1.00
H168   H     0.87422   0.06996   0.89755   0.00000  Uiso   1.00
H169   H     0.95798   0.19123   0.14376   0.00000  Uiso   1.00
H170   H     0.03569   0.23392   0.20033   0.00000  Uiso   1.00
H171   H     0.93485   0.13699   0.19052   0.00000  Uiso   1.00
H172   H     0.90022   0.21750   0.04332   0.00000  Uiso   1.00
H173   H     0.12686   0.25799   0.25853   0.00000  Uiso   1.00
H174   H     0.41421   0.55361   0.23783   0.00000  Uiso   1.00
H175   H     0.84118   0.22338   0.92743   0.00000  Uiso   1.00
O176   O     0.19520   0.20613   0.28019   0.00000  Uiso   1.00
O177   O     0.41621   0.43799   0.25302   0.00000  Uiso   1.00
O178   O     0.82040   0.16071   0.84578   0.00000  Uiso   1.00
N179   N     0.14146   0.13483   0.22792   0.00000  Uiso   1.00
N180   N     0.44265   0.44374   0.20857   0.00000  Uiso   1.00
N181   N     0.87437   0.10245   0.91837   0.00000  Uiso   1.00
N182   N     0.12368   0.21738   0.24399   0.00000  Uiso   1.00
N183   N     0.42487   0.52630   0.22464   0.00000  Uiso   1.00
N184   N     0.85659   0.18500   0.93444   0.00000  Uiso   1.00
C185   C     0.10354   0.73281   0.12743   0.00000  Uiso   1.00
C186   C     0.58991   0.23732   0.16054   0.00000  Uiso   1.00
C187   C     0.59011   0.28845   0.18381   0.00000  Uiso   1.00
C188   C     0.57646   0.28336   0.21255   0.00000  Uiso   1.00
C189   C     0.55735   0.29861   0.26318   0.00000  Uiso   1.00
C190   C     0.13902   0.68594   0.15451   0.00000  Uiso   1.00
C191   C     0.18051   0.69388   0.17270   0.00000  Uiso   1.00
C192   C     0.20820   0.64554   0.19636   0.00000  Uiso   1.00
C193   C     0.26534   0.58102   0.23761   0.00000  Uiso   1.00
C194   C     0.06483   0.70667   0.07386   0.00000  Uiso   1.00
C195   C     0.04394   0.73204   0.02424   0.00000  Uiso   1.00
C196   C     0.00917   0.70115   0.97999   0.00000  Uiso   1.00
C197   C     0.95110   0.66881   0.89601   0.00000  Uiso   1.00
C198   C     0.07894   0.63285   0.13709   0.00000  Uiso   1.00
C199   C     0.07655   0.68302   0.16578   0.00000  Uiso   1.00
C200   C     0.56289   0.17785   0.19449   0.00000  Uiso   1.00
C201   C     0.56307   0.22897   0.21780   0.00000  Uiso   1.00
C202   C     0.12566   0.63165   0.15976   0.00000  Uiso   1.00
C203   C     0.15330   0.58329   0.18339   0.00000  Uiso   1.00
C204   C     0.19482   0.59115   0.20162   0.00000  Uiso   1.00
C205   C     0.05147   0.65238   0.07910   0.00000  Uiso   1.00
C206   C     0.01672   0.62144   0.03493   0.00000  Uiso   1.00
C207   C     0.99578   0.64675   0.98525   0.00000  Uiso   1.00
H208   H     0.11394   0.77508   0.12334   0.00000  Uiso   1.00
H209   H     0.60045   0.33046   0.17974   0.00000  Uiso   1.00
H210   H     0.19084   0.73590   0.16863   0.00000  Uiso   1.00
H211   H     0.05429   0.77405   0.02019   0.00000  Uiso   1.00
H212   H     0.57962   0.36790   0.24460   0.00000  Uiso   1.00
H213   H     0.27021   0.66852   0.22116   0.00000  Uiso   1.00
H214   H     0.48225   0.24897   0.90814   0.00000  Uiso   1.00
H215   H     0.06854   0.59058   0.14117   0.00000  Uiso   1.00
H216   H     0.05256   0.63583   0.19855   0.00000  Uiso   1.00
H217   H     0.14295   0.54128   0.18744   0.00000  Uiso   1.00
H218   H     0.00639   0.57943   0.03900   0.00000  Uiso   1.00
H219   H     0.54075   0.20994   0.25987   0.00000  Uiso   1.00
H220   H     0.23134   0.51056   0.23643   0.00000  Uiso   1.00
H221   H     0.94338   0.59101   0.92341   0.00000  Uiso   1.00
O222   O     0.55051   0.32201   0.28967   0.00000  Uiso   1.00
O223   O     0.30054   0.56043   0.25891   0.00000  Uiso   1.00
O224   O     0.92276   0.66598   0.84824   0.00000  Uiso   1.00
N225   N     0.57266   0.32452   0.24031   0.00000  Uiso   1.00
N226   N     0.25085   0.63811   0.21841   0.00000  Uiso   1.00
N227   N     0.98164   0.71332   0.92576   0.00000  Uiso   1.00
N228   N     0.55174   0.23952   0.24852   0.00000  Uiso   1.00
N229   N     0.22993   0.55311   0.22662   0.00000  Uiso   1.00
N230   N     0.96073   0.62832   0.93397   0.00000  Uiso   1.00
C231   C     0.21973   0.02317   0.12853   0.00000  Uiso   1.00
C232   C     0.25062   0.97888   0.17283   0.00000  Uiso   1.00
C233   C     0.24049   0.94078   0.19607   0.00000  Uiso   1.00
C234   C     0.27326   0.90366   0.23599   0.00000  Uiso   1.00
C235   C     0.31493   0.83476   0.30234   0.00000  Uiso   1.00
C236   C     0.24166   0.08333   0.14985   0.00000  Uiso   1.00
C237   C     0.22399   0.13306   0.15378   0.00000  Uiso   1.00
C238   C     0.24922   0.18388   0.17435   0.00000  Uiso   1.00
C239   C     0.27697   0.27716   0.20500   0.00000  Uiso   1.00
C240   C     0.21915   0.00854   0.08318   0.00000  Uiso   1.00
C241   C     0.18255   0.99541   0.03104   0.00000  Uiso   1.00
C242   C     0.68883   0.48327   0.99547   0.00000  Uiso   1.00
C243   C     0.68163   0.46043   0.92260   0.00000  Uiso   1.00
C244   C     0.29595   0.02499   0.15809   0.00000  Uiso   1.00
C245   C     0.29202   0.97987   0.18888   0.00000  Uiso   1.00
C246   C     0.32481   0.94280   0.22877   0.00000  Uiso   1.00
C247   C     0.31473   0.90465   0.25207   0.00000  Uiso   1.00
C248   C     0.28306   0.08433   0.16590   0.00000  Uiso   1.00
C249   C     0.30832   0.13508   0.18647   0.00000  Uiso   1.00
C250   C     0.29069   0.18487   0.19043   0.00000  Uiso   1.00
C251   C     0.26055   0.00953   0.09923   0.00000  Uiso   1.00
C252   C     0.26688   0.99742   0.06374   0.00000  Uiso   1.00
C253   C     0.73030   0.48426   0.01155   0.00000  Uiso   1.00
H254   H     0.18750   0.02240   0.11604   0.00000  Uiso   1.00
H255   H     0.20845   0.94003   0.18364   0.00000  Uiso   1.00
H256   H     0.19195   0.13229   0.14135   0.00000  Uiso   1.00
H257   H     0.15052   0.99465   0.01863   0.00000  Uiso   1.00
H258   H     0.24993   0.84916   0.26569   0.00000  Uiso   1.00
H259   H     0.21515   0.25455   0.17649   0.00000  Uiso   1.00
H260   H     0.62778   0.46431   0.91771   0.00000  Uiso   1.00
H261   H     0.32818   0.02576   0.17058   0.00000  Uiso   1.00
H262   H     0.35685   0.94357   0.24118   0.00000  Uiso   1.00
H263   H     0.34035   0.13583   0.19889   0.00000  Uiso   1.00
H264   H     0.79892   0.49819   0.07617   0.00000  Uiso   1.00
H265   H     0.37038   0.85204   0.31239   0.00000  Uiso   1.00
H266   H     0.33559   0.25743   0.22319   0.00000  Uiso   1.00
H267   H     0.74823   0.46719   0.96442   0.00000  Uiso   1.00
O268   O     0.82648   0.29649   0.33451   0.00000  Uiso   1.00
O269   O     0.28083   0.32834   0.21747   0.00000  Uiso   1.00
O270   O     0.66622   0.44755   0.87797   0.00000  Uiso   1.00
N271   N     0.27434   0.86111   0.26699   0.00000  Uiso   1.00
N272   N     0.24182   0.24012   0.18360   0.00000  Uiso   1.00
N273   N     0.66014   0.46878   0.94166   0.00000  Uiso   1.00
N274   N     0.33915   0.86266   0.29212   0.00000  Uiso   1.00
N275   N     0.30663   0.24167   0.20873   0.00000  Uiso   1.00
N276   N     0.72495   0.47033   0.96679   0.00000  Uiso   1.00
C277   C     0.51226   0.55309   0.38314   0.00000  Uiso   1.00
C278   C     0.47425   0.59580   0.34861   0.00000  Uiso   1.00
C279   C     0.43237   0.58572   0.32853   0.00000  Uiso   1.00
C280   C     0.40222   0.63028   0.29777   0.00000  Uiso   1.00
C281   C     0.34146   0.68856   0.24570   0.00000  Uiso   1.00
C282   C     0.52903   0.54313   0.35393   0.00000  Uiso   1.00
C283   C     0.03323   0.98877   0.33833   0.00000  Uiso   1.00
C284   C     0.04920   0.98901   0.31207   0.00000  Uiso   1.00
C285   C     0.07352   0.96551   0.26829   0.00000  Uiso   1.00
C286   C     0.54784   0.58688   0.43391   0.00000  Uiso   1.00
C287   C     0.56787   0.56929   0.48556   0.00000  Uiso   1.00
C288   C     0.59969   0.60635   0.52663   0.00000  Uiso   1.00
C289   C     0.65322   0.65077   0.60703   0.00000  Uiso   1.00
C290   C     0.53318   0.65017   0.36423   0.00000  Uiso   1.00
C291   C     0.48561   0.64853   0.33834   0.00000  Uiso   1.00
C292   C     0.45551   0.69312   0.30761   0.00000  Uiso   1.00
C293   C     0.41360   0.68311   0.28749   0.00000  Uiso   1.00
C294   C     0.54039   0.59586   0.34366   0.00000  Uiso   1.00
C295   C     0.55636   0.59618   0.31742   0.00000  Uiso   1.00
C296   C     0.06058   0.04183   0.30178   0.00000  Uiso   1.00
C297   C     0.55920   0.63961   0.42364   0.00000  Uiso   1.00
C298   C     0.59100   0.67670   0.46464   0.00000  Uiso   1.00
C299   C     0.61107   0.65917   0.51634   0.00000  Uiso   1.00
H300   H     0.50342   0.51204   0.39113   0.00000  Uiso   1.00
H301   H     0.42360   0.54490   0.33648   0.00000  Uiso   1.00
H302   H     0.02444   0.94797   0.34629   0.00000  Uiso   1.00
H303   H     0.55907   0.52848   0.49349   0.00000  Uiso   1.00
H304   H     0.34010   0.60458   0.27134   0.00000  Uiso   1.00
H305   H     0.05275   0.90019   0.29204   0.00000  Uiso   1.00
H306   H     0.62578   0.56996   0.60245   0.00000  Uiso   1.00
H307   H     0.54202   0.69123   0.35624   0.00000  Uiso   1.00
H308   H     0.46431   0.73392   0.29967   0.00000  Uiso   1.00
H309   H     0.56515   0.63699   0.30948   0.00000  Uiso   1.00
H310   H     0.59978   0.71750   0.45668   0.00000  Uiso   1.00
H311   H     0.37314   0.75799   0.24147   0.00000  Uiso   1.00
H312   H     0.08579   0.05361   0.26217   0.00000  Uiso   1.00
H313   H     0.65882   0.72338   0.57257   0.00000  Uiso   1.00
O314   O     0.30480   0.70613   0.21981   0.00000  Uiso   1.00
O315   O     0.08379   0.93799   0.24698   0.00000  Uiso   1.00
O316   O     0.67960   0.66071   0.65422   0.00000  Uiso   1.00
N317   N     0.35854   0.63483   0.27208   0.00000  Uiso   1.00
N318   N     0.05735   0.94374   0.29143   0.00000  Uiso   1.00
N319   N     0.62563   0.60245   0.58163   0.00000  Uiso   1.00
N320   N     0.37632   0.71738   0.25601   0.00000  Uiso   1.00
N321   N     0.07513   0.02630   0.27536   0.00000  Uiso   1.00
N322   N     0.64341   0.68500   0.56556   0.00000  Uiso   1.00
C323   C     0.39646   0.23281   0.37257   0.00000  Uiso   1.00
C324   C     0.91009   0.73732   0.33946   0.00000  Uiso   1.00
C325   C     0.90989   0.78845   0.31619   0.00000  Uiso   1.00
C326   C     0.92354   0.78336   0.28745   0.00000  Uiso   1.00
C327   C     0.94265   0.79861   0.23682   0.00000  Uiso   1.00
C328   C     0.36098   0.18594   0.34549   0.00000  Uiso   1.00
C329   C     0.31949   0.19388   0.32730   0.00000  Uiso   1.00
C330   C     0.29180   0.14554   0.30364   0.00000  Uiso   1.00
C331   C     0.23466   0.08102   0.26239   0.00000  Uiso   1.00
C332   C     0.43517   0.20667   0.42614   0.00000  Uiso   1.00
C333   C     0.45606   0.23204   0.47576   0.00000  Uiso   1.00
C334   C     0.49083   0.20115   0.52001   0.00000  Uiso   1.00
C335   C     0.54890   0.16881   0.60399   0.00000  Uiso   1.00
C336   C     0.42106   0.13285   0.36291   0.00000  Uiso   1.00
C337   C     0.42345   0.18302   0.33422   0.00000  Uiso   1.00
C338   C     0.93711   0.67785   0.30551   0.00000  Uiso   1.00
C339   C     0.93693   0.72897   0.28220   0.00000  Uiso   1.00
C340   C     0.37434   0.13165   0.34024   0.00000  Uiso   1.00
C341   C     0.34670   0.08329   0.31661   0.00000  Uiso   1.00
C342   C     0.30518   0.09115   0.29838   0.00000  Uiso   1.00
C343   C     0.44853   0.15238   0.42090   0.00000  Uiso   1.00
C344   C     0.48328   0.12144   0.46507   0.00000  Uiso   1.00
C345   C     0.50422   0.14675   0.51475   0.00000  Uiso   1.00
H346   H     0.38606   0.27508   0.37666   0.00000  Uiso   1.00
H347   H     0.89955   0.83046   0.32026   0.00000  Uiso   1.00
H348   H     0.30916   0.23590   0.33137   0.00000  Uiso   1.00
H349   H     0.44571   0.27405   0.47981   0.00000  Uiso   1.00
H350   H     0.92038   0.86790   0.25540   0.00000  Uiso   1.00
H351   H     0.22979   0.16852   0.27884   0.00000  Uiso   1.00
H352   H     0.01775   0.74897   0.59186   0.00000  Uiso   1.00
H353   H     0.43146   0.09058   0.35883   0.00000  Uiso   1.00
H354   H     0.44744   0.13583   0.30145   0.00000  Uiso   1.00
H355   H     0.35705   0.04128   0.31256   0.00000  Uiso   1.00
H356   H     0.49361   0.07943   0.46100   0.00000  Uiso   1.00
H357   H     0.95925   0.70994   0.24013   0.00000  Uiso   1.00
H358   H     0.26866   0.01056   0.26357   0.00000  Uiso   1.00
H359   H     0.55662   0.09101   0.57659   0.00000  Uiso   1.00
O360   O     0.94949   0.82201   0.21033   0.00000  Uiso   1.00
O361   O     0.19946   0.06043   0.24109   0.00000  Uiso   1.00
O362   O     0.57724   0.16598   0.65176   0.00000  Uiso   1.00
N363   N     0.92734   0.82452   0.25969   0.00000  Uiso   1.00
N364   N     0.24915   0.13811   0.28159   0.00000  Uiso   1.00
N365   N     0.51836   0.21332   0.57424   0.00000  Uiso   1.00
N366   N     0.94826   0.73952   0.25148   0.00000  Uiso   1.00
N367   N     0.27007   0.05311   0.27338   0.00000  Uiso   1.00
N368   N     0.53927   0.12832   0.56603   0.00000  Uiso   1.00
C369   C     0.28027   0.52317   0.37147   0.00000  Uiso   1.00
C370   C     0.24938   0.47888   0.32717   0.00000  Uiso   1.00
C371   C     0.25951   0.44078   0.30393   0.00000  Uiso   1.00
C372   C     0.22674   0.40366   0.26401   0.00000  Uiso   1.00
C373   C     0.18507   0.33476   0.19766   0.00000  Uiso   1.00
C374   C     0.25834   0.58333   0.35015   0.00000  Uiso   1.00
C375   C     0.27601   0.63306   0.34622   0.00000  Uiso   1.00
C376   C     0.25078   0.68388   0.32565   0.00000  Uiso   1.00
C377   C     0.22303   0.77716   0.29500   0.00000  Uiso   1.00
C378   C     0.28085   0.50854   0.41682   0.00000  Uiso   1.00
C379   C     0.31745   0.49541   0.46896   0.00000  Uiso   1.00
C380   C     0.81117   0.98327   0.50453   0.00000  Uiso   1.00
C381   C     0.81837   0.96043   0.57740   0.00000  Uiso   1.00
C382   C     0.20405   0.52499   0.34191   0.00000  Uiso   1.00
C383   C     0.20798   0.47987   0.31112   0.00000  Uiso   1.00
C384   C     0.17519   0.44280   0.27123   0.00000  Uiso   1.00
C385   C     0.18527   0.40465   0.24793   0.00000  Uiso   1.00
C386   C     0.21694   0.58433   0.33410   0.00000  Uiso   1.00
C387   C     0.19168   0.63508   0.31353   0.00000  Uiso   1.00
C388   C     0.20931   0.68487   0.30957   0.00000  Uiso   1.00
C389   C     0.23945   0.50953   0.40077   0.00000  Uiso   1.00
C390   C     0.23312   0.49742   0.43626   0.00000  Uiso   1.00
C391   C     0.76970   0.98426   0.48845   0.00000  Uiso   1.00
H392   H     0.31250   0.52240   0.38396   0.00000  Uiso   1.00
H393   H     0.29155   0.44003   0.31636   0.00000  Uiso   1.00
H394   H     0.30805   0.63229   0.35865   0.00000  Uiso   1.00
H395   H     0.34948   0.49465   0.48137   0.00000  Uiso   1.00
H396   H     0.25007   0.34916   0.23431   0.00000  Uiso   1.00
H397   H     0.28485   0.75455   0.32351   0.00000  Uiso   1.00
H398   H     0.87222   0.96431   0.58229   0.00000  Uiso   1.00
H399   H     0.17182   0.52576   0.32942   0.00000  Uiso   1.00
H400   H     0.14315   0.44357   0.25882   0.00000  Uiso   1.00
H401   H     0.15965   0.63583   0.30111   0.00000  Uiso   1.00
H402   H     0.70108   0.99819   0.42383   0.00000  Uiso   1.00
H403   H     0.12962   0.35204   0.18761   0.00000  Uiso   1.00
H404   H     0.16441   0.75743   0.27681   0.00000  Uiso   1.00
H405   H     0.75177   0.96719   0.53558   0.00000  Uiso   1.00
O406   O     0.67352   0.79649   0.16549   0.00000  Uiso   1.00
O407   O     0.21917   0.82834   0.28253   0.00000  Uiso   1.00
O408   O     0.83378   0.94755   0.62203   0.00000  Uiso   1.00
N409   N     0.22566   0.36111   0.23301   0.00000  Uiso   1.00
N410   N     0.25818   0.74012   0.31640   0.00000  Uiso   1.00
N411   N     0.83986   0.96878   0.55834   0.00000  Uiso   1.00
N412   N     0.16085   0.36266   0.20788   0.00000  Uiso   1.00
N413   N     0.19337   0.74167   0.29127   0.00000  Uiso   1.00
N414   N     0.77505   0.97033   0.53321   0.00000  Uiso   1.00
C415   C     0.01226   0.05309   0.38314   0.00000  Uiso   1.00
C416   C     0.97425   0.09580   0.34861   0.00000  Uiso   1.00
C417   C     0.93237   0.08572   0.32853   0.00000  Uiso   1.00
C418   C     0.90222   0.13028   0.29777   0.00000  Uiso   1.00
C419   C     0.84146   0.18856   0.24570   0.00000  Uiso   1.00
C420   C     0.02903   0.04313   0.35393   0.00000  Uiso   1.00
C421   C     0.53323   0.48877   0.33833   0.00000  Uiso   1.00
C422   C     0.54920   0.48901   0.31207   0.00000  Uiso   1.00
C423   C     0.57352   0.46551   0.26829   0.00000  Uiso   1.00
C424   C     0.04784   0.08688   0.43391   0.00000  Uiso   1.00
C425   C     0.06787   0.06929   0.48556   0.00000  Uiso   1.00
C426   C     0.09969   0.10635   0.52663   0.00000  Uiso   1.00
C427   C     0.15322   0.15077   0.60703   0.00000  Uiso   1.00
C428   C     0.03318   0.15017   0.36423   0.00000  Uiso   1.00
C429   C     0.98561   0.14853   0.33834   0.00000  Uiso   1.00
C430   C     0.95551   0.19312   0.30761   0.00000  Uiso   1.00
C431   C     0.91360   0.18311   0.28749   0.00000  Uiso   1.00
C432   C     0.04039   0.09586   0.34366   0.00000  Uiso   1.00
C433   C     0.05636   0.09618   0.31742   0.00000  Uiso   1.00
C434   C     0.56058   0.54183   0.30178   0.00000  Uiso   1.00
C435   C     0.05920   0.13961   0.42364   0.00000  Uiso   1.00
C436   C     0.09100   0.17670   0.46464   0.00000  Uiso   1.00
C437   C     0.11107   0.15917   0.51634   0.00000  Uiso   1.00
H438   H     0.00342   0.01204   0.39113   0.00000  Uiso   1.00
H439   H     0.92360   0.04490   0.33648   0.00000  Uiso   1.00
H440   H     0.52444   0.44797   0.34629   0.00000  Uiso   1.00
H441   H     0.05907   0.02848   0.49349   0.00000  Uiso   1.00
H442   H     0.84010   0.10458   0.27134   0.00000  Uiso   1.00
H443   H     0.55275   0.40019   0.29204   0.00000  Uiso   1.00
H444   H     0.12578   0.06996   0.60245   0.00000  Uiso   1.00
H445   H     0.04202   0.19123   0.35624   0.00000  Uiso   1.00
H446   H     0.96431   0.23392   0.29967   0.00000  Uiso   1.00
H447   H     0.06515   0.13699   0.30948   0.00000  Uiso   1.00
H448   H     0.09978   0.21750   0.45668   0.00000  Uiso   1.00
H449   H     0.87314   0.25799   0.24147   0.00000  Uiso   1.00
H450   H     0.58579   0.55361   0.26217   0.00000  Uiso   1.00
H451   H     0.15882   0.22338   0.57257   0.00000  Uiso   1.00
O452   O     0.80480   0.20613   0.21981   0.00000  Uiso   1.00
O453   O     0.58379   0.43799   0.24698   0.00000  Uiso   1.00
O454   O     0.17960   0.16071   0.65422   0.00000  Uiso   1.00
N455   N     0.85854   0.13483   0.27208   0.00000  Uiso   1.00
N456   N     0.55735   0.44374   0.29143   0.00000  Uiso   1.00
N457   N     0.12563   0.10245   0.58163   0.00000  Uiso   1.00
N458   N     0.87632   0.21738   0.25601   0.00000  Uiso   1.00
N459   N     0.57513   0.52630   0.27536   0.00000  Uiso   1.00
N460   N     0.14341   0.18500   0.56556   0.00000  Uiso   1.00
C461   C     0.89646   0.73281   0.37257   0.00000  Uiso   1.00
C462   C     0.41009   0.23732   0.33946   0.00000  Uiso   1.00
C463   C     0.40989   0.28845   0.31619   0.00000  Uiso   1.00
C464   C     0.42354   0.28336   0.28745   0.00000  Uiso   1.00
C465   C     0.44265   0.29861   0.23682   0.00000  Uiso   1.00
C466   C     0.86098   0.68594   0.34549   0.00000  Uiso   1.00
C467   C     0.81949   0.69388   0.32730   0.00000  Uiso   1.00
C468   C     0.79180   0.64554   0.30364   0.00000  Uiso   1.00
C469   C     0.73466   0.58102   0.26239   0.00000  Uiso   1.00
C470   C     0.93517   0.70667   0.42614   0.00000  Uiso   1.00
C471   C     0.95606   0.73204   0.47576   0.00000  Uiso   1.00
C472   C     0.99083   0.70115   0.52001   0.00000  Uiso   1.00
C473   C     0.04890   0.66881   0.60399   0.00000  Uiso   1.00
C474   C     0.92106   0.63285   0.36291   0.00000  Uiso   1.00
C475   C     0.92345   0.68302   0.33422   0.00000  Uiso   1.00
C476   C     0.43711   0.17785   0.30551   0.00000  Uiso   1.00
C477   C     0.43693   0.22897   0.28220   0.00000  Uiso   1.00
C478   C     0.87434   0.63165   0.34024   0.00000  Uiso   1.00
C479   C     0.84670   0.58329   0.31661   0.00000  Uiso   1.00
C480   C     0.80518   0.59115   0.29838   0.00000  Uiso   1.00
C481   C     0.94853   0.65238   0.42090   0.00000  Uiso   1.00
C482   C     0.98328   0.62144   0.46507   0.00000  Uiso   1.00
C483   C     0.00422   0.64675   0.51475   0.00000  Uiso   1.00
H484   H     0.88606   0.77508   0.37666   0.00000  Uiso   1.00
H485   H     0.39955   0.33046   0.32026   0.00000  Uiso   1.00
H486   H     0.80916   0.73590   0.33137   0.00000  Uiso   1.00
H487   H     0.94571   0.77405   0.47981   0.00000  Uiso   1.00
H488   H     0.42038   0.36790   0.25540   0.00000  Uiso   1.00
H489   H     0.72979   0.66852   0.27884   0.00000  Uiso   1.00
H490   H     0.51775   0.24897   0.59186   0.00000  Uiso   1.00
H491   H     0.93146   0.59058   0.35883   0.00000  Uiso   1.00
H492   H     0.94744   0.63583   0.30145   0.00000  Uiso   1.00
H493   H     0.85705   0.54128   0.31256   0.00000  Uiso   1.00
H494   H     0.99361   0.57943   0.46100   0.00000  Uiso   1.00
H495   H     0.45925   0.20994   0.24013   0.00000  Uiso   1.00
H496   H     0.76866   0.51056   0.26357   0.00000  Uiso   1.00
H497   H     0.05662   0.59101   0.57659   0.00000  Uiso   1.00
O498   O     0.44949   0.32201   0.21033   0.00000  Uiso   1.00
O499   O     0.69946   0.56043   0.24109   0.00000  Uiso   1.00
O500   O     0.07724   0.66598   0.65176   0.00000  Uiso   1.00
N501   N     0.42734   0.32452   0.25969   0.00000  Uiso   1.00
N502   N     0.74915   0.63811   0.28159   0.00000  Uiso   1.00
N503   N     0.01836   0.71332   0.57424   0.00000  Uiso   1.00
N504   N     0.44826   0.23952   0.25148   0.00000  Uiso   1.00
N505   N     0.77007   0.55311   0.27338   0.00000  Uiso   1.00
N506   N     0.03927   0.62832   0.56603   0.00000  Uiso   1.00
C507   C     0.78027   0.02317   0.37147   0.00000  Uiso   1.00
C508   C     0.74938   0.97888   0.32717   0.00000  Uiso   1.00
C509   C     0.75951   0.94078   0.30393   0.00000  Uiso   1.00
C510   C     0.72674   0.90366   0.26401   0.00000  Uiso   1.00
C511   C     0.68507   0.83476   0.19766   0.00000  Uiso   1.00
C512   C     0.75834   0.08333   0.35015   0.00000  Uiso   1.00
C513   C     0.77601   0.13306   0.34622   0.00000  Uiso   1.00
C514   C     0.75078   0.18388   0.32565   0.00000  Uiso   1.00
C515   C     0.72303   0.27716   0.29500   0.00000  Uiso   1.00
C516   C     0.78085   0.00854   0.41682   0.00000  Uiso   1.00
C517   C     0.81745   0.99541   0.46896   0.00000  Uiso   1.00
C518   C     0.31117   0.48327   0.50453   0.00000  Uiso   1.00
C519   C     0.31837   0.46043   0.57740   0.00000  Uiso   1.00
C520   C     0.70405   0.02499   0.34191   0.00000  Uiso   1.00
C521   C     0.70798   0.97987   0.31112   0.00000  Uiso   1.00
C522   C     0.67519   0.94280   0.27123   0.00000  Uiso   1.00
C523   C     0.68527   0.90465   0.24793   0.00000  Uiso   1.00
C524   C     0.71694   0.08433   0.33410   0.00000  Uiso   1.00
C525   C     0.69168   0.13508   0.31353   0.00000  Uiso   1.00
C526   C     0.70931   0.18487   0.30957   0.00000  Uiso   1.00
C527   C     0.73945   0.00953   0.40077   0.00000  Uiso   1.00
C528   C     0.73312   0.99742   0.43626   0.00000  Uiso   1.00
C529   C     0.26970   0.48426   0.48845   0.00000  Uiso   1.00
H530   H     0.81250   0.02240   0.38396   0.00000  Uiso   1.00
H531   H     0.79155   0.94003   0.31636   0.00000  Uiso   1.00
H532   H     0.80805   0.13229   0.35865   0.00000  Uiso   1.00
H533   H     0.84948   0.99465   0.48137   0.00000  Uiso   1.00
H534   H     0.75007   0.84916   0.23431   0.00000  Uiso   1.00
H535   H     0.78485   0.25455   0.32351   0.00000  Uiso   1.00
H536   H     0.37222   0.46431   0.58229   0.00000  Uiso   1.00
H537   H     0.67182   0.02576   0.32942   0.00000  Uiso   1.00
H538   H     0.64315   0.94357   0.25882   0.00000  Uiso   1.00
H539   H     0.65965   0.13583   0.30111   0.00000  Uiso   1.00
H540   H     0.20108   0.49819   0.42383   0.00000  Uiso   1.00
H541   H     0.62962   0.85204   0.18761   0.00000  Uiso   1.00
H542   H     0.66441   0.25743   0.27681   0.00000  Uiso   1.00
H543   H     0.25177   0.46719   0.53558   0.00000  Uiso   1.00
O544   O     0.17352   0.29649   0.16549   0.00000  Uiso   1.00
O545   O     0.71917   0.32834   0.28253   0.00000  Uiso   1.00
O546   O     0.33378   0.44755   0.62203   0.00000  Uiso   1.00
N547   N     0.72566   0.86111   0.23301   0.00000  Uiso   1.00
N548   N     0.75818   0.24012   0.31640   0.00000  Uiso   1.00
N549   N     0.33986   0.46878   0.55834   0.00000  Uiso   1.00
N550   N     0.66085   0.86266   0.20788   0.00000  Uiso   1.00
N551   N     0.69337   0.24167   0.29127   0.00000  Uiso   1.00
N552   N     0.27505   0.47033   0.53321   0.00000  Uiso   1.00
C553   C     0.51226   0.44691   0.88314   0.00000  Uiso   1.00
C554   C     0.47425   0.40420   0.84861   0.00000  Uiso   1.00
C555   C     0.43237   0.41428   0.82853   0.00000  Uiso   1.00
C556   C     0.40222   0.36972   0.79777   0.00000  Uiso   1.00
C557   C     0.34146   0.31144   0.74570   0.00000  Uiso   1.00
C558   C     0.52903   0.45687   0.85393   0.00000  Uiso   1.00
C559   C     0.03323   0.01123   0.83833   0.00000  Uiso   1.00
C560   C     0.04920   0.01099   0.81207   0.00000  Uiso   1.00
C561   C     0.07352   0.03449   0.76829   0.00000  Uiso   1.00
C562   C     0.54784   0.41312   0.93391   0.00000  Uiso   1.00
C563   C     0.56787   0.43071   0.98556   0.00000  Uiso   1.00
C564   C     0.59969   0.39365   0.02663   0.00000  Uiso   1.00
C565   C     0.65322   0.34923   0.10703   0.00000  Uiso   1.00
C566   C     0.53318   0.34983   0.86423   0.00000  Uiso   1.00
C567   C     0.48561   0.35147   0.83834   0.00000  Uiso   1.00
C568   C     0.45551   0.30688   0.80761   0.00000  Uiso   1.00
C569   C     0.41360   0.31689   0.78749   0.00000  Uiso   1.00
C570   C     0.54039   0.40414   0.84366   0.00000  Uiso   1.00
C571   C     0.55636   0.40382   0.81742   0.00000  Uiso   1.00
C572   C     0.06058   0.95817   0.80178   0.00000  Uiso   1.00
C573   C     0.55920   0.36039   0.92364   0.00000  Uiso   1.00
C574   C     0.59100   0.32330   0.96464   0.00000  Uiso   1.00
C575   C     0.61107   0.34083   0.01634   0.00000  Uiso   1.00
H576   H     0.50342   0.48796   0.89113   0.00000  Uiso   1.00
H577   H     0.42360   0.45510   0.83648   0.00000  Uiso   1.00
H578   H     0.02444   0.05203   0.84629   0.00000  Uiso   1.00
H579   H     0.55907   0.47152   0.99349   0.00000  Uiso   1.00
H580   H     0.34010   0.39542   0.77134   0.00000  Uiso   1.00
H581   H     0.05275   0.09981   0.79204   0.00000  Uiso   1.00
H582   H     0.62578   0.43004   0.10245   0.00000  Uiso   1.00
H583   H     0.54202   0.30877   0.85624   0.00000  Uiso   1.00
H584   H     0.46431   0.26608   0.79967   0.00000  Uiso   1.00
H585   H     0.56515   0.36301   0.80948   0.00000  Uiso   1.00
H586   H     0.59978   0.28250   0.95668   0.00000  Uiso   1.00
H587   H     0.37314   0.24201   0.74147   0.00000  Uiso   1.00
H588   H     0.08579   0.94639   0.76217   0.00000  Uiso   1.00
H589   H     0.65882   0.27662   0.07257   0.00000  Uiso   1.00
O590   O     0.30480   0.29387   0.71981   0.00000  Uiso   1.00
O591   O     0.08379   0.06201   0.74698   0.00000  Uiso   1.00
O592   O     0.67960   0.33929   0.15422   0.00000  Uiso   1.00
N593   N     0.35854   0.36517   0.77208   0.00000  Uiso   1.00
N594   N     0.05735   0.05626   0.79143   0.00000  Uiso   1.00
N595   N     0.62563   0.39755   0.08163   0.00000  Uiso   1.00
N596   N     0.37632   0.28262   0.75601   0.00000  Uiso   1.00
N597   N     0.07513   0.97370   0.77536   0.00000  Uiso   1.00
N598   N     0.64341   0.31500   0.06556   0.00000  Uiso   1.00
C599   C     0.39646   0.76719   0.87257   0.00000  Uiso   1.00
C600   C     0.91009   0.26268   0.83946   0.00000  Uiso   1.00
C601   C     0.90989   0.21155   0.81619   0.00000  Uiso   1.00
C602   C     0.92354   0.21664   0.78745   0.00000  Uiso   1.00
C603   C     0.94265   0.20139   0.73682   0.00000  Uiso   1.00
C604   C     0.36098   0.81406   0.84549   0.00000  Uiso   1.00
C605   C     0.31949   0.80612   0.82730   0.00000  Uiso   1.00
C606   C     0.29180   0.85446   0.80364   0.00000  Uiso   1.00
C607   C     0.23466   0.91898   0.76239   0.00000  Uiso   1.00
C608   C     0.43517   0.79333   0.92614   0.00000  Uiso   1.00
C609   C     0.45606   0.76796   0.97576   0.00000  Uiso   1.00
C610   C     0.49083   0.79885   0.02001   0.00000  Uiso   1.00
C611   C     0.54890   0.83119   0.10399   0.00000  Uiso   1.00
C612   C     0.42106   0.86715   0.86291   0.00000  Uiso   1.00
C613   C     0.42345   0.81698   0.83422   0.00000  Uiso   1.00
C614   C     0.93711   0.32215   0.80551   0.00000  Uiso   1.00
C615   C     0.93693   0.27103   0.78220   0.00000  Uiso   1.00
C616   C     0.37434   0.86835   0.84024   0.00000  Uiso   1.00
C617   C     0.34670   0.91671   0.81661   0.00000  Uiso   1.00
C618   C     0.30518   0.90885   0.79838   0.00000  Uiso   1.00
C619   C     0.44853   0.84762   0.92090   0.00000  Uiso   1.00
C620   C     0.48328   0.87856   0.96507   0.00000  Uiso   1.00
C621   C     0.50422   0.85325   0.01475   0.00000  Uiso   1.00
H622   H     0.38606   0.72492   0.87666   0.00000  Uiso   1.00
H623   H     0.89955   0.16954   0.82026   0.00000  Uiso   1.00
H624   H     0.30916   0.76410   0.83137   0.00000  Uiso   1.00
H625   H     0.44571   0.72595   0.97981   0.00000  Uiso   1.00
H626   H     0.92038   0.13210   0.75540   0.00000  Uiso   1.00
H627   H     0.22979   0.83148   0.77884   0.00000  Uiso   1.00
H628   H     0.01775   0.25103   0.09186   0.00000  Uiso   1.00
H629   H     0.43146   0.90942   0.85883   0.00000  Uiso   1.00
H630   H     0.44744   0.86417   0.80145   0.00000  Uiso   1.00
H631   H     0.35705   0.95872   0.81256   0.00000  Uiso   1.00
H632   H     0.49361   0.92057   0.96100   0.00000  Uiso   1.00
H633   H     0.95925   0.29006   0.74013   0.00000  Uiso   1.00
H634   H     0.26866   0.98944   0.76357   0.00000  Uiso   1.00
H635   H     0.55662   0.90899   0.07659   0.00000  Uiso   1.00
O636   O     0.94949   0.17799   0.71033   0.00000  Uiso   1.00
O637   O     0.19946   0.93957   0.74109   0.00000  Uiso   1.00
O638   O     0.57724   0.83402   0.15176   0.00000  Uiso   1.00
N639   N     0.92734   0.17548   0.75969   0.00000  Uiso   1.00
N640   N     0.24915   0.86189   0.78159   0.00000  Uiso   1.00
N641   N     0.51836   0.78668   0.07424   0.00000  Uiso   1.00
N642   N     0.94826   0.26048   0.75148   0.00000  Uiso   1.00
N643   N     0.27007   0.94689   0.77338   0.00000  Uiso   1.00
N644   N     0.53927   0.87168   0.06603   0.00000  Uiso   1.00
C645   C     0.28027   0.47683   0.87147   0.00000  Uiso   1.00
C646   C     0.24938   0.52112   0.82717   0.00000  Uiso   1.00
C647   C     0.25951   0.55922   0.80393   0.00000  Uiso   1.00
C648   C     0.22674   0.59634   0.76401   0.00000  Uiso   1.00
C649   C     0.18507   0.66524   0.69766   0.00000  Uiso   1.00
C650   C     0.25834   0.41667   0.85015   0.00000  Uiso   1.00
C651   C     0.27601   0.36694   0.84622   0.00000  Uiso   1.00
C652   C     0.25078   0.31612   0.82565   0.00000  Uiso   1.00
C653   C     0.22303   0.22284   0.79500   0.00000  Uiso   1.00
C654   C     0.28085   0.49146   0.91682   0.00000  Uiso   1.00
C655   C     0.31745   0.50459   0.96896   0.00000  Uiso   1.00
C656   C     0.81117   0.01673   0.00453   0.00000  Uiso   1.00
C657   C     0.81837   0.03957   0.07740   0.00000  Uiso   1.00
C658   C     0.20405   0.47501   0.84191   0.00000  Uiso   1.00
C659   C     0.20798   0.52013   0.81112   0.00000  Uiso   1.00
C660   C     0.17519   0.55720   0.77123   0.00000  Uiso   1.00
C661   C     0.18527   0.59535   0.74793   0.00000  Uiso   1.00
C662   C     0.21694   0.41567   0.83410   0.00000  Uiso   1.00
C663   C     0.19168   0.36492   0.81353   0.00000  Uiso   1.00
C664   C     0.20931   0.31513   0.80957   0.00000  Uiso   1.00
C665   C     0.23945   0.49047   0.90077   0.00000  Uiso   1.00
C666   C     0.23312   0.50258   0.93626   0.00000  Uiso   1.00
C667   C     0.76970   0.01574   0.98845   0.00000  Uiso   1.00
H668   H     0.31250   0.47760   0.88396   0.00000  Uiso   1.00
H669   H     0.29155   0.55997   0.81636   0.00000  Uiso   1.00
H670   H     0.30805   0.36771   0.85865   0.00000  Uiso   1.00
H671   H     0.34948   0.50535   0.98137   0.00000  Uiso   1.00
H672   H     0.25007   0.65084   0.73431   0.00000  Uiso   1.00
H673   H     0.28485   0.24545   0.82351   0.00000  Uiso   1.00
H674   H     0.87222   0.03569   0.08229   0.00000  Uiso   1.00
H675   H     0.17182   0.47424   0.82942   0.00000  Uiso   1.00
H676   H     0.14315   0.55643   0.75882   0.00000  Uiso   1.00
H677   H     0.15965   0.36417   0.80111   0.00000  Uiso   1.00
H678   H     0.70108   0.00181   0.92383   0.00000  Uiso   1.00
H679   H     0.12962   0.64796   0.68761   0.00000  Uiso   1.00
H680   H     0.16441   0.24257   0.77681   0.00000  Uiso   1.00
H681   H     0.75177   0.03281   0.03558   0.00000  Uiso   1.00
O682   O     0.67352   0.20351   0.66549   0.00000  Uiso   1.00
O683   O     0.21917   0.17166   0.78253   0.00000  Uiso   1.00
O684   O     0.83378   0.05245   0.12203   0.00000  Uiso   1.00
N685   N     0.22566   0.63889   0.73301   0.00000  Uiso   1.00
N686   N     0.25818   0.25988   0.81640   0.00000  Uiso   1.00
N687   N     0.83986   0.03122   0.05834   0.00000  Uiso   1.00
N688   N     0.16085   0.63734   0.70788   0.00000  Uiso   1.00
N689   N     0.19337   0.25833   0.79127   0.00000  Uiso   1.00
N690   N     0.77505   0.02967   0.03321   0.00000  Uiso   1.00
C691   C     0.01226   0.94691   0.88314   0.00000  Uiso   1.00
C692   C     0.97425   0.90420   0.84861   0.00000  Uiso   1.00
C693   C     0.93237   0.91428   0.82853   0.00000  Uiso   1.00
C694   C     0.90222   0.86972   0.79777   0.00000  Uiso   1.00
C695   C     0.84146   0.81144   0.74570   0.00000  Uiso   1.00
C696   C     0.02903   0.95687   0.85393   0.00000  Uiso   1.00
C697   C     0.53323   0.51123   0.83833   0.00000  Uiso   1.00
C698   C     0.54920   0.51099   0.81207   0.00000  Uiso   1.00
C699   C     0.57352   0.53449   0.76829   0.00000  Uiso   1.00
C700   C     0.04784   0.91312   0.93391   0.00000  Uiso   1.00
C701   C     0.06787   0.93071   0.98556   0.00000  Uiso   1.00
C702   C     0.09969   0.89365   0.02663   0.00000  Uiso   1.00
C703   C     0.15322   0.84923   0.10703   0.00000  Uiso   1.00
C704   C     0.03318   0.84983   0.86423   0.00000  Uiso   1.00
C705   C     0.98561   0.85147   0.83834   0.00000  Uiso   1.00
C706   C     0.95551   0.80688   0.80761   0.00000  Uiso   1.00
C707   C     0.91360   0.81689   0.78749   0.00000  Uiso   1.00
C708   C     0.04039   0.90414   0.84366   0.00000  Uiso   1.00
C709   C     0.05636   0.90382   0.81742   0.00000  Uiso   1.00
C710   C     0.56058   0.45817   0.80178   0.00000  Uiso   1.00
C711   C     0.05920   0.86039   0.92364   0.00000  Uiso   1.00
C712   C     0.09100   0.82330   0.96464   0.00000  Uiso   1.00
C713   C     0.11107   0.84083   0.01634   0.00000  Uiso   1.00
H714   H     0.00342   0.98796   0.89113   0.00000  Uiso   1.00
H715   H     0.92360   0.95510   0.83648   0.00000  Uiso   1.00
H716   H     0.52444   0.55203   0.84629   0.00000  Uiso   1.00
H717   H     0.05907   0.97152   0.99349   0.00000  Uiso   1.00
H718   H     0.84010   0.89542   0.77134   0.00000  Uiso   1.00
H719   H     0.55275   0.59981   0.79204   0.00000  Uiso   1.00
H720   H     0.12578   0.93004   0.10245   0.00000  Uiso   1.00
H721   H     0.04202   0.80877   0.85624   0.00000  Uiso   1.00
H722   H     0.96431   0.76608   0.79967   0.00000  Uiso   1.00
H723   H     0.06515   0.86301   0.80948   0.00000  Uiso   1.00
H724   H     0.09978   0.78250   0.95668   0.00000  Uiso   1.00
H725   H     0.87314   0.74201   0.74147   0.00000  Uiso   1.00
H726   H     0.58579   0.44639   0.76217   0.00000  Uiso   1.00
H727   H     0.15882   0.77662   0.07257   0.00000  Uiso   1.00
O728   O     0.80480   0.79387   0.71981   0.00000  Uiso   1.00
O729   O     0.58379   0.56201   0.74698   0.00000  Uiso   1.00
O730   O     0.17960   0.83929   0.15422   0.00000  Uiso   1.00
N731   N     0.85854   0.86517   0.77208   0.00000  Uiso   1.00
N732   N     0.55735   0.55626   0.79143   0.00000  Uiso   1.00
N733   N     0.12563   0.89755   0.08163   0.00000  Uiso   1.00
N734   N     0.87632   0.78262   0.75601   0.00000  Uiso   1.00
N735   N     0.57513   0.47370   0.77536   0.00000  Uiso   1.00
N736   N     0.14341   0.81500   0.06556   0.00000  Uiso   1.00
C737   C     0.89646   0.26719   0.87257   0.00000  Uiso   1.00
C738   C     0.41009   0.76268   0.83946   0.00000  Uiso   1.00
C739   C     0.40989   0.71155   0.81619   0.00000  Uiso   1.00
C740   C     0.42354   0.71664   0.78745   0.00000  Uiso   1.00
C741   C     0.44265   0.70139   0.73682   0.00000  Uiso   1.00
C742   C     0.86098   0.31406   0.84549   0.00000  Uiso   1.00
C743   C     0.81949   0.30612   0.82730   0.00000  Uiso   1.00
C744   C     0.79180   0.35446   0.80364   0.00000  Uiso   1.00
C745   C     0.73466   0.41898   0.76239   0.00000  Uiso   1.00
C746   C     0.93517   0.29333   0.92614   0.00000  Uiso   1.00
C747   C     0.95606   0.26796   0.97576   0.00000  Uiso   1.00
C748   C     0.99083   0.29885   0.02001   0.00000  Uiso   1.00
C749   C     0.04890   0.33119   0.10399   0.00000  Uiso   1.00
C750   C     0.92106   0.36715   0.86291   0.00000  Uiso   1.00
C751   C     0.92345   0.31698   0.83422   0.00000  Uiso   1.00
C752   C     0.43711   0.82215   0.80551   0.00000  Uiso   1.00
C753   C     0.43693   0.77103   0.78220   0.00000  Uiso   1.00
C754   C     0.87434   0.36835   0.84024   0.00000  Uiso   1.00
C755   C     0.84670   0.41671   0.81661   0.00000  Uiso   1.00
C756   C     0.80518   0.40885   0.79838   0.00000  Uiso   1.00
C757   C     0.94853   0.34762   0.92090   0.00000  Uiso   1.00
C758   C     0.98328   0.37856   0.96507   0.00000  Uiso   1.00
C759   C     0.00422   0.35325   0.01475   0.00000  Uiso   1.00
H760   H     0.88606   0.22492   0.87666   0.00000  Uiso   1.00
H761   H     0.39955   0.66954   0.82026   0.00000  Uiso   1.00
H762   H     0.80916   0.26410   0.83137   0.00000  Uiso   1.00
H763   H     0.94571   0.22595   0.97981   0.00000  Uiso   1.00
H764   H     0.42038   0.63210   0.75540   0.00000  Uiso   1.00
H765   H     0.72979   0.33148   0.77884   0.00000  Uiso   1.00
H766   H     0.51775   0.75103   0.09186   0.00000  Uiso   1.00
H767   H     0.93146   0.40942   0.85883   0.00000  Uiso   1.00
H768   H     0.94744   0.36417   0.80145   0.00000  Uiso   1.00
H769   H     0.85705   0.45872   0.81256   0.00000  Uiso   1.00
H770   H     0.99361   0.42057   0.96100   0.00000  Uiso   1.00
H771   H     0.45925   0.79006   0.74013   0.00000  Uiso   1.00
H772   H     0.76866   0.48944   0.76357   0.00000  Uiso   1.00
H773   H     0.05662   0.40899   0.07659   0.00000  Uiso   1.00
O774   O     0.44949   0.67799   0.71033   0.00000  Uiso   1.00
O775   O     0.69946   0.43957   0.74109   0.00000  Uiso   1.00
O776   O     0.07724   0.33402   0.15176   0.00000  Uiso   1.00
N777   N     0.42734   0.67548   0.75969   0.00000  Uiso   1.00
N778   N     0.74915   0.36189   0.78159   0.00000  Uiso   1.00
N779   N     0.01836   0.28668   0.07424   0.00000  Uiso   1.00
N780   N     0.44826   0.76048   0.75148   0.00000  Uiso   1.00
N781   N     0.77007   0.44689   0.77338   0.00000  Uiso   1.00
N782   N     0.03927   0.37168   0.06603   0.00000  Uiso   1.00
C783   C     0.78027   0.97683   0.87147   0.00000  Uiso   1.00
C784   C     0.74938   0.02112   0.82717   0.00000  Uiso   1.00
C785   C     0.75951   0.05922   0.80393   0.00000  Uiso   1.00
C786   C     0.72674   0.09634   0.76401   0.00000  Uiso   1.00
C787   C     0.68507   0.16524   0.69766   0.00000  Uiso   1.00
C788   C     0.75834   0.91667   0.85015   0.00000  Uiso   1.00
C789   C     0.77601   0.86694   0.84622   0.00000  Uiso   1.00
C790   C     0.75078   0.81612   0.82565   0.00000  Uiso   1.00
C791   C     0.72303   0.72284   0.79500   0.00000  Uiso   1.00
C792   C     0.78085   0.99146   0.91682   0.00000  Uiso   1.00
C793   C     0.81745   0.00459   0.96896   0.00000  Uiso   1.00
C794   C     0.31117   0.51673   0.00453   0.00000  Uiso   1.00
C795   C     0.31837   0.53957   0.07740   0.00000  Uiso   1.00
C796   C     0.70405   0.97501   0.84191   0.00000  Uiso   1.00
C797   C     0.70798   0.02013   0.81112   0.00000  Uiso   1.00
C798   C     0.67519   0.05720   0.77123   0.00000  Uiso   1.00
C799   C     0.68527   0.09535   0.74793   0.00000  Uiso   1.00
C800   C     0.71694   0.91567   0.83410   0.00000  Uiso   1.00
C801   C     0.69168   0.86492   0.81353   0.00000  Uiso   1.00
C802   C     0.70931   0.81513   0.80957   0.00000  Uiso   1.00
C803   C     0.73945   0.99047   0.90077   0.00000  Uiso   1.00
C804   C     0.73312   0.00258   0.93626   0.00000  Uiso   1.00
C805   C     0.26970   0.51574   0.98845   0.00000  Uiso   1.00
H806   H     0.81250   0.97760   0.88396   0.00000  Uiso   1.00
H807   H     0.79155   0.05997   0.81636   0.00000  Uiso   1.00
H808   H     0.80805   0.86771   0.85865   0.00000  Uiso   1.00
H809   H     0.84948   0.00535   0.98137   0.00000  Uiso   1.00
H810   H     0.75007   0.15084   0.73431   0.00000  Uiso   1.00
H811   H     0.78485   0.74545   0.82351   0.00000  Uiso   1.00
H812   H     0.37222   0.53569   0.08229   0.00000  Uiso   1.00
H813   H     0.67182   0.97424   0.82942   0.00000  Uiso   1.00
H814   H     0.64315   0.05643   0.75882   0.00000  Uiso   1.00
H815   H     0.65965   0.86417   0.80111   0.00000  Uiso   1.00
H816   H     0.20108   0.50181   0.92383   0.00000  Uiso   1.00
H817   H     0.62962   0.14796   0.68761   0.00000  Uiso   1.00
H818   H     0.66441   0.74257   0.77681   0.00000  Uiso   1.00
H819   H     0.25177   0.53281   0.03558   0.00000  Uiso   1.00
O820   O     0.17352   0.70351   0.66549   0.00000  Uiso   1.00
O821   O     0.71917   0.67166   0.78253   0.00000  Uiso   1.00
O822   O     0.33378   0.55245   0.12203   0.00000  Uiso   1.00
N823   N     0.72566   0.13889   0.73301   0.00000  Uiso   1.00
N824   N     0.75818   0.75988   0.81640   0.00000  Uiso   1.00
N825   N     0.33986   0.53122   0.05834   0.00000  Uiso   1.00
N826   N     0.66085   0.13734   0.70788   0.00000  Uiso   1.00
N827   N     0.69337   0.75833   0.79127   0.00000  Uiso   1.00
N828   N     0.27505   0.52967   0.03321   0.00000  Uiso   1.00
C829   C     0.48774   0.44691   0.61686   0.00000  Uiso   1.00
C830   C     0.52575   0.40420   0.65139   0.00000  Uiso   1.00
C831   C     0.56763   0.41428   0.67147   0.00000  Uiso   1.00
C832   C     0.59778   0.36972   0.70223   0.00000  Uiso   1.00
C833   C     0.65854   0.31144   0.75430   0.00000  Uiso   1.00
C834   C     0.47097   0.45687   0.64607   0.00000  Uiso   1.00
C835   C     0.96677   0.01123   0.66167   0.00000  Uiso   1.00
C836   C     0.95080   0.01099   0.68793   0.00000  Uiso   1.00
C837   C     0.92648   0.03449   0.73171   0.00000  Uiso   1.00
C838   C     0.45216   0.41312   0.56609   0.00000  Uiso   1.00
C839   C     0.43213   0.43071   0.51444   0.00000  Uiso   1.00
C840   C     0.40031   0.39365   0.47337   0.00000  Uiso   1.00
C841   C     0.34678   0.34923   0.39297   0.00000  Uiso   1.00
C842   C     0.46682   0.34983   0.63577   0.00000  Uiso   1.00
C843   C     0.51439   0.35147   0.66166   0.00000  Uiso   1.00
C844   C     0.54449   0.30688   0.69239   0.00000  Uiso   1.00
C845   C     0.58640   0.31689   0.71251   0.00000  Uiso   1.00
C846   C     0.45961   0.40414   0.65634   0.00000  Uiso   1.00
C847   C     0.44364   0.40382   0.68258   0.00000  Uiso   1.00
C848   C     0.93942   0.95817   0.69822   0.00000  Uiso   1.00
C849   C     0.44080   0.36039   0.57636   0.00000  Uiso   1.00
C850   C     0.40900   0.32330   0.53536   0.00000  Uiso   1.00
C851   C     0.38893   0.34083   0.48366   0.00000  Uiso   1.00
H852   H     0.49658   0.48796   0.60887   0.00000  Uiso   1.00
H853   H     0.57640   0.45510   0.66352   0.00000  Uiso   1.00
H854   H     0.97556   0.05203   0.65371   0.00000  Uiso   1.00
H855   H     0.44093   0.47152   0.50651   0.00000  Uiso   1.00
H856   H     0.65990   0.39542   0.72866   0.00000  Uiso   1.00
H857   H     0.94725   0.09981   0.70796   0.00000  Uiso   1.00
H858   H     0.37422   0.43004   0.39755   0.00000  Uiso   1.00
H859   H     0.45798   0.30877   0.64376   0.00000  Uiso   1.00
H860   H     0.53569   0.26608   0.70033   0.00000  Uiso   1.00
H861   H     0.43485   0.36301   0.69052   0.00000  Uiso   1.00
H862   H     0.40022   0.28250   0.54332   0.00000  Uiso   1.00
H863   H     0.62686   0.24201   0.75853   0.00000  Uiso   1.00
H864   H     0.91421   0.94639   0.73783   0.00000  Uiso   1.00
H865   H     0.34118   0.27662   0.42743   0.00000  Uiso   1.00
O866   O     0.69520   0.29387   0.78019   0.00000  Uiso   1.00
O867   O     0.91621   0.06201   0.75302   0.00000  Uiso   1.00
O868   O     0.32040   0.33929   0.34578   0.00000  Uiso   1.00
N869   N     0.64146   0.36517   0.72792   0.00000  Uiso   1.00
N870   N     0.94265   0.05626   0.70857   0.00000  Uiso   1.00
N871   N     0.37437   0.39755   0.41837   0.00000  Uiso   1.00
N872   N     0.62368   0.28262   0.74399   0.00000  Uiso   1.00
N873   N     0.92487   0.97370   0.72464   0.00000  Uiso   1.00
N874   N     0.35659   0.31500   0.43444   0.00000  Uiso   1.00
C875   C     0.60354   0.76719   0.62743   0.00000  Uiso   1.00
C876   C     0.08991   0.26268   0.66054   0.00000  Uiso   1.00
C877   C     0.09011   0.21155   0.68381   0.00000  Uiso   1.00
C878   C     0.07646   0.21664   0.71255   0.00000  Uiso   1.00
C879   C     0.05735   0.20139   0.76318   0.00000  Uiso   1.00
C880   C     0.63902   0.81406   0.65451   0.00000  Uiso   1.00
C881   C     0.68051   0.80612   0.67270   0.00000  Uiso   1.00
C882   C     0.70820   0.85446   0.69636   0.00000  Uiso   1.00
C883   C     0.76534   0.91898   0.73761   0.00000  Uiso   1.00
C884   C     0.56483   0.79333   0.57386   0.00000  Uiso   1.00
C885   C     0.54394   0.76796   0.52424   0.00000  Uiso   1.00
C886   C     0.50917   0.79885   0.47999   0.00000  Uiso   1.00
C887   C     0.45110   0.83119   0.39601   0.00000  Uiso   1.00
C888   C     0.57894   0.86715   0.63709   0.00000  Uiso   1.00
C889   C     0.57655   0.81698   0.66578   0.00000  Uiso   1.00
C890   C     0.06289   0.32215   0.69449   0.00000  Uiso   1.00
C891   C     0.06307   0.27103   0.71780   0.00000  Uiso   1.00
C892   C     0.62566   0.86835   0.65976   0.00000  Uiso   1.00
C893   C     0.65330   0.91671   0.68339   0.00000  Uiso   1.00
C894   C     0.69482   0.90885   0.70162   0.00000  Uiso   1.00
C895   C     0.55147   0.84762   0.57910   0.00000  Uiso   1.00
C896   C     0.51672   0.87856   0.53493   0.00000  Uiso   1.00
C897   C     0.49578   0.85325   0.48525   0.00000  Uiso   1.00
H898   H     0.61394   0.72492   0.62334   0.00000  Uiso   1.00
H899   H     0.10045   0.16954   0.67974   0.00000  Uiso   1.00
H900   H     0.69084   0.76410   0.66863   0.00000  Uiso   1.00
H901   H     0.55429   0.72595   0.52019   0.00000  Uiso   1.00
H902   H     0.07962   0.13210   0.74460   0.00000  Uiso   1.00
H903   H     0.77021   0.83148   0.72116   0.00000  Uiso   1.00
H904   H     0.98225   0.25103   0.40814   0.00000  Uiso   1.00
H905   H     0.56854   0.90942   0.64117   0.00000  Uiso   1.00
H906   H     0.55256   0.86417   0.69855   0.00000  Uiso   1.00
H907   H     0.64295   0.95872   0.68744   0.00000  Uiso   1.00
H908   H     0.50639   0.92057   0.53900   0.00000  Uiso   1.00
H909   H     0.04075   0.29006   0.75987   0.00000  Uiso   1.00
H910   H     0.73134   0.98944   0.73643   0.00000  Uiso   1.00
H911   H     0.44338   0.90899   0.42341   0.00000  Uiso   1.00
O912   O     0.05051   0.17799   0.78967   0.00000  Uiso   1.00
O913   O     0.80054   0.93957   0.75891   0.00000  Uiso   1.00
O914   O     0.42276   0.83402   0.34824   0.00000  Uiso   1.00
N915   N     0.07266   0.17548   0.74031   0.00000  Uiso   1.00
N916   N     0.75085   0.86189   0.71841   0.00000  Uiso   1.00
N917   N     0.48164   0.78668   0.42576   0.00000  Uiso   1.00
N918   N     0.05174   0.26048   0.74852   0.00000  Uiso   1.00
N919   N     0.72993   0.94689   0.72662   0.00000  Uiso   1.00
N920   N     0.46073   0.87168   0.43397   0.00000  Uiso   1.00
C921   C     0.71973   0.47683   0.62853   0.00000  Uiso   1.00
C922   C     0.75062   0.52112   0.67283   0.00000  Uiso   1.00
C923   C     0.74049   0.55922   0.69607   0.00000  Uiso   1.00
C924   C     0.77326   0.59634   0.73599   0.00000  Uiso   1.00
C925   C     0.81493   0.66524   0.80234   0.00000  Uiso   1.00
C926   C     0.74166   0.41667   0.64985   0.00000  Uiso   1.00
C927   C     0.72399   0.36694   0.65378   0.00000  Uiso   1.00
C928   C     0.74922   0.31612   0.67435   0.00000  Uiso   1.00
C929   C     0.77697   0.22284   0.70500   0.00000  Uiso   1.00
C930   C     0.71915   0.49146   0.58318   0.00000  Uiso   1.00
C931   C     0.68255   0.50459   0.53104   0.00000  Uiso   1.00
C932   C     0.18883   0.01673   0.49547   0.00000  Uiso   1.00
C933   C     0.18163   0.03957   0.42260   0.00000  Uiso   1.00
C934   C     0.79595   0.47501   0.65809   0.00000  Uiso   1.00
C935   C     0.79202   0.52013   0.68888   0.00000  Uiso   1.00
C936   C     0.82481   0.55720   0.72877   0.00000  Uiso   1.00
C937   C     0.81473   0.59535   0.75207   0.00000  Uiso   1.00
C938   C     0.78306   0.41567   0.66590   0.00000  Uiso   1.00
C939   C     0.80832   0.36492   0.68647   0.00000  Uiso   1.00
C940   C     0.79069   0.31513   0.69043   0.00000  Uiso   1.00
C941   C     0.76055   0.49047   0.59923   0.00000  Uiso   1.00
C942   C     0.76688   0.50258   0.56374   0.00000  Uiso   1.00
C943   C     0.23030   0.01574   0.51155   0.00000  Uiso   1.00
H944   H     0.68750   0.47760   0.61604   0.00000  Uiso   1.00
H945   H     0.70845   0.55997   0.68364   0.00000  Uiso   1.00
H946   H     0.69195   0.36771   0.64135   0.00000  Uiso   1.00
H947   H     0.65052   0.50535   0.51863   0.00000  Uiso   1.00
H948   H     0.74993   0.65084   0.76569   0.00000  Uiso   1.00
H949   H     0.71515   0.24545   0.67649   0.00000  Uiso   1.00
H950   H     0.12778   0.03569   0.41771   0.00000  Uiso   1.00
H951   H     0.82818   0.47424   0.67058   0.00000  Uiso   1.00
H952   H     0.85685   0.55643   0.74118   0.00000  Uiso   1.00
H953   H     0.84035   0.36417   0.69889   0.00000  Uiso   1.00
H954   H     0.29892   0.00181   0.57617   0.00000  Uiso   1.00
H955   H     0.87038   0.64796   0.81239   0.00000  Uiso   1.00
H956   H     0.83559   0.24257   0.72319   0.00000  Uiso   1.00
H957   H     0.24823   0.03281   0.46442   0.00000  Uiso   1.00
O958   O     0.32648   0.20351   0.83451   0.00000  Uiso   1.00
O959   O     0.78083   0.17166   0.71747   0.00000  Uiso   1.00
O960   O     0.16622   0.05245   0.37797   0.00000  Uiso   1.00
N961   N     0.77434   0.63889   0.76699   0.00000  Uiso   1.00
N962   N     0.74182   0.25988   0.68360   0.00000  Uiso   1.00
N963   N     0.16014   0.03122   0.44166   0.00000  Uiso   1.00
N964   N     0.83915   0.63734   0.79212   0.00000  Uiso   1.00
N965   N     0.80663   0.25833   0.70873   0.00000  Uiso   1.00
N966   N     0.22495   0.02967   0.46679   0.00000  Uiso   1.00
C967   C     0.98774   0.94691   0.61686   0.00000  Uiso   1.00
C968   C     0.02575   0.90420   0.65139   0.00000  Uiso   1.00
C969   C     0.06763   0.91428   0.67147   0.00000  Uiso   1.00
C970   C     0.09778   0.86972   0.70223   0.00000  Uiso   1.00
C971   C     0.15854   0.81144   0.75430   0.00000  Uiso   1.00
C972   C     0.97097   0.95687   0.64607   0.00000  Uiso   1.00
C973   C     0.46677   0.51123   0.66167   0.00000  Uiso   1.00
C974   C     0.45080   0.51099   0.68793   0.00000  Uiso   1.00
C975   C     0.42648   0.53449   0.73171   0.00000  Uiso   1.00
C976   C     0.95216   0.91312   0.56609   0.00000  Uiso   1.00
C977   C     0.93213   0.93071   0.51444   0.00000  Uiso   1.00
C978   C     0.90031   0.89365   0.47337   0.00000  Uiso   1.00
C979   C     0.84678   0.84923   0.39297   0.00000  Uiso   1.00
C980   C     0.96682   0.84983   0.63577   0.00000  Uiso   1.00
C981   C     0.01439   0.85147   0.66166   0.00000  Uiso   1.00
C982   C     0.04449   0.80688   0.69239   0.00000  Uiso   1.00
C983   C     0.08640   0.81689   0.71251   0.00000  Uiso   1.00
C984   C     0.95961   0.90414   0.65634   0.00000  Uiso   1.00
C985   C     0.94364   0.90382   0.68258   0.00000  Uiso   1.00
C986   C     0.43942   0.45817   0.69822   0.00000  Uiso   1.00
C987   C     0.94080   0.86039   0.57636   0.00000  Uiso   1.00
C988   C     0.90900   0.82330   0.53536   0.00000  Uiso   1.00
C989   C     0.88893   0.84083   0.48366   0.00000  Uiso   1.00
H990   H     0.99658   0.98796   0.60887   0.00000  Uiso   1.00
H991   H     0.07640   0.95510   0.66352   0.00000  Uiso   1.00
H992   H     0.47556   0.55203   0.65371   0.00000  Uiso   1.00
H993   H     0.94093   0.97152   0.50651   0.00000  Uiso   1.00
H994   H     0.15990   0.89542   0.72866   0.00000  Uiso   1.00
H995   H     0.44725   0.59981   0.70796   0.00000  Uiso   1.00
H996   H     0.87422   0.93004   0.39755   0.00000  Uiso   1.00
H997   H     0.95798   0.80877   0.64376   0.00000  Uiso   1.00
H998   H     0.03569   0.76608   0.70033   0.00000  Uiso   1.00
H999   H     0.93485   0.86301   0.69052   0.00000  Uiso   1.00
H1000  H     0.90022   0.78250   0.54332   0.00000  Uiso   1.00
H1001  H     0.12686   0.74201   0.75853   0.00000  Uiso   1.00
H1002  H     0.41421   0.44639   0.73783   0.00000  Uiso   1.00
H1003  H     0.84118   0.77662   0.42743   0.00000  Uiso   1.00
O1004  O     0.19520   0.79387   0.78019   0.00000  Uiso   1.00
O1005  O     0.41621   0.56201   0.75302   0.00000  Uiso   1.00
O1006  O     0.82040   0.83929   0.34578   0.00000  Uiso   1.00
N1007  N     0.14146   0.86517   0.72792   0.00000  Uiso   1.00
N1008  N     0.44265   0.55626   0.70857   0.00000  Uiso   1.00
N1009  N     0.87437   0.89755   0.41837   0.00000  Uiso   1.00
N1010  N     0.12368   0.78262   0.74399   0.00000  Uiso   1.00
N1011  N     0.42487   0.47370   0.72464   0.00000  Uiso   1.00
N1012  N     0.85659   0.81500   0.43444   0.00000  Uiso   1.00
C1013  C     0.10354   0.26719   0.62743   0.00000  Uiso   1.00
C1014  C     0.58991   0.76268   0.66054   0.00000  Uiso   1.00
C1015  C     0.59011   0.71155   0.68381   0.00000  Uiso   1.00
C1016  C     0.57646   0.71664   0.71255   0.00000  Uiso   1.00
C1017  C     0.55735   0.70139   0.76318   0.00000  Uiso   1.00
C1018  C     0.13902   0.31406   0.65451   0.00000  Uiso   1.00
C1019  C     0.18051   0.30612   0.67270   0.00000  Uiso   1.00
C1020  C     0.20820   0.35446   0.69636   0.00000  Uiso   1.00
C1021  C     0.26534   0.41898   0.73761   0.00000  Uiso   1.00
C1022  C     0.06483   0.29333   0.57386   0.00000  Uiso   1.00
C1023  C     0.04394   0.26796   0.52424   0.00000  Uiso   1.00
C1024  C     0.00917   0.29885   0.47999   0.00000  Uiso   1.00
C1025  C     0.95110   0.33119   0.39601   0.00000  Uiso   1.00
C1026  C     0.07894   0.36715   0.63709   0.00000  Uiso   1.00
C1027  C     0.07655   0.31698   0.66578   0.00000  Uiso   1.00
C1028  C     0.56289   0.82215   0.69449   0.00000  Uiso   1.00
C1029  C     0.56307   0.77103   0.71780   0.00000  Uiso   1.00
C1030  C     0.12566   0.36835   0.65976   0.00000  Uiso   1.00
C1031  C     0.15330   0.41671   0.68339   0.00000  Uiso   1.00
C1032  C     0.19482   0.40885   0.70162   0.00000  Uiso   1.00
C1033  C     0.05147   0.34762   0.57910   0.00000  Uiso   1.00
C1034  C     0.01672   0.37856   0.53493   0.00000  Uiso   1.00
C1035  C     0.99578   0.35325   0.48525   0.00000  Uiso   1.00
H1036  H     0.11394   0.22492   0.62334   0.00000  Uiso   1.00
H1037  H     0.60045   0.66954   0.67974   0.00000  Uiso   1.00
H1038  H     0.19084   0.26410   0.66863   0.00000  Uiso   1.00
H1039  H     0.05429   0.22595   0.52019   0.00000  Uiso   1.00
H1040  H     0.57962   0.63210   0.74460   0.00000  Uiso   1.00
H1041  H     0.27021   0.33148   0.72116   0.00000  Uiso   1.00
H1042  H     0.48225   0.75103   0.40814   0.00000  Uiso   1.00
H1043  H     0.06854   0.40942   0.64117   0.00000  Uiso   1.00
H1044  H     0.05256   0.36417   0.69855   0.00000  Uiso   1.00
H1045  H     0.14295   0.45872   0.68744   0.00000  Uiso   1.00
H1046  H     0.00639   0.42057   0.53900   0.00000  Uiso   1.00
H1047  H     0.54075   0.79006   0.75987   0.00000  Uiso   1.00
H1048  H     0.23134   0.48944   0.73643   0.00000  Uiso   1.00
H1049  H     0.94338   0.40899   0.42341   0.00000  Uiso   1.00
O1050  O     0.55051   0.67799   0.78967   0.00000  Uiso   1.00
O1051  O     0.30054   0.43957   0.75891   0.00000  Uiso   1.00
O1052  O     0.92276   0.33402   0.34824   0.00000  Uiso   1.00
N1053  N     0.57266   0.67548   0.74031   0.00000  Uiso   1.00
N1054  N     0.25085   0.36189   0.71841   0.00000  Uiso   1.00
N1055  N     0.98164   0.28668   0.42576   0.00000  Uiso   1.00
N1056  N     0.55174   0.76048   0.74852   0.00000  Uiso   1.00
N1057  N     0.22993   0.44689   0.72662   0.00000  Uiso   1.00
N1058  N     0.96073   0.37168   0.43397   0.00000  Uiso   1.00
C1059  C     0.21973   0.97683   0.62853   0.00000  Uiso   1.00
C1060  C     0.25062   0.02112   0.67283   0.00000  Uiso   1.00
C1061  C     0.24049   0.05922   0.69607   0.00000  Uiso   1.00
C1062  C     0.27326   0.09634   0.73599   0.00000  Uiso   1.00
C1063  C     0.31493   0.16524   0.80234   0.00000  Uiso   1.00
C1064  C     0.24166   0.91667   0.64985   0.00000  Uiso   1.00
C1065  C     0.22399   0.86694   0.65378   0.00000  Uiso   1.00
C1066  C     0.24922   0.81612   0.67435   0.00000  Uiso   1.00
C1067  C     0.27697   0.72284   0.70500   0.00000  Uiso   1.00
C1068  C     0.21915   0.99146   0.58318   0.00000  Uiso   1.00
C1069  C     0.18255   0.00459   0.53104   0.00000  Uiso   1.00
C1070  C     0.68883   0.51673   0.49547   0.00000  Uiso   1.00
C1071  C     0.68163   0.53957   0.42260   0.00000  Uiso   1.00
C1072  C     0.29595   0.97501   0.65809   0.00000  Uiso   1.00
C1073  C     0.29202   0.02013   0.68888   0.00000  Uiso   1.00
C1074  C     0.32481   0.05720   0.72877   0.00000  Uiso   1.00
C1075  C     0.31473   0.09535   0.75207   0.00000  Uiso   1.00
C1076  C     0.28306   0.91567   0.66590   0.00000  Uiso   1.00
C1077  C     0.30832   0.86492   0.68647   0.00000  Uiso   1.00
C1078  C     0.29069   0.81513   0.69043   0.00000  Uiso   1.00
C1079  C     0.26055   0.99047   0.59923   0.00000  Uiso   1.00
C1080  C     0.26688   0.00258   0.56374   0.00000  Uiso   1.00
C1081  C     0.73030   0.51574   0.51155   0.00000  Uiso   1.00
H1082  H     0.18750   0.97760   0.61604   0.00000  Uiso   1.00
H1083  H     0.20845   0.05997   0.68364   0.00000  Uiso   1.00
H1084  H     0.19195   0.86771   0.64135   0.00000  Uiso   1.00
H1085  H     0.15052   0.00535   0.51863   0.00000  Uiso   1.00
H1086  H     0.24993   0.15084   0.76569   0.00000  Uiso   1.00
H1087  H     0.21515   0.74545   0.67649   0.00000  Uiso   1.00
H1088  H     0.62778   0.53569   0.41771   0.00000  Uiso   1.00
H1089  H     0.32818   0.97424   0.67058   0.00000  Uiso   1.00
H1090  H     0.35685   0.05643   0.74118   0.00000  Uiso   1.00
H1091  H     0.34035   0.86417   0.69889   0.00000  Uiso   1.00
H1092  H     0.79892   0.50181   0.57617   0.00000  Uiso   1.00
H1093  H     0.37038   0.14796   0.81239   0.00000  Uiso   1.00
H1094  H     0.33559   0.74257   0.72319   0.00000  Uiso   1.00
H1095  H     0.74823   0.53281   0.46442   0.00000  Uiso   1.00
O1096  O     0.82648   0.70351   0.83451   0.00000  Uiso   1.00
O1097  O     0.28083   0.67166   0.71747   0.00000  Uiso   1.00
O1098  O     0.66622   0.55245   0.37797   0.00000  Uiso   1.00
N1099  N     0.27434   0.13889   0.76699   0.00000  Uiso   1.00
N1100  N     0.24182   0.75988   0.68360   0.00000  Uiso   1.00
N1101  N     0.66014   0.53122   0.44166   0.00000  Uiso   1.00
N1102  N     0.33915   0.13734   0.79212   0.00000  Uiso   1.00
N1103  N     0.30663   0.75833   0.70873   0.00000  Uiso   1.00
N1104  N     0.72495   0.52967   0.46679   0.00000  Uiso   1.00
