data_job_02164
_audit_creation_date              2018-12-19
_audit_creation_method            'Materials Studio'
_symmetry_space_group_name_H-M    'P1'
_symmetry_Int_Tables_number       1
_symmetry_cell_setting            triclinic
loop_
_symmetry_equiv_pos_as_xyz
  x,y,z
_cell_length_a                    29.1728
_cell_length_b                    18.1771
_cell_length_c                    16.1336
_cell_angle_alpha                 90.0000
_cell_angle_beta                  90.0000
_cell_angle_gamma                 90.0000
loop_
_atom_site_label
_atom_site_type_symbol
_atom_site_fract_x
_atom_site_fract_y
_atom_site_fract_z
_atom_site_U_iso_or_equiv
_atom_site_adp_type
_atom_site_occupancy
C1     C     0.49038   0.80994   0.66666   0.00000  Uiso   1.00
C2     C     0.51449   0.82250   0.74932   0.00000  Uiso   1.00
C3     C     0.52715   0.89028   0.78162   0.00000  Uiso   1.00
C4     C     0.54889   0.89013   0.85818   0.00000  Uiso   1.00
C5     C     0.58502   0.91960   0.98002   0.00000  Uiso   1.00
C6     C     0.52089   0.75737   0.61785   0.00000  Uiso   1.00
C7     C     0.53892   0.77039   0.53961   0.00000  Uiso   1.00
C8     C     0.56603   0.71540   0.50549   0.00000  Uiso   1.00
C9     C     0.61206   0.64374   0.42319   0.00000  Uiso   1.00
C10    C     0.44679   0.76717   0.68662   0.00000  Uiso   1.00
C11    C     0.40252   0.78841   0.66618   0.00000  Uiso   1.00
C12    C     0.36725   0.74166   0.68994   0.00000  Uiso   1.00
C13    C     0.29824   0.68522   0.71442   0.00000  Uiso   1.00
C14    C     0.50647   0.68913   0.74519   0.00000  Uiso   1.00
C15    C     0.52323   0.75688   0.79197   0.00000  Uiso   1.00
C16    C     0.54495   0.75662   0.86850   0.00000  Uiso   1.00
C17    C     0.55764   0.82439   0.90091   0.00000  Uiso   1.00
C18    C     0.52963   0.69175   0.66050   0.00000  Uiso   1.00
C19    C     0.55672   0.63673   0.62649   0.00000  Uiso   1.00
C20    C     0.57479   0.64966   0.54821   0.00000  Uiso   1.00
C21    C     0.45553   0.70155   0.72927   0.00000  Uiso   1.00
C22    C     0.42032   0.65475   0.75306   0.00000  Uiso   1.00
C23    C     0.37600   0.67592   0.73266   0.00000  Uiso   1.00
H24    H     0.48358   0.86103   0.63345   0.00000  Uiso   1.00
H25    H     0.52039   0.94105   0.74859   0.00000  Uiso   1.00
H26    H     0.53215   0.82117   0.50661   0.00000  Uiso   1.00
H27    H     0.39577   0.83920   0.63317   0.00000  Uiso   1.00
H28    H     0.56506   0.00083   0.89504   0.00000  Uiso   1.00
H29    H     0.58984   0.74805   0.38480   0.00000  Uiso   1.00
H30    H     0.30227   0.78606   0.65167   0.00000  Uiso   1.00
H31    H     0.51328   0.63804   0.77839   0.00000  Uiso   1.00
H32    H     0.55171   0.70583   0.90149   0.00000  Uiso   1.00
H33    H     0.56347   0.58595   0.65951   0.00000  Uiso   1.00
H34    H     0.42710   0.60398   0.78607   0.00000  Uiso   1.00
H35    H     0.59049   0.80992   0.01914   0.00000  Uiso   1.00
H36    H     0.61527   0.55714   0.50890   0.00000  Uiso   1.00
H37    H     0.32770   0.59514   0.77577   0.00000  Uiso   1.00
O38    O     0.60254   0.95399   0.03544   0.00000  Uiso   1.00
O39    O     0.63504   0.62235   0.36602   0.00000  Uiso   1.00
O40    O     0.25775   0.67221   0.71615   0.00000  Uiso   1.00
N41    N     0.56577   0.94660   0.90736   0.00000  Uiso   1.00
N42    N     0.58894   0.71027   0.43033   0.00000  Uiso   1.00
N43    N     0.32008   0.74579   0.67980   0.00000  Uiso   1.00
N44    N     0.57945   0.84387   0.97414   0.00000  Uiso   1.00
N45    N     0.60262   0.60754   0.49710   0.00000  Uiso   1.00
N46    N     0.33376   0.64306   0.74658   0.00000  Uiso   1.00
C47    C     0.49038   0.30994   0.16666   0.00000  Uiso   1.00
C48    C     0.51449   0.32250   0.24932   0.00000  Uiso   1.00
C49    C     0.52715   0.39028   0.28162   0.00000  Uiso   1.00
C50    C     0.54889   0.39013   0.35818   0.00000  Uiso   1.00
C51    C     0.58502   0.41960   0.48002   0.00000  Uiso   1.00
C52    C     0.52089   0.25737   0.11785   0.00000  Uiso   1.00
C53    C     0.53892   0.27039   0.03961   0.00000  Uiso   1.00
C54    C     0.56603   0.21540   0.00549   0.00000  Uiso   1.00
C55    C     0.61206   0.14374   0.92319   0.00000  Uiso   1.00
C56    C     0.44679   0.26717   0.18662   0.00000  Uiso   1.00
C57    C     0.40252   0.28841   0.16618   0.00000  Uiso   1.00
C58    C     0.36725   0.24166   0.18994   0.00000  Uiso   1.00
C59    C     0.29824   0.18522   0.21442   0.00000  Uiso   1.00
C60    C     0.50647   0.18913   0.24519   0.00000  Uiso   1.00
C61    C     0.52323   0.25688   0.29197   0.00000  Uiso   1.00
C62    C     0.54495   0.25662   0.36850   0.00000  Uiso   1.00
C63    C     0.55764   0.32439   0.40091   0.00000  Uiso   1.00
C64    C     0.52963   0.19175   0.16050   0.00000  Uiso   1.00
C65    C     0.55672   0.13673   0.12649   0.00000  Uiso   1.00
C66    C     0.57479   0.14966   0.04821   0.00000  Uiso   1.00
C67    C     0.45553   0.20155   0.22927   0.00000  Uiso   1.00
C68    C     0.42032   0.15475   0.25306   0.00000  Uiso   1.00
C69    C     0.37600   0.17592   0.23266   0.00000  Uiso   1.00
H70    H     0.48358   0.36103   0.13345   0.00000  Uiso   1.00
H71    H     0.52039   0.44105   0.24859   0.00000  Uiso   1.00
H72    H     0.53215   0.32117   0.00661   0.00000  Uiso   1.00
H73    H     0.39577   0.33920   0.13317   0.00000  Uiso   1.00
H74    H     0.56506   0.50083   0.39504   0.00000  Uiso   1.00
H75    H     0.58984   0.24805   0.88480   0.00000  Uiso   1.00
H76    H     0.30227   0.28606   0.15167   0.00000  Uiso   1.00
H77    H     0.51328   0.13804   0.27839   0.00000  Uiso   1.00
H78    H     0.55171   0.20583   0.40149   0.00000  Uiso   1.00
H79    H     0.56347   0.08595   0.15951   0.00000  Uiso   1.00
H80    H     0.42710   0.10398   0.28607   0.00000  Uiso   1.00
H81    H     0.59049   0.30992   0.51914   0.00000  Uiso   1.00
H82    H     0.61527   0.05714   0.00890   0.00000  Uiso   1.00
H83    H     0.32770   0.09514   0.27577   0.00000  Uiso   1.00
O84    O     0.60254   0.45399   0.53544   0.00000  Uiso   1.00
O85    O     0.63504   0.12235   0.86602   0.00000  Uiso   1.00
O86    O     0.25775   0.17221   0.21615   0.00000  Uiso   1.00
N87    N     0.56577   0.44660   0.40736   0.00000  Uiso   1.00
N88    N     0.58894   0.21027   0.93033   0.00000  Uiso   1.00
N89    N     0.32008   0.24579   0.17980   0.00000  Uiso   1.00
N90    N     0.57945   0.34387   0.47414   0.00000  Uiso   1.00
N91    N     0.60262   0.10754   0.99710   0.00000  Uiso   1.00
N92    N     0.33376   0.14306   0.24658   0.00000  Uiso   1.00
C93    C     0.99038   0.80994   0.16666   0.00000  Uiso   1.00
C94    C     0.01449   0.82250   0.24932   0.00000  Uiso   1.00
C95    C     0.02715   0.89028   0.28162   0.00000  Uiso   1.00
C96    C     0.04889   0.89013   0.35818   0.00000  Uiso   1.00
C97    C     0.08502   0.91960   0.48002   0.00000  Uiso   1.00
C98    C     0.02089   0.75737   0.11785   0.00000  Uiso   1.00
C99    C     0.03892   0.77039   0.03961   0.00000  Uiso   1.00
C100   C     0.06603   0.71540   0.00549   0.00000  Uiso   1.00
C101   C     0.11206   0.64374   0.92319   0.00000  Uiso   1.00
C102   C     0.94679   0.76717   0.18662   0.00000  Uiso   1.00
C103   C     0.90252   0.78841   0.16618   0.00000  Uiso   1.00
C104   C     0.86725   0.74166   0.18994   0.00000  Uiso   1.00
C105   C     0.79824   0.68522   0.21442   0.00000  Uiso   1.00
C106   C     0.00647   0.68913   0.24519   0.00000  Uiso   1.00
C107   C     0.02323   0.75688   0.29197   0.00000  Uiso   1.00
C108   C     0.04495   0.75662   0.36850   0.00000  Uiso   1.00
C109   C     0.05764   0.82439   0.40091   0.00000  Uiso   1.00
C110   C     0.02963   0.69175   0.16050   0.00000  Uiso   1.00
C111   C     0.05672   0.63673   0.12649   0.00000  Uiso   1.00
C112   C     0.07479   0.64966   0.04821   0.00000  Uiso   1.00
C113   C     0.95553   0.70155   0.22927   0.00000  Uiso   1.00
C114   C     0.92032   0.65475   0.25306   0.00000  Uiso   1.00
C115   C     0.87600   0.67592   0.23266   0.00000  Uiso   1.00
H116   H     0.98358   0.86103   0.13345   0.00000  Uiso   1.00
H117   H     0.02039   0.94105   0.24859   0.00000  Uiso   1.00
H118   H     0.03215   0.82117   0.00661   0.00000  Uiso   1.00
H119   H     0.89577   0.83920   0.13317   0.00000  Uiso   1.00
H120   H     0.06506   0.00083   0.39504   0.00000  Uiso   1.00
H121   H     0.08984   0.74805   0.88480   0.00000  Uiso   1.00
H122   H     0.80227   0.78606   0.15167   0.00000  Uiso   1.00
H123   H     0.01328   0.63804   0.27839   0.00000  Uiso   1.00
H124   H     0.05171   0.70583   0.40149   0.00000  Uiso   1.00
H125   H     0.06347   0.58595   0.15951   0.00000  Uiso   1.00
H126   H     0.92710   0.60398   0.28607   0.00000  Uiso   1.00
H127   H     0.09049   0.80992   0.51914   0.00000  Uiso   1.00
H128   H     0.11527   0.55714   0.00890   0.00000  Uiso   1.00
H129   H     0.82770   0.59514   0.27577   0.00000  Uiso   1.00
O130   O     0.10254   0.95399   0.53544   0.00000  Uiso   1.00
O131   O     0.13504   0.62235   0.86602   0.00000  Uiso   1.00
O132   O     0.75775   0.67221   0.21615   0.00000  Uiso   1.00
N133   N     0.06577   0.94660   0.40736   0.00000  Uiso   1.00
N134   N     0.08894   0.71027   0.93033   0.00000  Uiso   1.00
N135   N     0.82008   0.74579   0.17980   0.00000  Uiso   1.00
N136   N     0.07945   0.84387   0.47414   0.00000  Uiso   1.00
N137   N     0.10262   0.60754   0.99710   0.00000  Uiso   1.00
N138   N     0.83376   0.64306   0.24658   0.00000  Uiso   1.00
C139   C     0.99038   0.30994   0.66666   0.00000  Uiso   1.00
C140   C     0.01449   0.32250   0.74932   0.00000  Uiso   1.00
C141   C     0.02715   0.39028   0.78162   0.00000  Uiso   1.00
C142   C     0.04889   0.39013   0.85818   0.00000  Uiso   1.00
C143   C     0.08502   0.41960   0.98002   0.00000  Uiso   1.00
C144   C     0.02089   0.25737   0.61785   0.00000  Uiso   1.00
C145   C     0.03892   0.27039   0.53961   0.00000  Uiso   1.00
C146   C     0.06603   0.21540   0.50549   0.00000  Uiso   1.00
C147   C     0.11206   0.14374   0.42319   0.00000  Uiso   1.00
C148   C     0.94679   0.26717   0.68662   0.00000  Uiso   1.00
C149   C     0.90252   0.28841   0.66618   0.00000  Uiso   1.00
C150   C     0.86725   0.24166   0.68994   0.00000  Uiso   1.00
C151   C     0.79824   0.18522   0.71442   0.00000  Uiso   1.00
C152   C     0.00647   0.18913   0.74519   0.00000  Uiso   1.00
C153   C     0.02323   0.25688   0.79197   0.00000  Uiso   1.00
C154   C     0.04495   0.25662   0.86850   0.00000  Uiso   1.00
C155   C     0.05764   0.32439   0.90091   0.00000  Uiso   1.00
C156   C     0.02963   0.19175   0.66050   0.00000  Uiso   1.00
C157   C     0.05672   0.13673   0.62649   0.00000  Uiso   1.00
C158   C     0.07479   0.14966   0.54821   0.00000  Uiso   1.00
C159   C     0.95553   0.20155   0.72927   0.00000  Uiso   1.00
C160   C     0.92032   0.15475   0.75306   0.00000  Uiso   1.00
C161   C     0.87600   0.17592   0.73266   0.00000  Uiso   1.00
H162   H     0.98358   0.36103   0.63345   0.00000  Uiso   1.00
H163   H     0.02039   0.44105   0.74859   0.00000  Uiso   1.00
H164   H     0.03215   0.32117   0.50661   0.00000  Uiso   1.00
H165   H     0.89577   0.33920   0.63317   0.00000  Uiso   1.00
H166   H     0.06506   0.50083   0.89504   0.00000  Uiso   1.00
H167   H     0.08984   0.24805   0.38480   0.00000  Uiso   1.00
H168   H     0.80227   0.28606   0.65167   0.00000  Uiso   1.00
H169   H     0.01328   0.13804   0.77839   0.00000  Uiso   1.00
H170   H     0.05171   0.20583   0.90149   0.00000  Uiso   1.00
H171   H     0.06347   0.08595   0.65951   0.00000  Uiso   1.00
H172   H     0.92710   0.10398   0.78607   0.00000  Uiso   1.00
H173   H     0.09049   0.30992   0.01914   0.00000  Uiso   1.00
H174   H     0.11527   0.05714   0.50890   0.00000  Uiso   1.00
H175   H     0.82770   0.09514   0.77577   0.00000  Uiso   1.00
O176   O     0.10254   0.45399   0.03544   0.00000  Uiso   1.00
O177   O     0.13504   0.12235   0.36602   0.00000  Uiso   1.00
O178   O     0.75775   0.17221   0.71615   0.00000  Uiso   1.00
N179   N     0.06577   0.44660   0.90736   0.00000  Uiso   1.00
N180   N     0.08894   0.21027   0.43033   0.00000  Uiso   1.00
N181   N     0.82008   0.24579   0.67980   0.00000  Uiso   1.00
N182   N     0.07945   0.34387   0.97414   0.00000  Uiso   1.00
N183   N     0.10262   0.10754   0.49710   0.00000  Uiso   1.00
N184   N     0.83376   0.14306   0.74658   0.00000  Uiso   1.00
C185   C     0.50962   0.19006   0.66666   0.00000  Uiso   1.00
C186   C     0.48551   0.17750   0.74932   0.00000  Uiso   1.00
C187   C     0.47285   0.10972   0.78162   0.00000  Uiso   1.00
C188   C     0.45111   0.10987   0.85818   0.00000  Uiso   1.00
C189   C     0.41498   0.08040   0.98002   0.00000  Uiso   1.00
C190   C     0.47911   0.24263   0.61785   0.00000  Uiso   1.00
C191   C     0.46108   0.22961   0.53961   0.00000  Uiso   1.00
C192   C     0.43397   0.28460   0.50549   0.00000  Uiso   1.00
C193   C     0.38794   0.35626   0.42319   0.00000  Uiso   1.00
C194   C     0.55321   0.23283   0.68662   0.00000  Uiso   1.00
C195   C     0.59748   0.21159   0.66618   0.00000  Uiso   1.00
C196   C     0.63275   0.25834   0.68994   0.00000  Uiso   1.00
C197   C     0.70176   0.31478   0.71442   0.00000  Uiso   1.00
C198   C     0.49353   0.31087   0.74519   0.00000  Uiso   1.00
C199   C     0.47677   0.24312   0.79197   0.00000  Uiso   1.00
C200   C     0.45505   0.24338   0.86850   0.00000  Uiso   1.00
C201   C     0.44236   0.17561   0.90091   0.00000  Uiso   1.00
C202   C     0.47037   0.30825   0.66050   0.00000  Uiso   1.00
C203   C     0.44328   0.36327   0.62649   0.00000  Uiso   1.00
C204   C     0.42521   0.35034   0.54821   0.00000  Uiso   1.00
C205   C     0.54447   0.29845   0.72927   0.00000  Uiso   1.00
C206   C     0.57968   0.34525   0.75306   0.00000  Uiso   1.00
C207   C     0.62400   0.32408   0.73266   0.00000  Uiso   1.00
H208   H     0.51642   0.13897   0.63345   0.00000  Uiso   1.00
H209   H     0.47961   0.05895   0.74859   0.00000  Uiso   1.00
H210   H     0.46785   0.17883   0.50661   0.00000  Uiso   1.00
H211   H     0.60423   0.16080   0.63317   0.00000  Uiso   1.00
H212   H     0.43494   0.99917   0.89504   0.00000  Uiso   1.00
H213   H     0.41016   0.25195   0.38480   0.00000  Uiso   1.00
H214   H     0.69773   0.21394   0.65167   0.00000  Uiso   1.00
H215   H     0.48672   0.36196   0.77839   0.00000  Uiso   1.00
H216   H     0.44829   0.29417   0.90149   0.00000  Uiso   1.00
H217   H     0.43653   0.41405   0.65951   0.00000  Uiso   1.00
H218   H     0.57290   0.39602   0.78607   0.00000  Uiso   1.00
H219   H     0.40951   0.19008   0.01914   0.00000  Uiso   1.00
H220   H     0.38473   0.44286   0.50890   0.00000  Uiso   1.00
H221   H     0.67230   0.40486   0.77577   0.00000  Uiso   1.00
O222   O     0.39746   0.04601   0.03544   0.00000  Uiso   1.00
O223   O     0.36496   0.37765   0.36602   0.00000  Uiso   1.00
O224   O     0.74225   0.32779   0.71615   0.00000  Uiso   1.00
N225   N     0.43423   0.05340   0.90736   0.00000  Uiso   1.00
N226   N     0.41106   0.28973   0.43033   0.00000  Uiso   1.00
N227   N     0.67992   0.25421   0.67980   0.00000  Uiso   1.00
N228   N     0.42055   0.15613   0.97414   0.00000  Uiso   1.00
N229   N     0.39738   0.39246   0.49710   0.00000  Uiso   1.00
N230   N     0.66624   0.35694   0.74658   0.00000  Uiso   1.00
C231   C     0.50962   0.69006   0.16666   0.00000  Uiso   1.00
C232   C     0.48551   0.67750   0.24932   0.00000  Uiso   1.00
C233   C     0.47285   0.60972   0.28162   0.00000  Uiso   1.00
C234   C     0.45111   0.60987   0.35818   0.00000  Uiso   1.00
C235   C     0.41498   0.58040   0.48002   0.00000  Uiso   1.00
C236   C     0.47911   0.74263   0.11785   0.00000  Uiso   1.00
C237   C     0.46108   0.72961   0.03961   0.00000  Uiso   1.00
C238   C     0.43397   0.78460   0.00549   0.00000  Uiso   1.00
C239   C     0.38794   0.85626   0.92319   0.00000  Uiso   1.00
C240   C     0.55321   0.73283   0.18662   0.00000  Uiso   1.00
C241   C     0.59748   0.71159   0.16618   0.00000  Uiso   1.00
C242   C     0.63275   0.75834   0.18994   0.00000  Uiso   1.00
C243   C     0.70176   0.81478   0.21442   0.00000  Uiso   1.00
C244   C     0.49353   0.81087   0.24519   0.00000  Uiso   1.00
C245   C     0.47677   0.74312   0.29197   0.00000  Uiso   1.00
C246   C     0.45505   0.74338   0.36850   0.00000  Uiso   1.00
C247   C     0.44236   0.67561   0.40091   0.00000  Uiso   1.00
C248   C     0.47037   0.80825   0.16050   0.00000  Uiso   1.00
C249   C     0.44328   0.86327   0.12649   0.00000  Uiso   1.00
C250   C     0.42521   0.85034   0.04821   0.00000  Uiso   1.00
C251   C     0.54447   0.79845   0.22927   0.00000  Uiso   1.00
C252   C     0.57968   0.84525   0.25306   0.00000  Uiso   1.00
C253   C     0.62400   0.82408   0.23266   0.00000  Uiso   1.00
H254   H     0.51642   0.63897   0.13345   0.00000  Uiso   1.00
H255   H     0.47961   0.55895   0.24859   0.00000  Uiso   1.00
H256   H     0.46785   0.67883   0.00661   0.00000  Uiso   1.00
H257   H     0.60423   0.66080   0.13317   0.00000  Uiso   1.00
H258   H     0.43494   0.49917   0.39504   0.00000  Uiso   1.00
H259   H     0.41016   0.75195   0.88480   0.00000  Uiso   1.00
H260   H     0.69773   0.71394   0.15167   0.00000  Uiso   1.00
H261   H     0.48672   0.86196   0.27839   0.00000  Uiso   1.00
H262   H     0.44829   0.79417   0.40149   0.00000  Uiso   1.00
H263   H     0.43653   0.91405   0.15951   0.00000  Uiso   1.00
H264   H     0.57290   0.89602   0.28607   0.00000  Uiso   1.00
H265   H     0.40951   0.69008   0.51914   0.00000  Uiso   1.00
H266   H     0.38473   0.94286   0.00890   0.00000  Uiso   1.00
H267   H     0.67230   0.90486   0.27577   0.00000  Uiso   1.00
O268   O     0.39746   0.54601   0.53544   0.00000  Uiso   1.00
O269   O     0.36496   0.87765   0.86602   0.00000  Uiso   1.00
O270   O     0.74225   0.82779   0.21615   0.00000  Uiso   1.00
N271   N     0.43423   0.55340   0.40736   0.00000  Uiso   1.00
N272   N     0.41106   0.78973   0.93033   0.00000  Uiso   1.00
N273   N     0.67992   0.75421   0.17980   0.00000  Uiso   1.00
N274   N     0.42055   0.65613   0.47414   0.00000  Uiso   1.00
N275   N     0.39738   0.89246   0.99710   0.00000  Uiso   1.00
N276   N     0.66624   0.85694   0.24658   0.00000  Uiso   1.00
C277   C     0.00962   0.19006   0.16666   0.00000  Uiso   1.00
C278   C     0.98551   0.17750   0.24932   0.00000  Uiso   1.00
C279   C     0.97285   0.10972   0.28162   0.00000  Uiso   1.00
C280   C     0.95111   0.10987   0.35818   0.00000  Uiso   1.00
C281   C     0.91498   0.08040   0.48002   0.00000  Uiso   1.00
C282   C     0.97911   0.24263   0.11785   0.00000  Uiso   1.00
C283   C     0.96108   0.22961   0.03961   0.00000  Uiso   1.00
C284   C     0.93397   0.28460   0.00549   0.00000  Uiso   1.00
C285   C     0.88794   0.35626   0.92319   0.00000  Uiso   1.00
C286   C     0.05321   0.23283   0.18662   0.00000  Uiso   1.00
C287   C     0.09748   0.21159   0.16618   0.00000  Uiso   1.00
C288   C     0.13275   0.25834   0.18994   0.00000  Uiso   1.00
C289   C     0.20176   0.31478   0.21442   0.00000  Uiso   1.00
C290   C     0.99353   0.31087   0.24519   0.00000  Uiso   1.00
C291   C     0.97677   0.24312   0.29197   0.00000  Uiso   1.00
C292   C     0.95505   0.24338   0.36850   0.00000  Uiso   1.00
C293   C     0.94236   0.17561   0.40091   0.00000  Uiso   1.00
C294   C     0.97037   0.30825   0.16050   0.00000  Uiso   1.00
C295   C     0.94328   0.36327   0.12649   0.00000  Uiso   1.00
C296   C     0.92521   0.35034   0.04821   0.00000  Uiso   1.00
C297   C     0.04447   0.29845   0.22927   0.00000  Uiso   1.00
C298   C     0.07968   0.34525   0.25306   0.00000  Uiso   1.00
C299   C     0.12400   0.32408   0.23266   0.00000  Uiso   1.00
H300   H     0.01642   0.13897   0.13345   0.00000  Uiso   1.00
H301   H     0.97961   0.05895   0.24859   0.00000  Uiso   1.00
H302   H     0.96785   0.17883   0.00661   0.00000  Uiso   1.00
H303   H     0.10423   0.16080   0.13317   0.00000  Uiso   1.00
H304   H     0.93494   0.99917   0.39504   0.00000  Uiso   1.00
H305   H     0.91016   0.25195   0.88480   0.00000  Uiso   1.00
H306   H     0.19773   0.21394   0.15167   0.00000  Uiso   1.00
H307   H     0.98672   0.36196   0.27839   0.00000  Uiso   1.00
H308   H     0.94829   0.29417   0.40149   0.00000  Uiso   1.00
H309   H     0.93653   0.41405   0.15951   0.00000  Uiso   1.00
H310   H     0.07290   0.39602   0.28607   0.00000  Uiso   1.00
H311   H     0.90951   0.19008   0.51914   0.00000  Uiso   1.00
H312   H     0.88473   0.44286   0.00890   0.00000  Uiso   1.00
H313   H     0.17230   0.40486   0.27577   0.00000  Uiso   1.00
O314   O     0.89746   0.04601   0.53544   0.00000  Uiso   1.00
O315   O     0.86496   0.37765   0.86602   0.00000  Uiso   1.00
O316   O     0.24225   0.32779   0.21615   0.00000  Uiso   1.00
N317   N     0.93423   0.05340   0.40736   0.00000  Uiso   1.00
N318   N     0.91106   0.28973   0.93033   0.00000  Uiso   1.00
N319   N     0.17992   0.25421   0.17980   0.00000  Uiso   1.00
N320   N     0.92055   0.15613   0.47414   0.00000  Uiso   1.00
N321   N     0.89738   0.39246   0.99710   0.00000  Uiso   1.00
N322   N     0.16624   0.35694   0.24658   0.00000  Uiso   1.00
C323   C     0.00962   0.69006   0.66666   0.00000  Uiso   1.00
C324   C     0.98551   0.67750   0.74932   0.00000  Uiso   1.00
C325   C     0.97285   0.60972   0.78162   0.00000  Uiso   1.00
C326   C     0.95111   0.60987   0.85818   0.00000  Uiso   1.00
C327   C     0.91498   0.58040   0.98002   0.00000  Uiso   1.00
C328   C     0.97911   0.74263   0.61785   0.00000  Uiso   1.00
C329   C     0.96108   0.72961   0.53961   0.00000  Uiso   1.00
C330   C     0.93397   0.78460   0.50549   0.00000  Uiso   1.00
C331   C     0.88794   0.85626   0.42319   0.00000  Uiso   1.00
C332   C     0.05321   0.73283   0.68662   0.00000  Uiso   1.00
C333   C     0.09748   0.71159   0.66618   0.00000  Uiso   1.00
C334   C     0.13275   0.75834   0.68994   0.00000  Uiso   1.00
C335   C     0.20176   0.81478   0.71442   0.00000  Uiso   1.00
C336   C     0.99353   0.81087   0.74519   0.00000  Uiso   1.00
C337   C     0.97677   0.74312   0.79197   0.00000  Uiso   1.00
C338   C     0.95505   0.74338   0.86850   0.00000  Uiso   1.00
C339   C     0.94236   0.67561   0.90091   0.00000  Uiso   1.00
C340   C     0.97037   0.80825   0.66050   0.00000  Uiso   1.00
C341   C     0.94328   0.86327   0.62649   0.00000  Uiso   1.00
C342   C     0.92521   0.85034   0.54821   0.00000  Uiso   1.00
C343   C     0.04447   0.79845   0.72927   0.00000  Uiso   1.00
C344   C     0.07968   0.84525   0.75306   0.00000  Uiso   1.00
C345   C     0.12400   0.82408   0.73266   0.00000  Uiso   1.00
H346   H     0.01642   0.63897   0.63345   0.00000  Uiso   1.00
H347   H     0.97961   0.55895   0.74859   0.00000  Uiso   1.00
H348   H     0.96785   0.67883   0.50661   0.00000  Uiso   1.00
H349   H     0.10423   0.66080   0.63317   0.00000  Uiso   1.00
H350   H     0.93494   0.49917   0.89504   0.00000  Uiso   1.00
H351   H     0.91016   0.75195   0.38480   0.00000  Uiso   1.00
H352   H     0.19773   0.71394   0.65167   0.00000  Uiso   1.00
H353   H     0.98672   0.86196   0.77839   0.00000  Uiso   1.00
H354   H     0.94829   0.79417   0.90149   0.00000  Uiso   1.00
H355   H     0.93653   0.91405   0.65951   0.00000  Uiso   1.00
H356   H     0.07290   0.89602   0.78607   0.00000  Uiso   1.00
H357   H     0.90951   0.69008   0.01914   0.00000  Uiso   1.00
H358   H     0.88473   0.94286   0.50890   0.00000  Uiso   1.00
H359   H     0.17230   0.90486   0.77577   0.00000  Uiso   1.00
O360   O     0.89746   0.54601   0.03544   0.00000  Uiso   1.00
O361   O     0.86496   0.87765   0.36602   0.00000  Uiso   1.00
O362   O     0.24225   0.82779   0.71615   0.00000  Uiso   1.00
N363   N     0.93423   0.55340   0.90736   0.00000  Uiso   1.00
N364   N     0.91106   0.78973   0.43033   0.00000  Uiso   1.00
N365   N     0.17992   0.75421   0.67980   0.00000  Uiso   1.00
N366   N     0.92055   0.65613   0.97414   0.00000  Uiso   1.00
N367   N     0.89738   0.89246   0.49710   0.00000  Uiso   1.00
N368   N     0.16624   0.85694   0.74658   0.00000  Uiso   1.00
C369   C     0.74038   0.44006   0.91666   0.00000  Uiso   1.00
C370   C     0.76449   0.42750   0.99932   0.00000  Uiso   1.00
C371   C     0.77715   0.35972   0.03162   0.00000  Uiso   1.00
C372   C     0.79889   0.35987   0.10818   0.00000  Uiso   1.00
C373   C     0.83502   0.33040   0.23002   0.00000  Uiso   1.00
C374   C     0.77089   0.49263   0.86785   0.00000  Uiso   1.00
C375   C     0.78892   0.47961   0.78961   0.00000  Uiso   1.00
C376   C     0.81603   0.53460   0.75549   0.00000  Uiso   1.00
C377   C     0.86206   0.60626   0.67319   0.00000  Uiso   1.00
C378   C     0.69679   0.48283   0.93662   0.00000  Uiso   1.00
C379   C     0.65252   0.46159   0.91618   0.00000  Uiso   1.00
C380   C     0.61725   0.50834   0.93994   0.00000  Uiso   1.00
C381   C     0.54824   0.56478   0.96442   0.00000  Uiso   1.00
C382   C     0.75647   0.56087   0.99519   0.00000  Uiso   1.00
C383   C     0.77323   0.49312   0.04197   0.00000  Uiso   1.00
C384   C     0.79495   0.49338   0.11850   0.00000  Uiso   1.00
C385   C     0.80764   0.42561   0.15091   0.00000  Uiso   1.00
C386   C     0.77963   0.55825   0.91050   0.00000  Uiso   1.00
C387   C     0.80672   0.61327   0.87649   0.00000  Uiso   1.00
C388   C     0.82479   0.60034   0.79821   0.00000  Uiso   1.00
C389   C     0.70553   0.54845   0.97927   0.00000  Uiso   1.00
C390   C     0.67032   0.59525   0.00306   0.00000  Uiso   1.00
C391   C     0.62600   0.57408   0.98266   0.00000  Uiso   1.00
H392   H     0.73358   0.38897   0.88345   0.00000  Uiso   1.00
H393   H     0.77039   0.30895   0.99859   0.00000  Uiso   1.00
H394   H     0.78215   0.42883   0.75661   0.00000  Uiso   1.00
H395   H     0.64577   0.41080   0.88317   0.00000  Uiso   1.00
H396   H     0.81506   0.24917   0.14504   0.00000  Uiso   1.00
H397   H     0.83984   0.50195   0.63480   0.00000  Uiso   1.00
H398   H     0.55227   0.46394   0.90167   0.00000  Uiso   1.00
H399   H     0.76328   0.61196   0.02839   0.00000  Uiso   1.00
H400   H     0.80171   0.54417   0.15149   0.00000  Uiso   1.00
H401   H     0.81347   0.66405   0.90951   0.00000  Uiso   1.00
H402   H     0.67710   0.64602   0.03607   0.00000  Uiso   1.00
H403   H     0.84049   0.44008   0.26914   0.00000  Uiso   1.00
H404   H     0.86527   0.69286   0.75890   0.00000  Uiso   1.00
H405   H     0.57770   0.65486   0.02577   0.00000  Uiso   1.00
O406   O     0.85254   0.29601   0.28544   0.00000  Uiso   1.00
O407   O     0.88504   0.62765   0.61602   0.00000  Uiso   1.00
O408   O     0.50775   0.57779   0.96615   0.00000  Uiso   1.00
N409   N     0.81577   0.30340   0.15736   0.00000  Uiso   1.00
N410   N     0.83894   0.53973   0.68033   0.00000  Uiso   1.00
N411   N     0.57008   0.50421   0.92980   0.00000  Uiso   1.00
N412   N     0.82945   0.40613   0.22414   0.00000  Uiso   1.00
N413   N     0.85262   0.64246   0.74710   0.00000  Uiso   1.00
N414   N     0.58376   0.60694   0.99658   0.00000  Uiso   1.00
C415   C     0.74038   0.94006   0.41666   0.00000  Uiso   1.00
C416   C     0.76449   0.92750   0.49932   0.00000  Uiso   1.00
C417   C     0.77715   0.85972   0.53162   0.00000  Uiso   1.00
C418   C     0.79889   0.85987   0.60818   0.00000  Uiso   1.00
C419   C     0.83502   0.83040   0.73002   0.00000  Uiso   1.00
C420   C     0.77089   0.99263   0.36785   0.00000  Uiso   1.00
C421   C     0.78892   0.97961   0.28961   0.00000  Uiso   1.00
C422   C     0.81603   0.03460   0.25549   0.00000  Uiso   1.00
C423   C     0.86206   0.10626   0.17319   0.00000  Uiso   1.00
C424   C     0.69679   0.98283   0.43662   0.00000  Uiso   1.00
C425   C     0.65252   0.96159   0.41618   0.00000  Uiso   1.00
C426   C     0.61725   0.00834   0.43994   0.00000  Uiso   1.00
C427   C     0.54824   0.06478   0.46442   0.00000  Uiso   1.00
C428   C     0.75647   0.06087   0.49519   0.00000  Uiso   1.00
C429   C     0.77323   0.99312   0.54197   0.00000  Uiso   1.00
C430   C     0.79495   0.99338   0.61850   0.00000  Uiso   1.00
C431   C     0.80764   0.92561   0.65091   0.00000  Uiso   1.00
C432   C     0.77963   0.05825   0.41050   0.00000  Uiso   1.00
C433   C     0.80672   0.11327   0.37649   0.00000  Uiso   1.00
C434   C     0.82479   0.10034   0.29821   0.00000  Uiso   1.00
C435   C     0.70553   0.04845   0.47927   0.00000  Uiso   1.00
C436   C     0.67032   0.09525   0.50306   0.00000  Uiso   1.00
C437   C     0.62600   0.07408   0.48266   0.00000  Uiso   1.00
H438   H     0.73358   0.88897   0.38345   0.00000  Uiso   1.00
H439   H     0.77039   0.80895   0.49859   0.00000  Uiso   1.00
H440   H     0.78215   0.92883   0.25661   0.00000  Uiso   1.00
H441   H     0.64577   0.91080   0.38317   0.00000  Uiso   1.00
H442   H     0.81506   0.74917   0.64504   0.00000  Uiso   1.00
H443   H     0.83984   0.00195   0.13480   0.00000  Uiso   1.00
H444   H     0.55227   0.96394   0.40167   0.00000  Uiso   1.00
H445   H     0.76328   0.11196   0.52839   0.00000  Uiso   1.00
H446   H     0.80171   0.04417   0.65149   0.00000  Uiso   1.00
H447   H     0.81347   0.16405   0.40951   0.00000  Uiso   1.00
H448   H     0.67710   0.14602   0.53607   0.00000  Uiso   1.00
H449   H     0.84049   0.94008   0.76914   0.00000  Uiso   1.00
H450   H     0.86527   0.19286   0.25890   0.00000  Uiso   1.00
H451   H     0.57770   0.15486   0.52577   0.00000  Uiso   1.00
O452   O     0.85254   0.79601   0.78544   0.00000  Uiso   1.00
O453   O     0.88504   0.12765   0.11602   0.00000  Uiso   1.00
O454   O     0.50775   0.07779   0.46615   0.00000  Uiso   1.00
N455   N     0.81577   0.80340   0.65736   0.00000  Uiso   1.00
N456   N     0.83894   0.03973   0.18033   0.00000  Uiso   1.00
N457   N     0.57008   0.00421   0.42980   0.00000  Uiso   1.00
N458   N     0.82945   0.90613   0.72414   0.00000  Uiso   1.00
N459   N     0.85262   0.14246   0.24710   0.00000  Uiso   1.00
N460   N     0.58376   0.10694   0.49658   0.00000  Uiso   1.00
C461   C     0.24038   0.44006   0.41666   0.00000  Uiso   1.00
C462   C     0.26449   0.42750   0.49932   0.00000  Uiso   1.00
C463   C     0.27715   0.35972   0.53162   0.00000  Uiso   1.00
C464   C     0.29889   0.35987   0.60818   0.00000  Uiso   1.00
C465   C     0.33502   0.33040   0.73002   0.00000  Uiso   1.00
C466   C     0.27089   0.49263   0.36785   0.00000  Uiso   1.00
C467   C     0.28892   0.47961   0.28961   0.00000  Uiso   1.00
C468   C     0.31603   0.53460   0.25549   0.00000  Uiso   1.00
C469   C     0.36206   0.60626   0.17319   0.00000  Uiso   1.00
C470   C     0.19679   0.48283   0.43662   0.00000  Uiso   1.00
C471   C     0.15252   0.46159   0.41618   0.00000  Uiso   1.00
C472   C     0.11725   0.50834   0.43994   0.00000  Uiso   1.00
C473   C     0.04824   0.56478   0.46442   0.00000  Uiso   1.00
C474   C     0.25647   0.56087   0.49519   0.00000  Uiso   1.00
C475   C     0.27323   0.49312   0.54197   0.00000  Uiso   1.00
C476   C     0.29495   0.49338   0.61850   0.00000  Uiso   1.00
C477   C     0.30764   0.42561   0.65091   0.00000  Uiso   1.00
C478   C     0.27963   0.55825   0.41050   0.00000  Uiso   1.00
C479   C     0.30672   0.61327   0.37649   0.00000  Uiso   1.00
C480   C     0.32479   0.60034   0.29821   0.00000  Uiso   1.00
C481   C     0.20553   0.54845   0.47927   0.00000  Uiso   1.00
C482   C     0.17032   0.59525   0.50306   0.00000  Uiso   1.00
C483   C     0.12600   0.57408   0.48266   0.00000  Uiso   1.00
H484   H     0.23358   0.38897   0.38345   0.00000  Uiso   1.00
H485   H     0.27039   0.30895   0.49859   0.00000  Uiso   1.00
H486   H     0.28215   0.42883   0.25661   0.00000  Uiso   1.00
H487   H     0.14577   0.41080   0.38317   0.00000  Uiso   1.00
H488   H     0.31506   0.24917   0.64504   0.00000  Uiso   1.00
H489   H     0.33984   0.50195   0.13480   0.00000  Uiso   1.00
H490   H     0.05227   0.46394   0.40167   0.00000  Uiso   1.00
H491   H     0.26328   0.61196   0.52839   0.00000  Uiso   1.00
H492   H     0.30171   0.54417   0.65149   0.00000  Uiso   1.00
H493   H     0.31347   0.66405   0.40951   0.00000  Uiso   1.00
H494   H     0.17710   0.64602   0.53607   0.00000  Uiso   1.00
H495   H     0.34049   0.44008   0.76914   0.00000  Uiso   1.00
H496   H     0.36527   0.69286   0.25890   0.00000  Uiso   1.00
H497   H     0.07770   0.65486   0.52577   0.00000  Uiso   1.00
O498   O     0.35254   0.29601   0.78544   0.00000  Uiso   1.00
O499   O     0.38504   0.62765   0.11602   0.00000  Uiso   1.00
O500   O     0.00775   0.57779   0.46615   0.00000  Uiso   1.00
N501   N     0.31577   0.30340   0.65736   0.00000  Uiso   1.00
N502   N     0.33894   0.53973   0.18033   0.00000  Uiso   1.00
N503   N     0.07008   0.50421   0.42980   0.00000  Uiso   1.00
N504   N     0.32945   0.40613   0.72414   0.00000  Uiso   1.00
N505   N     0.35262   0.64246   0.24710   0.00000  Uiso   1.00
N506   N     0.08376   0.60694   0.49658   0.00000  Uiso   1.00
C507   C     0.24038   0.94006   0.91666   0.00000  Uiso   1.00
C508   C     0.26449   0.92750   0.99932   0.00000  Uiso   1.00
C509   C     0.27715   0.85972   0.03162   0.00000  Uiso   1.00
C510   C     0.29889   0.85987   0.10818   0.00000  Uiso   1.00
C511   C     0.33502   0.83040   0.23002   0.00000  Uiso   1.00
C512   C     0.27089   0.99263   0.86785   0.00000  Uiso   1.00
C513   C     0.28892   0.97961   0.78961   0.00000  Uiso   1.00
C514   C     0.31603   0.03460   0.75549   0.00000  Uiso   1.00
C515   C     0.36206   0.10626   0.67319   0.00000  Uiso   1.00
C516   C     0.19679   0.98283   0.93662   0.00000  Uiso   1.00
C517   C     0.15252   0.96159   0.91618   0.00000  Uiso   1.00
C518   C     0.11725   0.00834   0.93994   0.00000  Uiso   1.00
C519   C     0.04824   0.06478   0.96442   0.00000  Uiso   1.00
C520   C     0.25647   0.06087   0.99519   0.00000  Uiso   1.00
C521   C     0.27323   0.99312   0.04197   0.00000  Uiso   1.00
C522   C     0.29495   0.99338   0.11850   0.00000  Uiso   1.00
C523   C     0.30764   0.92561   0.15091   0.00000  Uiso   1.00
C524   C     0.27963   0.05825   0.91050   0.00000  Uiso   1.00
C525   C     0.30672   0.11327   0.87649   0.00000  Uiso   1.00
C526   C     0.32479   0.10034   0.79821   0.00000  Uiso   1.00
C527   C     0.20553   0.04845   0.97927   0.00000  Uiso   1.00
C528   C     0.17032   0.09525   0.00306   0.00000  Uiso   1.00
C529   C     0.12600   0.07408   0.98266   0.00000  Uiso   1.00
H530   H     0.23358   0.88897   0.88345   0.00000  Uiso   1.00
H531   H     0.27039   0.80895   0.99859   0.00000  Uiso   1.00
H532   H     0.28215   0.92883   0.75661   0.00000  Uiso   1.00
H533   H     0.14577   0.91080   0.88317   0.00000  Uiso   1.00
H534   H     0.31506   0.74917   0.14504   0.00000  Uiso   1.00
H535   H     0.33984   0.00195   0.63480   0.00000  Uiso   1.00
H536   H     0.05227   0.96394   0.90167   0.00000  Uiso   1.00
H537   H     0.26328   0.11196   0.02839   0.00000  Uiso   1.00
H538   H     0.30171   0.04417   0.15149   0.00000  Uiso   1.00
H539   H     0.31347   0.16405   0.90951   0.00000  Uiso   1.00
H540   H     0.17710   0.14602   0.03607   0.00000  Uiso   1.00
H541   H     0.34049   0.94008   0.26914   0.00000  Uiso   1.00
H542   H     0.36527   0.19286   0.75890   0.00000  Uiso   1.00
H543   H     0.07770   0.15486   0.02577   0.00000  Uiso   1.00
O544   O     0.35254   0.79601   0.28544   0.00000  Uiso   1.00
O545   O     0.38504   0.12765   0.61602   0.00000  Uiso   1.00
O546   O     0.00775   0.07779   0.96615   0.00000  Uiso   1.00
N547   N     0.31577   0.80340   0.15736   0.00000  Uiso   1.00
N548   N     0.33894   0.03973   0.68033   0.00000  Uiso   1.00
N549   N     0.07008   0.00421   0.92980   0.00000  Uiso   1.00
N550   N     0.32945   0.90613   0.22414   0.00000  Uiso   1.00
N551   N     0.35262   0.14246   0.74710   0.00000  Uiso   1.00
N552   N     0.08376   0.10694   0.99658   0.00000  Uiso   1.00
C553   C     0.75962   0.05994   0.91666   0.00000  Uiso   1.00
C554   C     0.73551   0.07250   0.99932   0.00000  Uiso   1.00
C555   C     0.72285   0.14028   0.03162   0.00000  Uiso   1.00
C556   C     0.70111   0.14013   0.10818   0.00000  Uiso   1.00
C557   C     0.66498   0.16960   0.23002   0.00000  Uiso   1.00
C558   C     0.72911   0.00737   0.86785   0.00000  Uiso   1.00
C559   C     0.71108   0.02039   0.78961   0.00000  Uiso   1.00
C560   C     0.68397   0.96540   0.75549   0.00000  Uiso   1.00
C561   C     0.63794   0.89374   0.67319   0.00000  Uiso   1.00
C562   C     0.80321   0.01717   0.93662   0.00000  Uiso   1.00
C563   C     0.84748   0.03841   0.91618   0.00000  Uiso   1.00
C564   C     0.88275   0.99166   0.93994   0.00000  Uiso   1.00
C565   C     0.95176   0.93522   0.96442   0.00000  Uiso   1.00
C566   C     0.74353   0.93913   0.99519   0.00000  Uiso   1.00
C567   C     0.72677   0.00688   0.04197   0.00000  Uiso   1.00
C568   C     0.70505   0.00662   0.11850   0.00000  Uiso   1.00
C569   C     0.69236   0.07439   0.15091   0.00000  Uiso   1.00
C570   C     0.72037   0.94175   0.91050   0.00000  Uiso   1.00
C571   C     0.69328   0.88673   0.87649   0.00000  Uiso   1.00
C572   C     0.67521   0.89966   0.79821   0.00000  Uiso   1.00
C573   C     0.79447   0.95155   0.97927   0.00000  Uiso   1.00
C574   C     0.82968   0.90475   0.00306   0.00000  Uiso   1.00
C575   C     0.87400   0.92592   0.98266   0.00000  Uiso   1.00
H576   H     0.76642   0.11103   0.88345   0.00000  Uiso   1.00
H577   H     0.72961   0.19105   0.99859   0.00000  Uiso   1.00
H578   H     0.71785   0.07117   0.75661   0.00000  Uiso   1.00
H579   H     0.85423   0.08920   0.88317   0.00000  Uiso   1.00
H580   H     0.68494   0.25083   0.14504   0.00000  Uiso   1.00
H581   H     0.66016   0.99805   0.63480   0.00000  Uiso   1.00
H582   H     0.94773   0.03606   0.90167   0.00000  Uiso   1.00
H583   H     0.73672   0.88804   0.02839   0.00000  Uiso   1.00
H584   H     0.69829   0.95583   0.15149   0.00000  Uiso   1.00
H585   H     0.68653   0.83595   0.90951   0.00000  Uiso   1.00
H586   H     0.82290   0.85398   0.03607   0.00000  Uiso   1.00
H587   H     0.65951   0.05992   0.26914   0.00000  Uiso   1.00
H588   H     0.63473   0.80714   0.75890   0.00000  Uiso   1.00
H589   H     0.92230   0.84514   0.02577   0.00000  Uiso   1.00
O590   O     0.64746   0.20399   0.28544   0.00000  Uiso   1.00
O591   O     0.61496   0.87235   0.61602   0.00000  Uiso   1.00
O592   O     0.99225   0.92221   0.96615   0.00000  Uiso   1.00
N593   N     0.68423   0.19660   0.15736   0.00000  Uiso   1.00
N594   N     0.66106   0.96027   0.68033   0.00000  Uiso   1.00
N595   N     0.92992   0.99579   0.92980   0.00000  Uiso   1.00
N596   N     0.67055   0.09387   0.22414   0.00000  Uiso   1.00
N597   N     0.64738   0.85754   0.74710   0.00000  Uiso   1.00
N598   N     0.91624   0.89306   0.99658   0.00000  Uiso   1.00
C599   C     0.75962   0.55994   0.41666   0.00000  Uiso   1.00
C600   C     0.73551   0.57250   0.49932   0.00000  Uiso   1.00
C601   C     0.72285   0.64028   0.53162   0.00000  Uiso   1.00
C602   C     0.70111   0.64013   0.60818   0.00000  Uiso   1.00
C603   C     0.66498   0.66960   0.73002   0.00000  Uiso   1.00
C604   C     0.72911   0.50737   0.36785   0.00000  Uiso   1.00
C605   C     0.71108   0.52039   0.28961   0.00000  Uiso   1.00
C606   C     0.68397   0.46540   0.25549   0.00000  Uiso   1.00
C607   C     0.63794   0.39374   0.17319   0.00000  Uiso   1.00
C608   C     0.80321   0.51717   0.43662   0.00000  Uiso   1.00
C609   C     0.84748   0.53841   0.41618   0.00000  Uiso   1.00
C610   C     0.88275   0.49166   0.43994   0.00000  Uiso   1.00
C611   C     0.95176   0.43522   0.46442   0.00000  Uiso   1.00
C612   C     0.74353   0.43913   0.49519   0.00000  Uiso   1.00
C613   C     0.72677   0.50688   0.54197   0.00000  Uiso   1.00
C614   C     0.70505   0.50662   0.61850   0.00000  Uiso   1.00
C615   C     0.69236   0.57439   0.65091   0.00000  Uiso   1.00
C616   C     0.72037   0.44175   0.41050   0.00000  Uiso   1.00
C617   C     0.69328   0.38673   0.37649   0.00000  Uiso   1.00
C618   C     0.67521   0.39966   0.29821   0.00000  Uiso   1.00
C619   C     0.79447   0.45155   0.47927   0.00000  Uiso   1.00
C620   C     0.82968   0.40475   0.50306   0.00000  Uiso   1.00
C621   C     0.87400   0.42592   0.48266   0.00000  Uiso   1.00
H622   H     0.76642   0.61103   0.38345   0.00000  Uiso   1.00
H623   H     0.72961   0.69105   0.49859   0.00000  Uiso   1.00
H624   H     0.71785   0.57117   0.25661   0.00000  Uiso   1.00
H625   H     0.85423   0.58920   0.38317   0.00000  Uiso   1.00
H626   H     0.68494   0.75083   0.64504   0.00000  Uiso   1.00
H627   H     0.66016   0.49805   0.13480   0.00000  Uiso   1.00
H628   H     0.94773   0.53606   0.40167   0.00000  Uiso   1.00
H629   H     0.73672   0.38804   0.52839   0.00000  Uiso   1.00
H630   H     0.69829   0.45583   0.65149   0.00000  Uiso   1.00
H631   H     0.68653   0.33595   0.40951   0.00000  Uiso   1.00
H632   H     0.82290   0.35398   0.53607   0.00000  Uiso   1.00
H633   H     0.65951   0.55992   0.76914   0.00000  Uiso   1.00
H634   H     0.63473   0.30714   0.25890   0.00000  Uiso   1.00
H635   H     0.92230   0.34514   0.52577   0.00000  Uiso   1.00
O636   O     0.64746   0.70399   0.78544   0.00000  Uiso   1.00
O637   O     0.61496   0.37235   0.11602   0.00000  Uiso   1.00
O638   O     0.99225   0.42221   0.46615   0.00000  Uiso   1.00
N639   N     0.68423   0.69660   0.65736   0.00000  Uiso   1.00
N640   N     0.66106   0.46027   0.18033   0.00000  Uiso   1.00
N641   N     0.92992   0.49579   0.42980   0.00000  Uiso   1.00
N642   N     0.67055   0.59387   0.72414   0.00000  Uiso   1.00
N643   N     0.64738   0.35754   0.24710   0.00000  Uiso   1.00
N644   N     0.91624   0.39306   0.49658   0.00000  Uiso   1.00
C645   C     0.25962   0.05994   0.41666   0.00000  Uiso   1.00
C646   C     0.23551   0.07250   0.49932   0.00000  Uiso   1.00
C647   C     0.22285   0.14028   0.53162   0.00000  Uiso   1.00
C648   C     0.20111   0.14013   0.60818   0.00000  Uiso   1.00
C649   C     0.16498   0.16960   0.73002   0.00000  Uiso   1.00
C650   C     0.22911   0.00737   0.36785   0.00000  Uiso   1.00
C651   C     0.21108   0.02039   0.28961   0.00000  Uiso   1.00
C652   C     0.18397   0.96540   0.25549   0.00000  Uiso   1.00
C653   C     0.13794   0.89374   0.17319   0.00000  Uiso   1.00
C654   C     0.30321   0.01717   0.43662   0.00000  Uiso   1.00
C655   C     0.34748   0.03841   0.41618   0.00000  Uiso   1.00
C656   C     0.38275   0.99166   0.43994   0.00000  Uiso   1.00
C657   C     0.45176   0.93522   0.46442   0.00000  Uiso   1.00
C658   C     0.24353   0.93913   0.49519   0.00000  Uiso   1.00
C659   C     0.22677   0.00688   0.54197   0.00000  Uiso   1.00
C660   C     0.20505   0.00662   0.61850   0.00000  Uiso   1.00
C661   C     0.19236   0.07439   0.65091   0.00000  Uiso   1.00
C662   C     0.22037   0.94175   0.41050   0.00000  Uiso   1.00
C663   C     0.19328   0.88673   0.37649   0.00000  Uiso   1.00
C664   C     0.17521   0.89966   0.29821   0.00000  Uiso   1.00
C665   C     0.29447   0.95155   0.47927   0.00000  Uiso   1.00
C666   C     0.32968   0.90475   0.50306   0.00000  Uiso   1.00
C667   C     0.37400   0.92592   0.48266   0.00000  Uiso   1.00
H668   H     0.26642   0.11103   0.38345   0.00000  Uiso   1.00
H669   H     0.22961   0.19105   0.49859   0.00000  Uiso   1.00
H670   H     0.21785   0.07117   0.25661   0.00000  Uiso   1.00
H671   H     0.35423   0.08920   0.38317   0.00000  Uiso   1.00
H672   H     0.18494   0.25083   0.64504   0.00000  Uiso   1.00
H673   H     0.16016   0.99805   0.13480   0.00000  Uiso   1.00
H674   H     0.44773   0.03606   0.40167   0.00000  Uiso   1.00
H675   H     0.23672   0.88804   0.52839   0.00000  Uiso   1.00
H676   H     0.19829   0.95583   0.65149   0.00000  Uiso   1.00
H677   H     0.18653   0.83595   0.40951   0.00000  Uiso   1.00
H678   H     0.32290   0.85398   0.53607   0.00000  Uiso   1.00
H679   H     0.15951   0.05992   0.76914   0.00000  Uiso   1.00
H680   H     0.13473   0.80714   0.25890   0.00000  Uiso   1.00
H681   H     0.42230   0.84514   0.52577   0.00000  Uiso   1.00
O682   O     0.14746   0.20399   0.78544   0.00000  Uiso   1.00
O683   O     0.11496   0.87235   0.11602   0.00000  Uiso   1.00
O684   O     0.49225   0.92221   0.46615   0.00000  Uiso   1.00
N685   N     0.18423   0.19660   0.65736   0.00000  Uiso   1.00
N686   N     0.16106   0.96027   0.18033   0.00000  Uiso   1.00
N687   N     0.42992   0.99579   0.42980   0.00000  Uiso   1.00
N688   N     0.17055   0.09387   0.72414   0.00000  Uiso   1.00
N689   N     0.14738   0.85754   0.24710   0.00000  Uiso   1.00
N690   N     0.41624   0.89306   0.49658   0.00000  Uiso   1.00
C691   C     0.25962   0.55994   0.91666   0.00000  Uiso   1.00
C692   C     0.23551   0.57250   0.99932   0.00000  Uiso   1.00
C693   C     0.22285   0.64028   0.03162   0.00000  Uiso   1.00
C694   C     0.20111   0.64013   0.10818   0.00000  Uiso   1.00
C695   C     0.16498   0.66960   0.23002   0.00000  Uiso   1.00
C696   C     0.22911   0.50737   0.86785   0.00000  Uiso   1.00
C697   C     0.21108   0.52039   0.78961   0.00000  Uiso   1.00
C698   C     0.18397   0.46540   0.75549   0.00000  Uiso   1.00
C699   C     0.13794   0.39374   0.67319   0.00000  Uiso   1.00
C700   C     0.30321   0.51717   0.93662   0.00000  Uiso   1.00
C701   C     0.34748   0.53841   0.91618   0.00000  Uiso   1.00
C702   C     0.38275   0.49166   0.93994   0.00000  Uiso   1.00
C703   C     0.45176   0.43522   0.96442   0.00000  Uiso   1.00
C704   C     0.24353   0.43913   0.99519   0.00000  Uiso   1.00
C705   C     0.22677   0.50688   0.04197   0.00000  Uiso   1.00
C706   C     0.20505   0.50662   0.11850   0.00000  Uiso   1.00
C707   C     0.19236   0.57439   0.15091   0.00000  Uiso   1.00
C708   C     0.22037   0.44175   0.91050   0.00000  Uiso   1.00
C709   C     0.19328   0.38673   0.87649   0.00000  Uiso   1.00
C710   C     0.17521   0.39966   0.79821   0.00000  Uiso   1.00
C711   C     0.29447   0.45155   0.97927   0.00000  Uiso   1.00
C712   C     0.32968   0.40475   0.00306   0.00000  Uiso   1.00
C713   C     0.37400   0.42592   0.98266   0.00000  Uiso   1.00
H714   H     0.26642   0.61103   0.88345   0.00000  Uiso   1.00
H715   H     0.22961   0.69105   0.99859   0.00000  Uiso   1.00
H716   H     0.21785   0.57117   0.75661   0.00000  Uiso   1.00
H717   H     0.35423   0.58920   0.88317   0.00000  Uiso   1.00
H718   H     0.18494   0.75083   0.14504   0.00000  Uiso   1.00
H719   H     0.16016   0.49805   0.63480   0.00000  Uiso   1.00
H720   H     0.44773   0.53606   0.90167   0.00000  Uiso   1.00
H721   H     0.23672   0.38804   0.02839   0.00000  Uiso   1.00
H722   H     0.19829   0.45583   0.15149   0.00000  Uiso   1.00
H723   H     0.18653   0.33595   0.90951   0.00000  Uiso   1.00
H724   H     0.32290   0.35398   0.03607   0.00000  Uiso   1.00
H725   H     0.15951   0.55992   0.26914   0.00000  Uiso   1.00
H726   H     0.13473   0.30714   0.75890   0.00000  Uiso   1.00
H727   H     0.42230   0.34514   0.02577   0.00000  Uiso   1.00
O728   O     0.14746   0.70399   0.28544   0.00000  Uiso   1.00
O729   O     0.11496   0.37235   0.61602   0.00000  Uiso   1.00
O730   O     0.49225   0.42221   0.96615   0.00000  Uiso   1.00
N731   N     0.18423   0.69660   0.15736   0.00000  Uiso   1.00
N732   N     0.16106   0.46027   0.68033   0.00000  Uiso   1.00
N733   N     0.42992   0.49579   0.92980   0.00000  Uiso   1.00
N734   N     0.17055   0.59387   0.22414   0.00000  Uiso   1.00
N735   N     0.14738   0.35754   0.74710   0.00000  Uiso   1.00
N736   N     0.41624   0.39306   0.99658   0.00000  Uiso   1.00
