data_job_03004
_audit_creation_date              2018-12-19
_audit_creation_method            'Materials Studio'
_symmetry_space_group_name_H-M    'P1'
_symmetry_Int_Tables_number       1
_symmetry_cell_setting            triclinic
loop_
_symmetry_equiv_pos_as_xyz
  x,y,z
_cell_length_a                    16.1024
_cell_length_b                    16.1024
_cell_length_c                    34.9599
_cell_angle_alpha                 90.0000
_cell_angle_beta                  90.0000
_cell_angle_gamma                 90.0000
loop_
_atom_site_label
_atom_site_type_symbol
_atom_site_fract_x
_atom_site_fract_y
_atom_site_fract_z
_atom_site_U_iso_or_equiv
_atom_site_adp_type
_atom_site_occupancy
C1     C     0.43698   0.77022   0.27274   0.00000  Uiso   1.00
C2     C     0.41278   0.83873   0.30072   0.00000  Uiso   1.00
C3     C     0.41832   0.92344   0.29387   0.00000  Uiso   1.00
C4     C     0.39311   0.97603   0.32312   0.00000  Uiso   1.00
C5     C     0.36009   0.08713   0.36128   0.00000  Uiso   1.00
C6     C     0.50075   0.71663   0.29349   0.00000  Uiso   1.00
C7     C     0.58024   0.69868   0.28057   0.00000  Uiso   1.00
C8     C     0.62908   0.64848   0.30373   0.00000  Uiso   1.00
C9     C     0.73260   0.56998   0.33066   0.00000  Uiso   1.00
C10    C     0.35999   0.71608   0.26795   0.00000  Uiso   1.00
C11    C     0.32113   0.69764   0.23354   0.00000  Uiso   1.00
C12    C     0.25147   0.64695   0.23520   0.00000  Uiso   1.00
C13    C     0.13644   0.56759   0.22246   0.00000  Uiso   1.00
C14    C     0.38236   0.71298   0.33686   0.00000  Uiso   1.00
C15    C     0.38312   0.80763   0.33554   0.00000  Uiso   1.00
C16    C     0.35789   0.86011   0.36481   0.00000  Uiso   1.00
C17    C     0.36339   0.94488   0.35801   0.00000  Uiso   1.00
C18    C     0.47108   0.68554   0.32832   0.00000  Uiso   1.00
C19    C     0.51981   0.63535   0.35151   0.00000  Uiso   1.00
C20    C     0.59936   0.61733   0.33862   0.00000  Uiso   1.00
C21    C     0.33032   0.68498   0.30277   0.00000  Uiso   1.00
C22    C     0.26070   0.63431   0.30448   0.00000  Uiso   1.00
C23    C     0.22175   0.61580   0.27009   0.00000  Uiso   1.00
H24    H     0.46008   0.79442   0.24562   0.00000  Uiso   1.00
H25    H     0.44129   0.94747   0.26692   0.00000  Uiso   1.00
H26    H     0.60318   0.72274   0.25361   0.00000  Uiso   1.00
H27    H     0.34411   0.72171   0.20660   0.00000  Uiso   1.00
H28    H     0.40740   0.10345   0.30589   0.00000  Uiso   1.00
H29    H     0.74874   0.62957   0.27783   0.00000  Uiso   1.00
H30    H     0.20245   0.62738   0.17869   0.00000  Uiso   1.00
H31    H     0.35926   0.68877   0.36397   0.00000  Uiso   1.00
H32    H     0.33494   0.83603   0.39176   0.00000  Uiso   1.00
H33    H     0.49683   0.61130   0.37845   0.00000  Uiso   1.00
H34    H     0.23776   0.61026   0.33144   0.00000  Uiso   1.00
H35    H     0.32109   0.01299   0.40722   0.00000  Uiso   1.00
H36    H     0.66243   0.53911   0.37916   0.00000  Uiso   1.00
H37    H     0.11614   0.53693   0.28001   0.00000  Uiso   1.00
O38    O     0.35009   0.15700   0.37270   0.00000  Uiso   1.00
O39    O     0.79791   0.53528   0.33589   0.00000  Uiso   1.00
O40    O     0.08119   0.53241   0.20581   0.00000  Uiso   1.00
N41    N     0.39041   0.06195   0.32592   0.00000  Uiso   1.00
N42    N     0.70955   0.61891   0.29969   0.00000  Uiso   1.00
N43    N     0.19883   0.61685   0.20700   0.00000  Uiso   1.00
N44    N     0.34396   0.01328   0.38044   0.00000  Uiso   1.00
N45    N     0.66310   0.57024   0.35421   0.00000  Uiso   1.00
N46    N     0.15238   0.56818   0.26152   0.00000  Uiso   1.00
C47    C     0.93698   0.27022   0.77274   0.00000  Uiso   1.00
C48    C     0.91278   0.33873   0.80072   0.00000  Uiso   1.00
C49    C     0.91832   0.42344   0.79387   0.00000  Uiso   1.00
C50    C     0.89311   0.47603   0.82312   0.00000  Uiso   1.00
C51    C     0.86009   0.58713   0.86128   0.00000  Uiso   1.00
C52    C     0.00075   0.21663   0.79349   0.00000  Uiso   1.00
C53    C     0.08024   0.19868   0.78057   0.00000  Uiso   1.00
C54    C     0.12908   0.14848   0.80373   0.00000  Uiso   1.00
C55    C     0.23260   0.06998   0.83066   0.00000  Uiso   1.00
C56    C     0.85999   0.21608   0.76795   0.00000  Uiso   1.00
C57    C     0.82113   0.19764   0.73354   0.00000  Uiso   1.00
C58    C     0.75147   0.14695   0.73520   0.00000  Uiso   1.00
C59    C     0.63644   0.06759   0.72246   0.00000  Uiso   1.00
C60    C     0.88236   0.21298   0.83686   0.00000  Uiso   1.00
C61    C     0.88312   0.30763   0.83554   0.00000  Uiso   1.00
C62    C     0.85789   0.36011   0.86481   0.00000  Uiso   1.00
C63    C     0.86339   0.44488   0.85801   0.00000  Uiso   1.00
C64    C     0.97108   0.18554   0.82832   0.00000  Uiso   1.00
C65    C     0.01981   0.13535   0.85151   0.00000  Uiso   1.00
C66    C     0.09936   0.11733   0.83862   0.00000  Uiso   1.00
C67    C     0.83032   0.18498   0.80277   0.00000  Uiso   1.00
C68    C     0.76070   0.13431   0.80448   0.00000  Uiso   1.00
C69    C     0.72175   0.11580   0.77009   0.00000  Uiso   1.00
H70    H     0.96008   0.29442   0.74562   0.00000  Uiso   1.00
H71    H     0.94129   0.44747   0.76692   0.00000  Uiso   1.00
H72    H     0.10318   0.22274   0.75361   0.00000  Uiso   1.00
H73    H     0.84411   0.22171   0.70660   0.00000  Uiso   1.00
H74    H     0.90740   0.60345   0.80589   0.00000  Uiso   1.00
H75    H     0.24874   0.12957   0.77783   0.00000  Uiso   1.00
H76    H     0.70245   0.12738   0.67869   0.00000  Uiso   1.00
H77    H     0.85926   0.18877   0.86397   0.00000  Uiso   1.00
H78    H     0.83494   0.33603   0.89176   0.00000  Uiso   1.00
H79    H     0.99683   0.11130   0.87845   0.00000  Uiso   1.00
H80    H     0.73776   0.11026   0.83144   0.00000  Uiso   1.00
H81    H     0.82109   0.51299   0.90722   0.00000  Uiso   1.00
H82    H     0.16243   0.03911   0.87916   0.00000  Uiso   1.00
H83    H     0.61614   0.03693   0.78001   0.00000  Uiso   1.00
O84    O     0.85009   0.65700   0.87270   0.00000  Uiso   1.00
O85    O     0.29791   0.03528   0.83589   0.00000  Uiso   1.00
O86    O     0.58119   0.03241   0.70581   0.00000  Uiso   1.00
N87    N     0.89041   0.56195   0.82592   0.00000  Uiso   1.00
N88    N     0.20955   0.11891   0.79969   0.00000  Uiso   1.00
N89    N     0.69883   0.11685   0.70700   0.00000  Uiso   1.00
N90    N     0.84396   0.51328   0.88044   0.00000  Uiso   1.00
N91    N     0.16310   0.07024   0.85421   0.00000  Uiso   1.00
N92    N     0.65238   0.06818   0.76152   0.00000  Uiso   1.00
C93    C     0.06302   0.72978   0.77274   0.00000  Uiso   1.00
C94    C     0.08722   0.66127   0.80072   0.00000  Uiso   1.00
C95    C     0.08168   0.57656   0.79387   0.00000  Uiso   1.00
C96    C     0.10689   0.52397   0.82312   0.00000  Uiso   1.00
C97    C     0.13991   0.41287   0.86128   0.00000  Uiso   1.00
C98    C     0.99925   0.78337   0.79349   0.00000  Uiso   1.00
C99    C     0.91976   0.80132   0.78057   0.00000  Uiso   1.00
C100   C     0.87092   0.85152   0.80373   0.00000  Uiso   1.00
C101   C     0.76740   0.93002   0.83066   0.00000  Uiso   1.00
C102   C     0.14001   0.78392   0.76795   0.00000  Uiso   1.00
C103   C     0.17887   0.80236   0.73354   0.00000  Uiso   1.00
C104   C     0.24853   0.85305   0.73520   0.00000  Uiso   1.00
C105   C     0.36356   0.93241   0.72246   0.00000  Uiso   1.00
C106   C     0.11764   0.78702   0.83686   0.00000  Uiso   1.00
C107   C     0.11688   0.69237   0.83554   0.00000  Uiso   1.00
C108   C     0.14211   0.63989   0.86481   0.00000  Uiso   1.00
C109   C     0.13661   0.55512   0.85801   0.00000  Uiso   1.00
C110   C     0.02892   0.81446   0.82832   0.00000  Uiso   1.00
C111   C     0.98019   0.86465   0.85151   0.00000  Uiso   1.00
C112   C     0.90064   0.88267   0.83862   0.00000  Uiso   1.00
C113   C     0.16968   0.81502   0.80277   0.00000  Uiso   1.00
C114   C     0.23930   0.86569   0.80448   0.00000  Uiso   1.00
C115   C     0.27825   0.88420   0.77009   0.00000  Uiso   1.00
H116   H     0.03992   0.70558   0.74562   0.00000  Uiso   1.00
H117   H     0.05871   0.55253   0.76692   0.00000  Uiso   1.00
H118   H     0.89682   0.77726   0.75361   0.00000  Uiso   1.00
H119   H     0.15589   0.77829   0.70660   0.00000  Uiso   1.00
H120   H     0.09260   0.39655   0.80589   0.00000  Uiso   1.00
H121   H     0.75126   0.87043   0.77783   0.00000  Uiso   1.00
H122   H     0.29755   0.87262   0.67869   0.00000  Uiso   1.00
H123   H     0.14074   0.81123   0.86397   0.00000  Uiso   1.00
H124   H     0.16506   0.66397   0.89176   0.00000  Uiso   1.00
H125   H     0.00317   0.88870   0.87845   0.00000  Uiso   1.00
H126   H     0.26224   0.88974   0.83144   0.00000  Uiso   1.00
H127   H     0.17891   0.48701   0.90722   0.00000  Uiso   1.00
H128   H     0.83757   0.96089   0.87916   0.00000  Uiso   1.00
H129   H     0.38386   0.96307   0.78001   0.00000  Uiso   1.00
O130   O     0.14991   0.34300   0.87270   0.00000  Uiso   1.00
O131   O     0.70209   0.96472   0.83589   0.00000  Uiso   1.00
O132   O     0.41881   0.96759   0.70581   0.00000  Uiso   1.00
N133   N     0.10959   0.43805   0.82592   0.00000  Uiso   1.00
N134   N     0.79045   0.88109   0.79969   0.00000  Uiso   1.00
N135   N     0.30117   0.88315   0.70700   0.00000  Uiso   1.00
N136   N     0.15604   0.48672   0.88044   0.00000  Uiso   1.00
N137   N     0.83690   0.92976   0.85421   0.00000  Uiso   1.00
N138   N     0.34762   0.93182   0.76152   0.00000  Uiso   1.00
C139   C     0.56302   0.22978   0.27274   0.00000  Uiso   1.00
C140   C     0.58722   0.16127   0.30072   0.00000  Uiso   1.00
C141   C     0.58168   0.07656   0.29387   0.00000  Uiso   1.00
C142   C     0.60689   0.02397   0.32312   0.00000  Uiso   1.00
C143   C     0.63991   0.91287   0.36128   0.00000  Uiso   1.00
C144   C     0.49925   0.28337   0.29349   0.00000  Uiso   1.00
C145   C     0.41976   0.30132   0.28057   0.00000  Uiso   1.00
C146   C     0.37092   0.35152   0.30373   0.00000  Uiso   1.00
C147   C     0.26740   0.43002   0.33066   0.00000  Uiso   1.00
C148   C     0.64001   0.28392   0.26795   0.00000  Uiso   1.00
C149   C     0.67887   0.30236   0.23354   0.00000  Uiso   1.00
C150   C     0.74853   0.35305   0.23520   0.00000  Uiso   1.00
C151   C     0.86356   0.43241   0.22246   0.00000  Uiso   1.00
C152   C     0.61764   0.28702   0.33686   0.00000  Uiso   1.00
C153   C     0.61688   0.19237   0.33554   0.00000  Uiso   1.00
C154   C     0.64211   0.13989   0.36481   0.00000  Uiso   1.00
C155   C     0.63661   0.05512   0.35801   0.00000  Uiso   1.00
C156   C     0.52892   0.31446   0.32832   0.00000  Uiso   1.00
C157   C     0.48019   0.36465   0.35151   0.00000  Uiso   1.00
C158   C     0.40064   0.38267   0.33862   0.00000  Uiso   1.00
C159   C     0.66968   0.31502   0.30277   0.00000  Uiso   1.00
C160   C     0.73930   0.36569   0.30448   0.00000  Uiso   1.00
C161   C     0.77825   0.38420   0.27009   0.00000  Uiso   1.00
H162   H     0.53992   0.20558   0.24562   0.00000  Uiso   1.00
H163   H     0.55871   0.05253   0.26692   0.00000  Uiso   1.00
H164   H     0.39682   0.27726   0.25361   0.00000  Uiso   1.00
H165   H     0.65589   0.27829   0.20660   0.00000  Uiso   1.00
H166   H     0.59260   0.89655   0.30589   0.00000  Uiso   1.00
H167   H     0.25126   0.37043   0.27783   0.00000  Uiso   1.00
H168   H     0.79755   0.37262   0.17869   0.00000  Uiso   1.00
H169   H     0.64074   0.31123   0.36397   0.00000  Uiso   1.00
H170   H     0.66506   0.16397   0.39176   0.00000  Uiso   1.00
H171   H     0.50317   0.38870   0.37845   0.00000  Uiso   1.00
H172   H     0.76224   0.38974   0.33144   0.00000  Uiso   1.00
H173   H     0.67891   0.98701   0.40722   0.00000  Uiso   1.00
H174   H     0.33757   0.46089   0.37916   0.00000  Uiso   1.00
H175   H     0.88386   0.46307   0.28001   0.00000  Uiso   1.00
O176   O     0.64991   0.84300   0.37270   0.00000  Uiso   1.00
O177   O     0.20209   0.46472   0.33589   0.00000  Uiso   1.00
O178   O     0.91881   0.46759   0.20581   0.00000  Uiso   1.00
N179   N     0.60959   0.93805   0.32592   0.00000  Uiso   1.00
N180   N     0.29045   0.38109   0.29969   0.00000  Uiso   1.00
N181   N     0.80117   0.38315   0.20700   0.00000  Uiso   1.00
N182   N     0.65604   0.98672   0.38044   0.00000  Uiso   1.00
N183   N     0.33690   0.42976   0.35421   0.00000  Uiso   1.00
N184   N     0.84762   0.43182   0.26152   0.00000  Uiso   1.00
C185   C     0.22978   0.93698   0.52274   0.00000  Uiso   1.00
C186   C     0.16127   0.91278   0.55072   0.00000  Uiso   1.00
C187   C     0.07656   0.91832   0.54387   0.00000  Uiso   1.00
C188   C     0.02397   0.89311   0.57312   0.00000  Uiso   1.00
C189   C     0.91287   0.86009   0.61128   0.00000  Uiso   1.00
C190   C     0.28337   0.00075   0.54349   0.00000  Uiso   1.00
C191   C     0.30132   0.08024   0.53057   0.00000  Uiso   1.00
C192   C     0.35152   0.12908   0.55373   0.00000  Uiso   1.00
C193   C     0.43002   0.23260   0.58066   0.00000  Uiso   1.00
C194   C     0.28392   0.85999   0.51795   0.00000  Uiso   1.00
C195   C     0.30236   0.82113   0.48354   0.00000  Uiso   1.00
C196   C     0.35305   0.75147   0.48520   0.00000  Uiso   1.00
C197   C     0.43241   0.63644   0.47246   0.00000  Uiso   1.00
C198   C     0.28702   0.88236   0.58686   0.00000  Uiso   1.00
C199   C     0.19237   0.88312   0.58554   0.00000  Uiso   1.00
C200   C     0.13989   0.85789   0.61481   0.00000  Uiso   1.00
C201   C     0.05512   0.86339   0.60801   0.00000  Uiso   1.00
C202   C     0.31446   0.97108   0.57832   0.00000  Uiso   1.00
C203   C     0.36465   0.01981   0.60151   0.00000  Uiso   1.00
C204   C     0.38267   0.09936   0.58862   0.00000  Uiso   1.00
C205   C     0.31502   0.83032   0.55277   0.00000  Uiso   1.00
C206   C     0.36569   0.76070   0.55448   0.00000  Uiso   1.00
C207   C     0.38420   0.72175   0.52009   0.00000  Uiso   1.00
H208   H     0.20558   0.96008   0.49562   0.00000  Uiso   1.00
H209   H     0.05253   0.94129   0.51692   0.00000  Uiso   1.00
H210   H     0.27726   0.10318   0.50361   0.00000  Uiso   1.00
H211   H     0.27829   0.84411   0.45660   0.00000  Uiso   1.00
H212   H     0.89655   0.90740   0.55589   0.00000  Uiso   1.00
H213   H     0.37043   0.24874   0.52783   0.00000  Uiso   1.00
H214   H     0.37262   0.70245   0.42869   0.00000  Uiso   1.00
H215   H     0.31123   0.85926   0.61397   0.00000  Uiso   1.00
H216   H     0.16397   0.83494   0.64176   0.00000  Uiso   1.00
H217   H     0.38870   0.99683   0.62845   0.00000  Uiso   1.00
H218   H     0.38974   0.73776   0.58144   0.00000  Uiso   1.00
H219   H     0.98701   0.82109   0.65722   0.00000  Uiso   1.00
H220   H     0.46089   0.16243   0.62916   0.00000  Uiso   1.00
H221   H     0.46307   0.61614   0.53001   0.00000  Uiso   1.00
O222   O     0.84300   0.85009   0.62270   0.00000  Uiso   1.00
O223   O     0.46472   0.29791   0.58589   0.00000  Uiso   1.00
O224   O     0.46759   0.58119   0.45581   0.00000  Uiso   1.00
N225   N     0.93805   0.89041   0.57592   0.00000  Uiso   1.00
N226   N     0.38109   0.20955   0.54969   0.00000  Uiso   1.00
N227   N     0.38315   0.69883   0.45700   0.00000  Uiso   1.00
N228   N     0.98672   0.84396   0.63044   0.00000  Uiso   1.00
N229   N     0.42976   0.16310   0.60421   0.00000  Uiso   1.00
N230   N     0.43182   0.65238   0.51152   0.00000  Uiso   1.00
C231   C     0.72978   0.43698   0.02274   0.00000  Uiso   1.00
C232   C     0.66127   0.41278   0.05072   0.00000  Uiso   1.00
C233   C     0.57656   0.41832   0.04387   0.00000  Uiso   1.00
C234   C     0.52397   0.39311   0.07312   0.00000  Uiso   1.00
C235   C     0.41287   0.36009   0.11128   0.00000  Uiso   1.00
C236   C     0.78337   0.50075   0.04349   0.00000  Uiso   1.00
C237   C     0.80132   0.58024   0.03057   0.00000  Uiso   1.00
C238   C     0.85152   0.62908   0.05373   0.00000  Uiso   1.00
C239   C     0.93002   0.73260   0.08066   0.00000  Uiso   1.00
C240   C     0.78392   0.35999   0.01795   0.00000  Uiso   1.00
C241   C     0.80236   0.32113   0.98354   0.00000  Uiso   1.00
C242   C     0.85305   0.25147   0.98520   0.00000  Uiso   1.00
C243   C     0.93241   0.13644   0.97246   0.00000  Uiso   1.00
C244   C     0.78702   0.38236   0.08686   0.00000  Uiso   1.00
C245   C     0.69237   0.38312   0.08554   0.00000  Uiso   1.00
C246   C     0.63989   0.35789   0.11481   0.00000  Uiso   1.00
C247   C     0.55512   0.36339   0.10801   0.00000  Uiso   1.00
C248   C     0.81446   0.47108   0.07832   0.00000  Uiso   1.00
C249   C     0.86465   0.51981   0.10151   0.00000  Uiso   1.00
C250   C     0.88267   0.59936   0.08862   0.00000  Uiso   1.00
C251   C     0.81502   0.33032   0.05277   0.00000  Uiso   1.00
C252   C     0.86569   0.26070   0.05448   0.00000  Uiso   1.00
C253   C     0.88420   0.22175   0.02009   0.00000  Uiso   1.00
H254   H     0.70558   0.46008   0.99562   0.00000  Uiso   1.00
H255   H     0.55253   0.44129   0.01692   0.00000  Uiso   1.00
H256   H     0.77726   0.60318   0.00361   0.00000  Uiso   1.00
H257   H     0.77829   0.34411   0.95660   0.00000  Uiso   1.00
H258   H     0.39655   0.40740   0.05589   0.00000  Uiso   1.00
H259   H     0.87043   0.74874   0.02783   0.00000  Uiso   1.00
H260   H     0.87262   0.20245   0.92869   0.00000  Uiso   1.00
H261   H     0.81123   0.35926   0.11397   0.00000  Uiso   1.00
H262   H     0.66397   0.33494   0.14176   0.00000  Uiso   1.00
H263   H     0.88870   0.49683   0.12845   0.00000  Uiso   1.00
H264   H     0.88974   0.23776   0.08144   0.00000  Uiso   1.00
H265   H     0.48701   0.32109   0.15722   0.00000  Uiso   1.00
H266   H     0.96089   0.66243   0.12916   0.00000  Uiso   1.00
H267   H     0.96307   0.11614   0.03001   0.00000  Uiso   1.00
O268   O     0.34300   0.35009   0.12270   0.00000  Uiso   1.00
O269   O     0.96472   0.79791   0.08589   0.00000  Uiso   1.00
O270   O     0.96759   0.08119   0.95581   0.00000  Uiso   1.00
N271   N     0.43805   0.39041   0.07592   0.00000  Uiso   1.00
N272   N     0.88109   0.70955   0.04969   0.00000  Uiso   1.00
N273   N     0.88315   0.19883   0.95700   0.00000  Uiso   1.00
N274   N     0.48672   0.34396   0.13044   0.00000  Uiso   1.00
N275   N     0.92976   0.66310   0.10421   0.00000  Uiso   1.00
N276   N     0.93182   0.15238   0.01152   0.00000  Uiso   1.00
C277   C     0.27022   0.56302   0.02274   0.00000  Uiso   1.00
C278   C     0.33873   0.58722   0.05072   0.00000  Uiso   1.00
C279   C     0.42344   0.58168   0.04387   0.00000  Uiso   1.00
C280   C     0.47603   0.60689   0.07312   0.00000  Uiso   1.00
C281   C     0.58713   0.63991   0.11128   0.00000  Uiso   1.00
C282   C     0.21663   0.49925   0.04349   0.00000  Uiso   1.00
C283   C     0.19868   0.41976   0.03057   0.00000  Uiso   1.00
C284   C     0.14848   0.37092   0.05373   0.00000  Uiso   1.00
C285   C     0.06998   0.26740   0.08066   0.00000  Uiso   1.00
C286   C     0.21608   0.64001   0.01795   0.00000  Uiso   1.00
C287   C     0.19764   0.67887   0.98354   0.00000  Uiso   1.00
C288   C     0.14695   0.74853   0.98520   0.00000  Uiso   1.00
C289   C     0.06759   0.86356   0.97246   0.00000  Uiso   1.00
C290   C     0.21298   0.61764   0.08686   0.00000  Uiso   1.00
C291   C     0.30763   0.61688   0.08554   0.00000  Uiso   1.00
C292   C     0.36011   0.64211   0.11481   0.00000  Uiso   1.00
C293   C     0.44488   0.63661   0.10801   0.00000  Uiso   1.00
C294   C     0.18554   0.52892   0.07832   0.00000  Uiso   1.00
C295   C     0.13535   0.48019   0.10151   0.00000  Uiso   1.00
C296   C     0.11733   0.40064   0.08862   0.00000  Uiso   1.00
C297   C     0.18498   0.66968   0.05277   0.00000  Uiso   1.00
C298   C     0.13431   0.73930   0.05448   0.00000  Uiso   1.00
C299   C     0.11580   0.77825   0.02009   0.00000  Uiso   1.00
H300   H     0.29442   0.53992   0.99562   0.00000  Uiso   1.00
H301   H     0.44747   0.55871   0.01692   0.00000  Uiso   1.00
H302   H     0.22274   0.39682   0.00361   0.00000  Uiso   1.00
H303   H     0.22171   0.65589   0.95660   0.00000  Uiso   1.00
H304   H     0.60345   0.59260   0.05589   0.00000  Uiso   1.00
H305   H     0.12957   0.25126   0.02783   0.00000  Uiso   1.00
H306   H     0.12738   0.79755   0.92869   0.00000  Uiso   1.00
H307   H     0.18877   0.64074   0.11397   0.00000  Uiso   1.00
H308   H     0.33603   0.66506   0.14176   0.00000  Uiso   1.00
H309   H     0.11130   0.50317   0.12845   0.00000  Uiso   1.00
H310   H     0.11026   0.76224   0.08144   0.00000  Uiso   1.00
H311   H     0.51299   0.67891   0.15722   0.00000  Uiso   1.00
H312   H     0.03911   0.33757   0.12916   0.00000  Uiso   1.00
H313   H     0.03693   0.88386   0.03001   0.00000  Uiso   1.00
O314   O     0.65700   0.64991   0.12270   0.00000  Uiso   1.00
O315   O     0.03528   0.20209   0.08589   0.00000  Uiso   1.00
O316   O     0.03241   0.91881   0.95581   0.00000  Uiso   1.00
N317   N     0.56195   0.60959   0.07592   0.00000  Uiso   1.00
N318   N     0.11891   0.29045   0.04969   0.00000  Uiso   1.00
N319   N     0.11685   0.80117   0.95700   0.00000  Uiso   1.00
N320   N     0.51328   0.65604   0.13044   0.00000  Uiso   1.00
N321   N     0.07024   0.33690   0.10421   0.00000  Uiso   1.00
N322   N     0.06818   0.84762   0.01152   0.00000  Uiso   1.00
C323   C     0.77022   0.06302   0.52274   0.00000  Uiso   1.00
C324   C     0.83873   0.08722   0.55072   0.00000  Uiso   1.00
C325   C     0.92344   0.08168   0.54387   0.00000  Uiso   1.00
C326   C     0.97603   0.10689   0.57312   0.00000  Uiso   1.00
C327   C     0.08713   0.13991   0.61128   0.00000  Uiso   1.00
C328   C     0.71663   0.99925   0.54349   0.00000  Uiso   1.00
C329   C     0.69868   0.91976   0.53057   0.00000  Uiso   1.00
C330   C     0.64848   0.87092   0.55373   0.00000  Uiso   1.00
C331   C     0.56998   0.76740   0.58066   0.00000  Uiso   1.00
C332   C     0.71608   0.14001   0.51795   0.00000  Uiso   1.00
C333   C     0.69764   0.17887   0.48354   0.00000  Uiso   1.00
C334   C     0.64695   0.24853   0.48520   0.00000  Uiso   1.00
C335   C     0.56759   0.36356   0.47246   0.00000  Uiso   1.00
C336   C     0.71298   0.11764   0.58686   0.00000  Uiso   1.00
C337   C     0.80763   0.11688   0.58554   0.00000  Uiso   1.00
C338   C     0.86011   0.14211   0.61481   0.00000  Uiso   1.00
C339   C     0.94488   0.13661   0.60801   0.00000  Uiso   1.00
C340   C     0.68554   0.02892   0.57832   0.00000  Uiso   1.00
C341   C     0.63535   0.98019   0.60151   0.00000  Uiso   1.00
C342   C     0.61733   0.90064   0.58862   0.00000  Uiso   1.00
C343   C     0.68498   0.16968   0.55277   0.00000  Uiso   1.00
C344   C     0.63431   0.23930   0.55448   0.00000  Uiso   1.00
C345   C     0.61580   0.27825   0.52009   0.00000  Uiso   1.00
H346   H     0.79442   0.03992   0.49562   0.00000  Uiso   1.00
H347   H     0.94747   0.05871   0.51692   0.00000  Uiso   1.00
H348   H     0.72274   0.89682   0.50361   0.00000  Uiso   1.00
H349   H     0.72171   0.15589   0.45660   0.00000  Uiso   1.00
H350   H     0.10345   0.09260   0.55589   0.00000  Uiso   1.00
H351   H     0.62957   0.75126   0.52783   0.00000  Uiso   1.00
H352   H     0.62738   0.29755   0.42869   0.00000  Uiso   1.00
H353   H     0.68877   0.14074   0.61397   0.00000  Uiso   1.00
H354   H     0.83603   0.16506   0.64176   0.00000  Uiso   1.00
H355   H     0.61130   0.00317   0.62845   0.00000  Uiso   1.00
H356   H     0.61026   0.26224   0.58144   0.00000  Uiso   1.00
H357   H     0.01299   0.17891   0.65722   0.00000  Uiso   1.00
H358   H     0.53911   0.83757   0.62916   0.00000  Uiso   1.00
H359   H     0.53693   0.38386   0.53001   0.00000  Uiso   1.00
O360   O     0.15700   0.14991   0.62270   0.00000  Uiso   1.00
O361   O     0.53528   0.70209   0.58589   0.00000  Uiso   1.00
O362   O     0.53241   0.41881   0.45581   0.00000  Uiso   1.00
N363   N     0.06195   0.10959   0.57592   0.00000  Uiso   1.00
N364   N     0.61891   0.79045   0.54969   0.00000  Uiso   1.00
N365   N     0.61685   0.30117   0.45700   0.00000  Uiso   1.00
N366   N     0.01328   0.15604   0.63044   0.00000  Uiso   1.00
N367   N     0.57024   0.83690   0.60421   0.00000  Uiso   1.00
N368   N     0.56818   0.34762   0.51152   0.00000  Uiso   1.00
C369   C     0.56302   0.72978   0.97726   0.00000  Uiso   1.00
C370   C     0.58722   0.66127   0.94928   0.00000  Uiso   1.00
C371   C     0.58168   0.57656   0.95613   0.00000  Uiso   1.00
C372   C     0.60689   0.52397   0.92688   0.00000  Uiso   1.00
C373   C     0.63991   0.41287   0.88872   0.00000  Uiso   1.00
C374   C     0.49925   0.78337   0.95651   0.00000  Uiso   1.00
C375   C     0.41976   0.80132   0.96943   0.00000  Uiso   1.00
C376   C     0.37092   0.85152   0.94627   0.00000  Uiso   1.00
C377   C     0.26740   0.93002   0.91934   0.00000  Uiso   1.00
C378   C     0.64001   0.78392   0.98205   0.00000  Uiso   1.00
C379   C     0.67887   0.80236   0.01646   0.00000  Uiso   1.00
C380   C     0.74853   0.85305   0.01480   0.00000  Uiso   1.00
C381   C     0.86356   0.93241   0.02754   0.00000  Uiso   1.00
C382   C     0.61764   0.78702   0.91314   0.00000  Uiso   1.00
C383   C     0.61688   0.69237   0.91446   0.00000  Uiso   1.00
C384   C     0.64211   0.63989   0.88519   0.00000  Uiso   1.00
C385   C     0.63661   0.55512   0.89199   0.00000  Uiso   1.00
C386   C     0.52892   0.81446   0.92168   0.00000  Uiso   1.00
C387   C     0.48019   0.86465   0.89849   0.00000  Uiso   1.00
C388   C     0.40064   0.88267   0.91138   0.00000  Uiso   1.00
C389   C     0.66968   0.81502   0.94723   0.00000  Uiso   1.00
C390   C     0.73930   0.86569   0.94552   0.00000  Uiso   1.00
C391   C     0.77825   0.88420   0.97991   0.00000  Uiso   1.00
H392   H     0.53992   0.70558   0.00438   0.00000  Uiso   1.00
H393   H     0.55871   0.55253   0.98308   0.00000  Uiso   1.00
H394   H     0.39682   0.77726   0.99639   0.00000  Uiso   1.00
H395   H     0.65589   0.77829   0.04340   0.00000  Uiso   1.00
H396   H     0.59260   0.39655   0.94411   0.00000  Uiso   1.00
H397   H     0.25126   0.87043   0.97217   0.00000  Uiso   1.00
H398   H     0.79755   0.87262   0.07131   0.00000  Uiso   1.00
H399   H     0.64074   0.81123   0.88603   0.00000  Uiso   1.00
H400   H     0.66506   0.66397   0.85824   0.00000  Uiso   1.00
H401   H     0.50317   0.88870   0.87155   0.00000  Uiso   1.00
H402   H     0.76224   0.88974   0.91856   0.00000  Uiso   1.00
H403   H     0.67891   0.48701   0.84278   0.00000  Uiso   1.00
H404   H     0.33757   0.96089   0.87084   0.00000  Uiso   1.00
H405   H     0.88386   0.96307   0.96999   0.00000  Uiso   1.00
O406   O     0.64991   0.34300   0.87730   0.00000  Uiso   1.00
O407   O     0.20209   0.96472   0.91411   0.00000  Uiso   1.00
O408   O     0.91881   0.96759   0.04419   0.00000  Uiso   1.00
N409   N     0.60959   0.43805   0.92408   0.00000  Uiso   1.00
N410   N     0.29045   0.88109   0.95031   0.00000  Uiso   1.00
N411   N     0.80117   0.88315   0.04300   0.00000  Uiso   1.00
N412   N     0.65604   0.48672   0.86956   0.00000  Uiso   1.00
N413   N     0.33690   0.92976   0.89579   0.00000  Uiso   1.00
N414   N     0.84762   0.93182   0.98848   0.00000  Uiso   1.00
C415   C     0.06302   0.22978   0.47726   0.00000  Uiso   1.00
C416   C     0.08722   0.16127   0.44928   0.00000  Uiso   1.00
C417   C     0.08168   0.07656   0.45613   0.00000  Uiso   1.00
C418   C     0.10689   0.02397   0.42688   0.00000  Uiso   1.00
C419   C     0.13991   0.91287   0.38872   0.00000  Uiso   1.00
C420   C     0.99925   0.28337   0.45651   0.00000  Uiso   1.00
C421   C     0.91976   0.30132   0.46943   0.00000  Uiso   1.00
C422   C     0.87092   0.35152   0.44627   0.00000  Uiso   1.00
C423   C     0.76740   0.43002   0.41934   0.00000  Uiso   1.00
C424   C     0.14001   0.28392   0.48205   0.00000  Uiso   1.00
C425   C     0.17887   0.30236   0.51646   0.00000  Uiso   1.00
C426   C     0.24853   0.35305   0.51480   0.00000  Uiso   1.00
C427   C     0.36356   0.43241   0.52754   0.00000  Uiso   1.00
C428   C     0.11764   0.28702   0.41314   0.00000  Uiso   1.00
C429   C     0.11688   0.19237   0.41446   0.00000  Uiso   1.00
C430   C     0.14211   0.13989   0.38519   0.00000  Uiso   1.00
C431   C     0.13661   0.05512   0.39199   0.00000  Uiso   1.00
C432   C     0.02892   0.31446   0.42168   0.00000  Uiso   1.00
C433   C     0.98019   0.36465   0.39849   0.00000  Uiso   1.00
C434   C     0.90064   0.38267   0.41138   0.00000  Uiso   1.00
C435   C     0.16968   0.31502   0.44723   0.00000  Uiso   1.00
C436   C     0.23930   0.36569   0.44552   0.00000  Uiso   1.00
C437   C     0.27825   0.38420   0.47991   0.00000  Uiso   1.00
H438   H     0.03992   0.20558   0.50438   0.00000  Uiso   1.00
H439   H     0.05871   0.05253   0.48308   0.00000  Uiso   1.00
H440   H     0.89682   0.27726   0.49639   0.00000  Uiso   1.00
H441   H     0.15589   0.27829   0.54340   0.00000  Uiso   1.00
H442   H     0.09260   0.89655   0.44411   0.00000  Uiso   1.00
H443   H     0.75126   0.37043   0.47217   0.00000  Uiso   1.00
H444   H     0.29755   0.37262   0.57131   0.00000  Uiso   1.00
H445   H     0.14074   0.31123   0.38603   0.00000  Uiso   1.00
H446   H     0.16506   0.16397   0.35824   0.00000  Uiso   1.00
H447   H     0.00317   0.38870   0.37155   0.00000  Uiso   1.00
H448   H     0.26224   0.38974   0.41856   0.00000  Uiso   1.00
H449   H     0.17891   0.98701   0.34278   0.00000  Uiso   1.00
H450   H     0.83757   0.46089   0.37084   0.00000  Uiso   1.00
H451   H     0.38386   0.46307   0.46999   0.00000  Uiso   1.00
O452   O     0.14991   0.84300   0.37730   0.00000  Uiso   1.00
O453   O     0.70209   0.46472   0.41411   0.00000  Uiso   1.00
O454   O     0.41881   0.46759   0.54419   0.00000  Uiso   1.00
N455   N     0.10959   0.93805   0.42408   0.00000  Uiso   1.00
N456   N     0.79045   0.38109   0.45031   0.00000  Uiso   1.00
N457   N     0.30117   0.38315   0.54300   0.00000  Uiso   1.00
N458   N     0.15604   0.98672   0.36956   0.00000  Uiso   1.00
N459   N     0.83690   0.42976   0.39579   0.00000  Uiso   1.00
N460   N     0.34762   0.43182   0.48848   0.00000  Uiso   1.00
C461   C     0.93698   0.77022   0.47726   0.00000  Uiso   1.00
C462   C     0.91278   0.83873   0.44928   0.00000  Uiso   1.00
C463   C     0.91832   0.92344   0.45613   0.00000  Uiso   1.00
C464   C     0.89311   0.97603   0.42688   0.00000  Uiso   1.00
C465   C     0.86009   0.08713   0.38872   0.00000  Uiso   1.00
C466   C     0.00075   0.71663   0.45651   0.00000  Uiso   1.00
C467   C     0.08024   0.69868   0.46943   0.00000  Uiso   1.00
C468   C     0.12908   0.64848   0.44627   0.00000  Uiso   1.00
C469   C     0.23260   0.56998   0.41934   0.00000  Uiso   1.00
C470   C     0.85999   0.71608   0.48205   0.00000  Uiso   1.00
C471   C     0.82113   0.69764   0.51646   0.00000  Uiso   1.00
C472   C     0.75147   0.64695   0.51480   0.00000  Uiso   1.00
C473   C     0.63644   0.56759   0.52754   0.00000  Uiso   1.00
C474   C     0.88236   0.71298   0.41314   0.00000  Uiso   1.00
C475   C     0.88312   0.80763   0.41446   0.00000  Uiso   1.00
C476   C     0.85789   0.86011   0.38519   0.00000  Uiso   1.00
C477   C     0.86339   0.94488   0.39199   0.00000  Uiso   1.00
C478   C     0.97108   0.68554   0.42168   0.00000  Uiso   1.00
C479   C     0.01981   0.63535   0.39849   0.00000  Uiso   1.00
C480   C     0.09936   0.61733   0.41138   0.00000  Uiso   1.00
C481   C     0.83032   0.68498   0.44723   0.00000  Uiso   1.00
C482   C     0.76070   0.63431   0.44552   0.00000  Uiso   1.00
C483   C     0.72175   0.61580   0.47991   0.00000  Uiso   1.00
H484   H     0.96008   0.79442   0.50438   0.00000  Uiso   1.00
H485   H     0.94129   0.94747   0.48308   0.00000  Uiso   1.00
H486   H     0.10318   0.72274   0.49639   0.00000  Uiso   1.00
H487   H     0.84411   0.72171   0.54340   0.00000  Uiso   1.00
H488   H     0.90740   0.10345   0.44411   0.00000  Uiso   1.00
H489   H     0.24874   0.62957   0.47217   0.00000  Uiso   1.00
H490   H     0.70245   0.62738   0.57131   0.00000  Uiso   1.00
H491   H     0.85926   0.68877   0.38603   0.00000  Uiso   1.00
H492   H     0.83494   0.83603   0.35824   0.00000  Uiso   1.00
H493   H     0.99683   0.61130   0.37155   0.00000  Uiso   1.00
H494   H     0.73776   0.61026   0.41856   0.00000  Uiso   1.00
H495   H     0.82109   0.01299   0.34278   0.00000  Uiso   1.00
H496   H     0.16243   0.53911   0.37084   0.00000  Uiso   1.00
H497   H     0.61614   0.53693   0.46999   0.00000  Uiso   1.00
O498   O     0.85009   0.15700   0.37730   0.00000  Uiso   1.00
O499   O     0.29791   0.53528   0.41411   0.00000  Uiso   1.00
O500   O     0.58119   0.53241   0.54419   0.00000  Uiso   1.00
N501   N     0.89041   0.06195   0.42408   0.00000  Uiso   1.00
N502   N     0.20955   0.61891   0.45031   0.00000  Uiso   1.00
N503   N     0.69883   0.61685   0.54300   0.00000  Uiso   1.00
N504   N     0.84396   0.01328   0.36956   0.00000  Uiso   1.00
N505   N     0.16310   0.57024   0.39579   0.00000  Uiso   1.00
N506   N     0.65238   0.56818   0.48848   0.00000  Uiso   1.00
C507   C     0.43698   0.27022   0.97726   0.00000  Uiso   1.00
C508   C     0.41278   0.33873   0.94928   0.00000  Uiso   1.00
C509   C     0.41832   0.42344   0.95613   0.00000  Uiso   1.00
C510   C     0.39311   0.47603   0.92688   0.00000  Uiso   1.00
C511   C     0.36009   0.58713   0.88872   0.00000  Uiso   1.00
C512   C     0.50075   0.21663   0.95651   0.00000  Uiso   1.00
C513   C     0.58024   0.19868   0.96943   0.00000  Uiso   1.00
C514   C     0.62908   0.14848   0.94627   0.00000  Uiso   1.00
C515   C     0.73260   0.06998   0.91934   0.00000  Uiso   1.00
C516   C     0.35999   0.21608   0.98205   0.00000  Uiso   1.00
C517   C     0.32113   0.19764   0.01646   0.00000  Uiso   1.00
C518   C     0.25147   0.14695   0.01480   0.00000  Uiso   1.00
C519   C     0.13644   0.06759   0.02754   0.00000  Uiso   1.00
C520   C     0.38236   0.21298   0.91314   0.00000  Uiso   1.00
C521   C     0.38312   0.30763   0.91446   0.00000  Uiso   1.00
C522   C     0.35789   0.36011   0.88519   0.00000  Uiso   1.00
C523   C     0.36339   0.44488   0.89199   0.00000  Uiso   1.00
C524   C     0.47108   0.18554   0.92168   0.00000  Uiso   1.00
C525   C     0.51981   0.13535   0.89849   0.00000  Uiso   1.00
C526   C     0.59936   0.11733   0.91138   0.00000  Uiso   1.00
C527   C     0.33032   0.18498   0.94723   0.00000  Uiso   1.00
C528   C     0.26070   0.13431   0.94552   0.00000  Uiso   1.00
C529   C     0.22175   0.11580   0.97991   0.00000  Uiso   1.00
H530   H     0.46008   0.29442   0.00438   0.00000  Uiso   1.00
H531   H     0.44129   0.44747   0.98308   0.00000  Uiso   1.00
H532   H     0.60318   0.22274   0.99639   0.00000  Uiso   1.00
H533   H     0.34411   0.22171   0.04340   0.00000  Uiso   1.00
H534   H     0.40740   0.60345   0.94411   0.00000  Uiso   1.00
H535   H     0.74874   0.12957   0.97217   0.00000  Uiso   1.00
H536   H     0.20245   0.12738   0.07131   0.00000  Uiso   1.00
H537   H     0.35926   0.18877   0.88603   0.00000  Uiso   1.00
H538   H     0.33494   0.33603   0.85824   0.00000  Uiso   1.00
H539   H     0.49683   0.11130   0.87155   0.00000  Uiso   1.00
H540   H     0.23776   0.11026   0.91856   0.00000  Uiso   1.00
H541   H     0.32109   0.51299   0.84278   0.00000  Uiso   1.00
H542   H     0.66243   0.03911   0.87084   0.00000  Uiso   1.00
H543   H     0.11614   0.03693   0.96999   0.00000  Uiso   1.00
O544   O     0.35009   0.65700   0.87730   0.00000  Uiso   1.00
O545   O     0.79791   0.03528   0.91411   0.00000  Uiso   1.00
O546   O     0.08119   0.03241   0.04419   0.00000  Uiso   1.00
N547   N     0.39041   0.56195   0.92408   0.00000  Uiso   1.00
N548   N     0.70955   0.11891   0.95031   0.00000  Uiso   1.00
N549   N     0.19883   0.11685   0.04300   0.00000  Uiso   1.00
N550   N     0.34396   0.51328   0.86956   0.00000  Uiso   1.00
N551   N     0.66310   0.07024   0.89579   0.00000  Uiso   1.00
N552   N     0.15238   0.06818   0.98848   0.00000  Uiso   1.00
C553   C     0.77022   0.56302   0.72726   0.00000  Uiso   1.00
C554   C     0.83873   0.58722   0.69928   0.00000  Uiso   1.00
C555   C     0.92344   0.58168   0.70613   0.00000  Uiso   1.00
C556   C     0.97603   0.60689   0.67688   0.00000  Uiso   1.00
C557   C     0.08713   0.63991   0.63872   0.00000  Uiso   1.00
C558   C     0.71663   0.49925   0.70651   0.00000  Uiso   1.00
C559   C     0.69868   0.41976   0.71943   0.00000  Uiso   1.00
C560   C     0.64848   0.37092   0.69627   0.00000  Uiso   1.00
C561   C     0.56998   0.26740   0.66934   0.00000  Uiso   1.00
C562   C     0.71608   0.64001   0.73205   0.00000  Uiso   1.00
C563   C     0.69764   0.67887   0.76646   0.00000  Uiso   1.00
C564   C     0.64695   0.74853   0.76480   0.00000  Uiso   1.00
C565   C     0.56759   0.86356   0.77754   0.00000  Uiso   1.00
C566   C     0.71298   0.61764   0.66314   0.00000  Uiso   1.00
C567   C     0.80763   0.61688   0.66446   0.00000  Uiso   1.00
C568   C     0.86011   0.64211   0.63519   0.00000  Uiso   1.00
C569   C     0.94488   0.63661   0.64199   0.00000  Uiso   1.00
C570   C     0.68554   0.52892   0.67168   0.00000  Uiso   1.00
C571   C     0.63535   0.48019   0.64849   0.00000  Uiso   1.00
C572   C     0.61733   0.40064   0.66138   0.00000  Uiso   1.00
C573   C     0.68498   0.66968   0.69723   0.00000  Uiso   1.00
C574   C     0.63431   0.73930   0.69552   0.00000  Uiso   1.00
C575   C     0.61580   0.77825   0.72991   0.00000  Uiso   1.00
H576   H     0.79442   0.53992   0.75438   0.00000  Uiso   1.00
H577   H     0.94747   0.55871   0.73308   0.00000  Uiso   1.00
H578   H     0.72274   0.39682   0.74639   0.00000  Uiso   1.00
H579   H     0.72171   0.65589   0.79340   0.00000  Uiso   1.00
H580   H     0.10345   0.59260   0.69411   0.00000  Uiso   1.00
H581   H     0.62957   0.25126   0.72217   0.00000  Uiso   1.00
H582   H     0.62738   0.79755   0.82131   0.00000  Uiso   1.00
H583   H     0.68877   0.64074   0.63603   0.00000  Uiso   1.00
H584   H     0.83603   0.66506   0.60824   0.00000  Uiso   1.00
H585   H     0.61130   0.50317   0.62155   0.00000  Uiso   1.00
H586   H     0.61026   0.76224   0.66856   0.00000  Uiso   1.00
H587   H     0.01299   0.67891   0.59278   0.00000  Uiso   1.00
H588   H     0.53911   0.33757   0.62084   0.00000  Uiso   1.00
H589   H     0.53693   0.88386   0.71999   0.00000  Uiso   1.00
O590   O     0.15700   0.64991   0.62730   0.00000  Uiso   1.00
O591   O     0.53528   0.20209   0.66411   0.00000  Uiso   1.00
O592   O     0.53241   0.91881   0.79419   0.00000  Uiso   1.00
N593   N     0.06195   0.60959   0.67408   0.00000  Uiso   1.00
N594   N     0.61891   0.29045   0.70031   0.00000  Uiso   1.00
N595   N     0.61685   0.80117   0.79300   0.00000  Uiso   1.00
N596   N     0.01328   0.65604   0.61956   0.00000  Uiso   1.00
N597   N     0.57024   0.33690   0.64579   0.00000  Uiso   1.00
N598   N     0.56818   0.84762   0.73848   0.00000  Uiso   1.00
C599   C     0.27022   0.06302   0.22726   0.00000  Uiso   1.00
C600   C     0.33873   0.08722   0.19928   0.00000  Uiso   1.00
C601   C     0.42344   0.08168   0.20613   0.00000  Uiso   1.00
C602   C     0.47603   0.10689   0.17688   0.00000  Uiso   1.00
C603   C     0.58713   0.13991   0.13872   0.00000  Uiso   1.00
C604   C     0.21663   0.99925   0.20651   0.00000  Uiso   1.00
C605   C     0.19868   0.91976   0.21943   0.00000  Uiso   1.00
C606   C     0.14848   0.87092   0.19627   0.00000  Uiso   1.00
C607   C     0.06998   0.76740   0.16934   0.00000  Uiso   1.00
C608   C     0.21608   0.14001   0.23205   0.00000  Uiso   1.00
C609   C     0.19764   0.17887   0.26646   0.00000  Uiso   1.00
C610   C     0.14695   0.24853   0.26480   0.00000  Uiso   1.00
C611   C     0.06759   0.36356   0.27754   0.00000  Uiso   1.00
C612   C     0.21298   0.11764   0.16314   0.00000  Uiso   1.00
C613   C     0.30763   0.11688   0.16446   0.00000  Uiso   1.00
C614   C     0.36011   0.14211   0.13519   0.00000  Uiso   1.00
C615   C     0.44488   0.13661   0.14199   0.00000  Uiso   1.00
C616   C     0.18554   0.02892   0.17168   0.00000  Uiso   1.00
C617   C     0.13535   0.98019   0.14849   0.00000  Uiso   1.00
C618   C     0.11733   0.90064   0.16138   0.00000  Uiso   1.00
C619   C     0.18498   0.16968   0.19723   0.00000  Uiso   1.00
C620   C     0.13431   0.23930   0.19552   0.00000  Uiso   1.00
C621   C     0.11580   0.27825   0.22991   0.00000  Uiso   1.00
H622   H     0.29442   0.03992   0.25438   0.00000  Uiso   1.00
H623   H     0.44747   0.05871   0.23308   0.00000  Uiso   1.00
H624   H     0.22274   0.89682   0.24639   0.00000  Uiso   1.00
H625   H     0.22171   0.15589   0.29340   0.00000  Uiso   1.00
H626   H     0.60345   0.09260   0.19411   0.00000  Uiso   1.00
H627   H     0.12957   0.75126   0.22217   0.00000  Uiso   1.00
H628   H     0.12738   0.29755   0.32131   0.00000  Uiso   1.00
H629   H     0.18877   0.14074   0.13603   0.00000  Uiso   1.00
H630   H     0.33603   0.16506   0.10824   0.00000  Uiso   1.00
H631   H     0.11130   0.00317   0.12155   0.00000  Uiso   1.00
H632   H     0.11026   0.26224   0.16856   0.00000  Uiso   1.00
H633   H     0.51299   0.17891   0.09278   0.00000  Uiso   1.00
H634   H     0.03911   0.83757   0.12084   0.00000  Uiso   1.00
H635   H     0.03693   0.38386   0.21999   0.00000  Uiso   1.00
O636   O     0.65700   0.14991   0.12730   0.00000  Uiso   1.00
O637   O     0.03528   0.70209   0.16411   0.00000  Uiso   1.00
O638   O     0.03241   0.41881   0.29419   0.00000  Uiso   1.00
N639   N     0.56195   0.10959   0.17408   0.00000  Uiso   1.00
N640   N     0.11891   0.79045   0.20031   0.00000  Uiso   1.00
N641   N     0.11685   0.30117   0.29300   0.00000  Uiso   1.00
N642   N     0.51328   0.15604   0.11956   0.00000  Uiso   1.00
N643   N     0.07024   0.83690   0.14579   0.00000  Uiso   1.00
N644   N     0.06818   0.34762   0.23848   0.00000  Uiso   1.00
C645   C     0.72978   0.93698   0.22726   0.00000  Uiso   1.00
C646   C     0.66127   0.91278   0.19928   0.00000  Uiso   1.00
C647   C     0.57656   0.91832   0.20613   0.00000  Uiso   1.00
C648   C     0.52397   0.89311   0.17688   0.00000  Uiso   1.00
C649   C     0.41287   0.86009   0.13872   0.00000  Uiso   1.00
C650   C     0.78337   0.00075   0.20651   0.00000  Uiso   1.00
C651   C     0.80132   0.08024   0.21943   0.00000  Uiso   1.00
C652   C     0.85152   0.12908   0.19627   0.00000  Uiso   1.00
C653   C     0.93002   0.23260   0.16934   0.00000  Uiso   1.00
C654   C     0.78392   0.85999   0.23205   0.00000  Uiso   1.00
C655   C     0.80236   0.82113   0.26646   0.00000  Uiso   1.00
C656   C     0.85305   0.75147   0.26480   0.00000  Uiso   1.00
C657   C     0.93241   0.63644   0.27754   0.00000  Uiso   1.00
C658   C     0.78702   0.88236   0.16314   0.00000  Uiso   1.00
C659   C     0.69237   0.88312   0.16446   0.00000  Uiso   1.00
C660   C     0.63989   0.85789   0.13519   0.00000  Uiso   1.00
C661   C     0.55512   0.86339   0.14199   0.00000  Uiso   1.00
C662   C     0.81446   0.97108   0.17168   0.00000  Uiso   1.00
C663   C     0.86465   0.01981   0.14849   0.00000  Uiso   1.00
C664   C     0.88267   0.09936   0.16138   0.00000  Uiso   1.00
C665   C     0.81502   0.83032   0.19723   0.00000  Uiso   1.00
C666   C     0.86569   0.76070   0.19552   0.00000  Uiso   1.00
C667   C     0.88420   0.72175   0.22991   0.00000  Uiso   1.00
H668   H     0.70558   0.96008   0.25438   0.00000  Uiso   1.00
H669   H     0.55253   0.94129   0.23308   0.00000  Uiso   1.00
H670   H     0.77726   0.10318   0.24639   0.00000  Uiso   1.00
H671   H     0.77829   0.84411   0.29340   0.00000  Uiso   1.00
H672   H     0.39655   0.90740   0.19411   0.00000  Uiso   1.00
H673   H     0.87043   0.24874   0.22217   0.00000  Uiso   1.00
H674   H     0.87262   0.70245   0.32131   0.00000  Uiso   1.00
H675   H     0.81123   0.85926   0.13603   0.00000  Uiso   1.00
H676   H     0.66397   0.83494   0.10824   0.00000  Uiso   1.00
H677   H     0.88870   0.99683   0.12155   0.00000  Uiso   1.00
H678   H     0.88974   0.73776   0.16856   0.00000  Uiso   1.00
H679   H     0.48701   0.82109   0.09278   0.00000  Uiso   1.00
H680   H     0.96089   0.16243   0.12084   0.00000  Uiso   1.00
H681   H     0.96307   0.61614   0.21999   0.00000  Uiso   1.00
O682   O     0.34300   0.85009   0.12730   0.00000  Uiso   1.00
O683   O     0.96472   0.29791   0.16411   0.00000  Uiso   1.00
O684   O     0.96759   0.58119   0.29419   0.00000  Uiso   1.00
N685   N     0.43805   0.89041   0.17408   0.00000  Uiso   1.00
N686   N     0.88109   0.20955   0.20031   0.00000  Uiso   1.00
N687   N     0.88315   0.69883   0.29300   0.00000  Uiso   1.00
N688   N     0.48672   0.84396   0.11956   0.00000  Uiso   1.00
N689   N     0.92976   0.16310   0.14579   0.00000  Uiso   1.00
N690   N     0.93182   0.65238   0.23848   0.00000  Uiso   1.00
C691   C     0.22978   0.43698   0.72726   0.00000  Uiso   1.00
C692   C     0.16127   0.41278   0.69928   0.00000  Uiso   1.00
C693   C     0.07656   0.41832   0.70613   0.00000  Uiso   1.00
C694   C     0.02397   0.39311   0.67688   0.00000  Uiso   1.00
C695   C     0.91287   0.36009   0.63872   0.00000  Uiso   1.00
C696   C     0.28337   0.50075   0.70651   0.00000  Uiso   1.00
C697   C     0.30132   0.58024   0.71943   0.00000  Uiso   1.00
C698   C     0.35152   0.62908   0.69627   0.00000  Uiso   1.00
C699   C     0.43002   0.73260   0.66934   0.00000  Uiso   1.00
C700   C     0.28392   0.35999   0.73205   0.00000  Uiso   1.00
C701   C     0.30236   0.32113   0.76646   0.00000  Uiso   1.00
C702   C     0.35305   0.25147   0.76480   0.00000  Uiso   1.00
C703   C     0.43241   0.13644   0.77754   0.00000  Uiso   1.00
C704   C     0.28702   0.38236   0.66314   0.00000  Uiso   1.00
C705   C     0.19237   0.38312   0.66446   0.00000  Uiso   1.00
C706   C     0.13989   0.35789   0.63519   0.00000  Uiso   1.00
C707   C     0.05512   0.36339   0.64199   0.00000  Uiso   1.00
C708   C     0.31446   0.47108   0.67168   0.00000  Uiso   1.00
C709   C     0.36465   0.51981   0.64849   0.00000  Uiso   1.00
C710   C     0.38267   0.59936   0.66138   0.00000  Uiso   1.00
C711   C     0.31502   0.33032   0.69723   0.00000  Uiso   1.00
C712   C     0.36569   0.26070   0.69552   0.00000  Uiso   1.00
C713   C     0.38420   0.22175   0.72991   0.00000  Uiso   1.00
H714   H     0.20558   0.46008   0.75438   0.00000  Uiso   1.00
H715   H     0.05253   0.44129   0.73308   0.00000  Uiso   1.00
H716   H     0.27726   0.60318   0.74639   0.00000  Uiso   1.00
H717   H     0.27829   0.34411   0.79340   0.00000  Uiso   1.00
H718   H     0.89655   0.40740   0.69411   0.00000  Uiso   1.00
H719   H     0.37043   0.74874   0.72217   0.00000  Uiso   1.00
H720   H     0.37262   0.20245   0.82131   0.00000  Uiso   1.00
H721   H     0.31123   0.35926   0.63603   0.00000  Uiso   1.00
H722   H     0.16397   0.33494   0.60824   0.00000  Uiso   1.00
H723   H     0.38870   0.49683   0.62155   0.00000  Uiso   1.00
H724   H     0.38974   0.23776   0.66856   0.00000  Uiso   1.00
H725   H     0.98701   0.32109   0.59278   0.00000  Uiso   1.00
H726   H     0.46089   0.66243   0.62084   0.00000  Uiso   1.00
H727   H     0.46307   0.11614   0.71999   0.00000  Uiso   1.00
O728   O     0.84300   0.35009   0.62730   0.00000  Uiso   1.00
O729   O     0.46472   0.79791   0.66411   0.00000  Uiso   1.00
O730   O     0.46759   0.08119   0.79419   0.00000  Uiso   1.00
N731   N     0.93805   0.39041   0.67408   0.00000  Uiso   1.00
N732   N     0.38109   0.70955   0.70031   0.00000  Uiso   1.00
N733   N     0.38315   0.19883   0.79300   0.00000  Uiso   1.00
N734   N     0.98672   0.34396   0.61956   0.00000  Uiso   1.00
N735   N     0.42976   0.66310   0.64579   0.00000  Uiso   1.00
N736   N     0.43182   0.15238   0.73848   0.00000  Uiso   1.00
