data_job_00932
_audit_creation_date              2018-12-19
_audit_creation_method            'Materials Studio'
_symmetry_space_group_name_H-M    'P1'
_symmetry_Int_Tables_number       1
_symmetry_cell_setting            triclinic
loop_
_symmetry_equiv_pos_as_xyz
  x,y,z
_cell_length_a                    26.4703
_cell_length_b                    44.8151
_cell_length_c                    7.7676
_cell_angle_alpha                 90.0000
_cell_angle_beta                  90.0000
_cell_angle_gamma                 90.0000
loop_
_atom_site_label
_atom_site_type_symbol
_atom_site_fract_x
_atom_site_fract_y
_atom_site_fract_z
_atom_site_U_iso_or_equiv
_atom_site_adp_type
_atom_site_occupancy
C1     C     0.60629   0.71746   0.83610   0.00000  Uiso   1.00
C2     C     0.58126   0.69276   0.94082   0.00000  Uiso   1.00
C3     C     0.54138   0.67501   0.88642   0.00000  Uiso   1.00
C4     C     0.52384   0.65366   0.00130   0.00000  Uiso   1.00
C5     C     0.48168   0.61585   0.13909   0.00000  Uiso   1.00
C6     C     0.60255   0.74564   0.94535   0.00000  Uiso   1.00
C7     C     0.58058   0.77236   0.89473   0.00000  Uiso   1.00
C8     C     0.58097   0.79552   0.01342   0.00000  Uiso   1.00
C9     C     0.57190   0.83982   0.15819   0.00000  Uiso   1.00
C10    C     0.66229   0.70961   0.82825   0.00000  Uiso   1.00
C11    C     0.69056   0.70604   0.67917   0.00000  Uiso   1.00
C12    C     0.74125   0.69888   0.69928   0.00000  Uiso   1.00
C13    C     0.82493   0.68723   0.66223   0.00000  Uiso   1.00
C14    C     0.64606   0.71110   0.13687   0.00000  Uiso   1.00
C15    C     0.60286   0.68931   0.10419   0.00000  Uiso   1.00
C16    C     0.58538   0.66798   0.21918   0.00000  Uiso   1.00
C17    C     0.54548   0.65020   0.16496   0.00000  Uiso   1.00
C18    C     0.62416   0.74219   0.10871   0.00000  Uiso   1.00
C19    C     0.62458   0.76532   0.22750   0.00000  Uiso   1.00
C20    C     0.60261   0.79206   0.17708   0.00000  Uiso   1.00
C21    C     0.68390   0.70616   0.99161   0.00000  Uiso   1.00
C22    C     0.73456   0.69900   0.01195   0.00000  Uiso   1.00
C23    C     0.76289   0.69542   0.86294   0.00000  Uiso   1.00
H24    H     0.58947   0.72015   0.70891   0.00000  Uiso   1.00
H25    H     0.52467   0.67769   0.75998   0.00000  Uiso   1.00
H26    H     0.56387   0.77502   0.76829   0.00000  Uiso   1.00
H27    H     0.67383   0.70872   0.55278   0.00000  Uiso   1.00
H28    H     0.46234   0.62911   0.88867   0.00000  Uiso   1.00
H29    H     0.54501   0.83434   0.90617   0.00000  Uiso   1.00
H30    H     0.77688   0.69451   0.45171   0.00000  Uiso   1.00
H31    H     0.66288   0.70841   0.26406   0.00000  Uiso   1.00
H32    H     0.60210   0.66531   0.34560   0.00000  Uiso   1.00
H33    H     0.64131   0.76264   0.35391   0.00000  Uiso   1.00
H34    H     0.75126   0.69633   0.13839   0.00000  Uiso   1.00
H35    H     0.52519   0.61906   0.36399   0.00000  Uiso   1.00
H36    H     0.60787   0.82429   0.38148   0.00000  Uiso   1.00
H37    H     0.83973   0.68446   0.92702   0.00000  Uiso   1.00
O38    O     0.45245   0.59595   0.16997   0.00000  Uiso   1.00
O39    O     0.56093   0.86520   0.19291   0.00000  Uiso   1.00
O40    O     0.86512   0.68176   0.59667   0.00000  Uiso   1.00
N41    N     0.48548   0.63266   0.98934   0.00000  Uiso   1.00
N42    N     0.56277   0.82453   0.00570   0.00000  Uiso   1.00
N43    N     0.77954   0.69381   0.58082   0.00000  Uiso   1.00
N44    N     0.51930   0.62725   0.24510   0.00000  Uiso   1.00
N45    N     0.59659   0.81912   0.26146   0.00000  Uiso   1.00
N46    N     0.81336   0.68841   0.83658   0.00000  Uiso   1.00
C47    C     0.60629   0.21746   0.33610   0.00000  Uiso   1.00
C48    C     0.58126   0.19276   0.44082   0.00000  Uiso   1.00
C49    C     0.54138   0.17501   0.38642   0.00000  Uiso   1.00
C50    C     0.52384   0.15366   0.50130   0.00000  Uiso   1.00
C51    C     0.48168   0.11585   0.63909   0.00000  Uiso   1.00
C52    C     0.60255   0.24564   0.44535   0.00000  Uiso   1.00
C53    C     0.58058   0.27236   0.39473   0.00000  Uiso   1.00
C54    C     0.58097   0.29552   0.51342   0.00000  Uiso   1.00
C55    C     0.57190   0.33982   0.65819   0.00000  Uiso   1.00
C56    C     0.66229   0.20961   0.32825   0.00000  Uiso   1.00
C57    C     0.69056   0.20604   0.17917   0.00000  Uiso   1.00
C58    C     0.74125   0.19888   0.19928   0.00000  Uiso   1.00
C59    C     0.82493   0.18723   0.16223   0.00000  Uiso   1.00
C60    C     0.64606   0.21110   0.63687   0.00000  Uiso   1.00
C61    C     0.60286   0.18931   0.60419   0.00000  Uiso   1.00
C62    C     0.58538   0.16798   0.71918   0.00000  Uiso   1.00
C63    C     0.54548   0.15020   0.66496   0.00000  Uiso   1.00
C64    C     0.62416   0.24219   0.60871   0.00000  Uiso   1.00
C65    C     0.62458   0.26532   0.72750   0.00000  Uiso   1.00
C66    C     0.60261   0.29206   0.67708   0.00000  Uiso   1.00
C67    C     0.68390   0.20616   0.49161   0.00000  Uiso   1.00
C68    C     0.73456   0.19900   0.51195   0.00000  Uiso   1.00
C69    C     0.76289   0.19542   0.36294   0.00000  Uiso   1.00
H70    H     0.58947   0.22015   0.20891   0.00000  Uiso   1.00
H71    H     0.52467   0.17769   0.25998   0.00000  Uiso   1.00
H72    H     0.56387   0.27502   0.26829   0.00000  Uiso   1.00
H73    H     0.67383   0.20872   0.05278   0.00000  Uiso   1.00
H74    H     0.46234   0.12911   0.38867   0.00000  Uiso   1.00
H75    H     0.54501   0.33434   0.40617   0.00000  Uiso   1.00
H76    H     0.77688   0.19451   0.95171   0.00000  Uiso   1.00
H77    H     0.66288   0.20841   0.76406   0.00000  Uiso   1.00
H78    H     0.60210   0.16531   0.84560   0.00000  Uiso   1.00
H79    H     0.64131   0.26264   0.85391   0.00000  Uiso   1.00
H80    H     0.75126   0.19633   0.63839   0.00000  Uiso   1.00
H81    H     0.52519   0.11906   0.86399   0.00000  Uiso   1.00
H82    H     0.60787   0.32429   0.88148   0.00000  Uiso   1.00
H83    H     0.83973   0.18446   0.42702   0.00000  Uiso   1.00
O84    O     0.45245   0.09595   0.66997   0.00000  Uiso   1.00
O85    O     0.56093   0.36520   0.69291   0.00000  Uiso   1.00
O86    O     0.86512   0.18176   0.09667   0.00000  Uiso   1.00
N87    N     0.48548   0.13266   0.48934   0.00000  Uiso   1.00
N88    N     0.56277   0.32453   0.50570   0.00000  Uiso   1.00
N89    N     0.77954   0.19381   0.08082   0.00000  Uiso   1.00
N90    N     0.51930   0.12725   0.74510   0.00000  Uiso   1.00
N91    N     0.59659   0.31912   0.76146   0.00000  Uiso   1.00
N92    N     0.81336   0.18841   0.33658   0.00000  Uiso   1.00
C93    C     0.10629   0.71746   0.33610   0.00000  Uiso   1.00
C94    C     0.08126   0.69276   0.44082   0.00000  Uiso   1.00
C95    C     0.04138   0.67501   0.38642   0.00000  Uiso   1.00
C96    C     0.02384   0.65366   0.50130   0.00000  Uiso   1.00
C97    C     0.98168   0.61585   0.63909   0.00000  Uiso   1.00
C98    C     0.10255   0.74564   0.44535   0.00000  Uiso   1.00
C99    C     0.08058   0.77236   0.39473   0.00000  Uiso   1.00
C100   C     0.08097   0.79552   0.51342   0.00000  Uiso   1.00
C101   C     0.07190   0.83982   0.65819   0.00000  Uiso   1.00
C102   C     0.16229   0.70961   0.32825   0.00000  Uiso   1.00
C103   C     0.19056   0.70604   0.17917   0.00000  Uiso   1.00
C104   C     0.24125   0.69888   0.19928   0.00000  Uiso   1.00
C105   C     0.32493   0.68723   0.16223   0.00000  Uiso   1.00
C106   C     0.14606   0.71110   0.63687   0.00000  Uiso   1.00
C107   C     0.10286   0.68931   0.60419   0.00000  Uiso   1.00
C108   C     0.08538   0.66798   0.71918   0.00000  Uiso   1.00
C109   C     0.04548   0.65020   0.66496   0.00000  Uiso   1.00
C110   C     0.12416   0.74219   0.60871   0.00000  Uiso   1.00
C111   C     0.12458   0.76532   0.72750   0.00000  Uiso   1.00
C112   C     0.10261   0.79206   0.67708   0.00000  Uiso   1.00
C113   C     0.18390   0.70616   0.49161   0.00000  Uiso   1.00
C114   C     0.23456   0.69900   0.51195   0.00000  Uiso   1.00
C115   C     0.26289   0.69542   0.36294   0.00000  Uiso   1.00
H116   H     0.08947   0.72015   0.20891   0.00000  Uiso   1.00
H117   H     0.02467   0.67769   0.25998   0.00000  Uiso   1.00
H118   H     0.06387   0.77502   0.26829   0.00000  Uiso   1.00
H119   H     0.17383   0.70872   0.05278   0.00000  Uiso   1.00
H120   H     0.96234   0.62911   0.38867   0.00000  Uiso   1.00
H121   H     0.04501   0.83434   0.40617   0.00000  Uiso   1.00
H122   H     0.27688   0.69451   0.95171   0.00000  Uiso   1.00
H123   H     0.16288   0.70841   0.76406   0.00000  Uiso   1.00
H124   H     0.10210   0.66531   0.84560   0.00000  Uiso   1.00
H125   H     0.14131   0.76264   0.85391   0.00000  Uiso   1.00
H126   H     0.25126   0.69633   0.63839   0.00000  Uiso   1.00
H127   H     0.02519   0.61906   0.86399   0.00000  Uiso   1.00
H128   H     0.10787   0.82429   0.88148   0.00000  Uiso   1.00
H129   H     0.33973   0.68446   0.42702   0.00000  Uiso   1.00
O130   O     0.95245   0.59595   0.66997   0.00000  Uiso   1.00
O131   O     0.06093   0.86520   0.69291   0.00000  Uiso   1.00
O132   O     0.36512   0.68176   0.09667   0.00000  Uiso   1.00
N133   N     0.98548   0.63266   0.48934   0.00000  Uiso   1.00
N134   N     0.06277   0.82453   0.50570   0.00000  Uiso   1.00
N135   N     0.27954   0.69381   0.08082   0.00000  Uiso   1.00
N136   N     0.01930   0.62725   0.74510   0.00000  Uiso   1.00
N137   N     0.09659   0.81912   0.76146   0.00000  Uiso   1.00
N138   N     0.31336   0.68841   0.33658   0.00000  Uiso   1.00
C139   C     0.10629   0.21746   0.83610   0.00000  Uiso   1.00
C140   C     0.08126   0.19276   0.94082   0.00000  Uiso   1.00
C141   C     0.04138   0.17501   0.88642   0.00000  Uiso   1.00
C142   C     0.02384   0.15366   0.00130   0.00000  Uiso   1.00
C143   C     0.98168   0.11585   0.13909   0.00000  Uiso   1.00
C144   C     0.10255   0.24564   0.94535   0.00000  Uiso   1.00
C145   C     0.08058   0.27236   0.89473   0.00000  Uiso   1.00
C146   C     0.08097   0.29552   0.01342   0.00000  Uiso   1.00
C147   C     0.07190   0.33982   0.15819   0.00000  Uiso   1.00
C148   C     0.16229   0.20961   0.82825   0.00000  Uiso   1.00
C149   C     0.19056   0.20604   0.67917   0.00000  Uiso   1.00
C150   C     0.24125   0.19888   0.69928   0.00000  Uiso   1.00
C151   C     0.32493   0.18723   0.66223   0.00000  Uiso   1.00
C152   C     0.14606   0.21110   0.13687   0.00000  Uiso   1.00
C153   C     0.10286   0.18931   0.10419   0.00000  Uiso   1.00
C154   C     0.08538   0.16798   0.21918   0.00000  Uiso   1.00
C155   C     0.04548   0.15020   0.16496   0.00000  Uiso   1.00
C156   C     0.12416   0.24219   0.10871   0.00000  Uiso   1.00
C157   C     0.12458   0.26532   0.22750   0.00000  Uiso   1.00
C158   C     0.10261   0.29206   0.17708   0.00000  Uiso   1.00
C159   C     0.18390   0.20616   0.99161   0.00000  Uiso   1.00
C160   C     0.23456   0.19900   0.01195   0.00000  Uiso   1.00
C161   C     0.26289   0.19542   0.86294   0.00000  Uiso   1.00
H162   H     0.08947   0.22015   0.70891   0.00000  Uiso   1.00
H163   H     0.02467   0.17769   0.75998   0.00000  Uiso   1.00
H164   H     0.06387   0.27502   0.76829   0.00000  Uiso   1.00
H165   H     0.17383   0.20872   0.55278   0.00000  Uiso   1.00
H166   H     0.96234   0.12911   0.88867   0.00000  Uiso   1.00
H167   H     0.04501   0.33434   0.90617   0.00000  Uiso   1.00
H168   H     0.27688   0.19451   0.45171   0.00000  Uiso   1.00
H169   H     0.16288   0.20841   0.26406   0.00000  Uiso   1.00
H170   H     0.10210   0.16531   0.34560   0.00000  Uiso   1.00
H171   H     0.14131   0.26264   0.35391   0.00000  Uiso   1.00
H172   H     0.25126   0.19633   0.13839   0.00000  Uiso   1.00
H173   H     0.02519   0.11906   0.36399   0.00000  Uiso   1.00
H174   H     0.10787   0.32429   0.38148   0.00000  Uiso   1.00
H175   H     0.33973   0.18446   0.92702   0.00000  Uiso   1.00
O176   O     0.95245   0.09595   0.16997   0.00000  Uiso   1.00
O177   O     0.06093   0.36520   0.19291   0.00000  Uiso   1.00
O178   O     0.36512   0.18176   0.59667   0.00000  Uiso   1.00
N179   N     0.98548   0.13266   0.98934   0.00000  Uiso   1.00
N180   N     0.06277   0.32453   0.00570   0.00000  Uiso   1.00
N181   N     0.27954   0.19381   0.58082   0.00000  Uiso   1.00
N182   N     0.01930   0.12725   0.24510   0.00000  Uiso   1.00
N183   N     0.09659   0.31912   0.26146   0.00000  Uiso   1.00
N184   N     0.31336   0.18841   0.83658   0.00000  Uiso   1.00
C185   C     0.39371   0.28254   0.83610   0.00000  Uiso   1.00
C186   C     0.41874   0.30724   0.94082   0.00000  Uiso   1.00
C187   C     0.45862   0.32499   0.88642   0.00000  Uiso   1.00
C188   C     0.47616   0.34634   0.00130   0.00000  Uiso   1.00
C189   C     0.51832   0.38415   0.13909   0.00000  Uiso   1.00
C190   C     0.39745   0.25436   0.94535   0.00000  Uiso   1.00
C191   C     0.41942   0.22764   0.89473   0.00000  Uiso   1.00
C192   C     0.41903   0.20448   0.01342   0.00000  Uiso   1.00
C193   C     0.42810   0.16018   0.15819   0.00000  Uiso   1.00
C194   C     0.33771   0.29039   0.82825   0.00000  Uiso   1.00
C195   C     0.30944   0.29396   0.67917   0.00000  Uiso   1.00
C196   C     0.25875   0.30112   0.69928   0.00000  Uiso   1.00
C197   C     0.17507   0.31277   0.66223   0.00000  Uiso   1.00
C198   C     0.35394   0.28890   0.13687   0.00000  Uiso   1.00
C199   C     0.39714   0.31069   0.10419   0.00000  Uiso   1.00
C200   C     0.41462   0.33202   0.21918   0.00000  Uiso   1.00
C201   C     0.45452   0.34980   0.16496   0.00000  Uiso   1.00
C202   C     0.37584   0.25781   0.10871   0.00000  Uiso   1.00
C203   C     0.37542   0.23468   0.22750   0.00000  Uiso   1.00
C204   C     0.39739   0.20794   0.17708   0.00000  Uiso   1.00
C205   C     0.31610   0.29384   0.99161   0.00000  Uiso   1.00
C206   C     0.26544   0.30100   0.01195   0.00000  Uiso   1.00
C207   C     0.23711   0.30458   0.86294   0.00000  Uiso   1.00
H208   H     0.41053   0.27985   0.70891   0.00000  Uiso   1.00
H209   H     0.47533   0.32231   0.75998   0.00000  Uiso   1.00
H210   H     0.43613   0.22498   0.76829   0.00000  Uiso   1.00
H211   H     0.32617   0.29128   0.55278   0.00000  Uiso   1.00
H212   H     0.53766   0.37089   0.88867   0.00000  Uiso   1.00
H213   H     0.45499   0.16566   0.90617   0.00000  Uiso   1.00
H214   H     0.22312   0.30549   0.45171   0.00000  Uiso   1.00
H215   H     0.33712   0.29159   0.26406   0.00000  Uiso   1.00
H216   H     0.39790   0.33469   0.34560   0.00000  Uiso   1.00
H217   H     0.35869   0.23736   0.35391   0.00000  Uiso   1.00
H218   H     0.24874   0.30367   0.13839   0.00000  Uiso   1.00
H219   H     0.47481   0.38094   0.36399   0.00000  Uiso   1.00
H220   H     0.39213   0.17571   0.38148   0.00000  Uiso   1.00
H221   H     0.16027   0.31554   0.92702   0.00000  Uiso   1.00
O222   O     0.54755   0.40405   0.16997   0.00000  Uiso   1.00
O223   O     0.43907   0.13480   0.19291   0.00000  Uiso   1.00
O224   O     0.13488   0.31824   0.59667   0.00000  Uiso   1.00
N225   N     0.51452   0.36734   0.98934   0.00000  Uiso   1.00
N226   N     0.43723   0.17547   0.00570   0.00000  Uiso   1.00
N227   N     0.22046   0.30619   0.58082   0.00000  Uiso   1.00
N228   N     0.48070   0.37275   0.24510   0.00000  Uiso   1.00
N229   N     0.40341   0.18088   0.26146   0.00000  Uiso   1.00
N230   N     0.18664   0.31159   0.83658   0.00000  Uiso   1.00
C231   C     0.39371   0.78254   0.33610   0.00000  Uiso   1.00
C232   C     0.41874   0.80724   0.44082   0.00000  Uiso   1.00
C233   C     0.45862   0.82499   0.38642   0.00000  Uiso   1.00
C234   C     0.47616   0.84634   0.50130   0.00000  Uiso   1.00
C235   C     0.51832   0.88415   0.63909   0.00000  Uiso   1.00
C236   C     0.39745   0.75436   0.44535   0.00000  Uiso   1.00
C237   C     0.41942   0.72764   0.39473   0.00000  Uiso   1.00
C238   C     0.41903   0.70448   0.51342   0.00000  Uiso   1.00
C239   C     0.42810   0.66018   0.65819   0.00000  Uiso   1.00
C240   C     0.33771   0.79039   0.32825   0.00000  Uiso   1.00
C241   C     0.30944   0.79396   0.17917   0.00000  Uiso   1.00
C242   C     0.25875   0.80112   0.19928   0.00000  Uiso   1.00
C243   C     0.17507   0.81277   0.16223   0.00000  Uiso   1.00
C244   C     0.35394   0.78890   0.63687   0.00000  Uiso   1.00
C245   C     0.39714   0.81069   0.60419   0.00000  Uiso   1.00
C246   C     0.41462   0.83202   0.71918   0.00000  Uiso   1.00
C247   C     0.45452   0.84980   0.66496   0.00000  Uiso   1.00
C248   C     0.37584   0.75781   0.60871   0.00000  Uiso   1.00
C249   C     0.37542   0.73468   0.72750   0.00000  Uiso   1.00
C250   C     0.39739   0.70794   0.67708   0.00000  Uiso   1.00
C251   C     0.31610   0.79384   0.49161   0.00000  Uiso   1.00
C252   C     0.26544   0.80100   0.51195   0.00000  Uiso   1.00
C253   C     0.23711   0.80458   0.36294   0.00000  Uiso   1.00
H254   H     0.41053   0.77985   0.20891   0.00000  Uiso   1.00
H255   H     0.47533   0.82231   0.25998   0.00000  Uiso   1.00
H256   H     0.43613   0.72498   0.26829   0.00000  Uiso   1.00
H257   H     0.32617   0.79128   0.05278   0.00000  Uiso   1.00
H258   H     0.53766   0.87089   0.38867   0.00000  Uiso   1.00
H259   H     0.45499   0.66566   0.40617   0.00000  Uiso   1.00
H260   H     0.22312   0.80549   0.95171   0.00000  Uiso   1.00
H261   H     0.33712   0.79159   0.76406   0.00000  Uiso   1.00
H262   H     0.39790   0.83469   0.84560   0.00000  Uiso   1.00
H263   H     0.35869   0.73736   0.85391   0.00000  Uiso   1.00
H264   H     0.24874   0.80367   0.63839   0.00000  Uiso   1.00
H265   H     0.47481   0.88094   0.86399   0.00000  Uiso   1.00
H266   H     0.39213   0.67571   0.88148   0.00000  Uiso   1.00
H267   H     0.16027   0.81554   0.42702   0.00000  Uiso   1.00
O268   O     0.54755   0.90405   0.66997   0.00000  Uiso   1.00
O269   O     0.43907   0.63480   0.69291   0.00000  Uiso   1.00
O270   O     0.13488   0.81824   0.09667   0.00000  Uiso   1.00
N271   N     0.51452   0.86734   0.48934   0.00000  Uiso   1.00
N272   N     0.43723   0.67547   0.50570   0.00000  Uiso   1.00
N273   N     0.22046   0.80619   0.08082   0.00000  Uiso   1.00
N274   N     0.48070   0.87275   0.74510   0.00000  Uiso   1.00
N275   N     0.40341   0.68088   0.76146   0.00000  Uiso   1.00
N276   N     0.18664   0.81159   0.33658   0.00000  Uiso   1.00
C277   C     0.89371   0.28254   0.33610   0.00000  Uiso   1.00
C278   C     0.91874   0.30724   0.44082   0.00000  Uiso   1.00
C279   C     0.95862   0.32499   0.38642   0.00000  Uiso   1.00
C280   C     0.97616   0.34634   0.50130   0.00000  Uiso   1.00
C281   C     0.01832   0.38415   0.63909   0.00000  Uiso   1.00
C282   C     0.89745   0.25436   0.44535   0.00000  Uiso   1.00
C283   C     0.91942   0.22764   0.39473   0.00000  Uiso   1.00
C284   C     0.91903   0.20448   0.51342   0.00000  Uiso   1.00
C285   C     0.92810   0.16018   0.65819   0.00000  Uiso   1.00
C286   C     0.83771   0.29039   0.32825   0.00000  Uiso   1.00
C287   C     0.80944   0.29396   0.17917   0.00000  Uiso   1.00
C288   C     0.75875   0.30112   0.19928   0.00000  Uiso   1.00
C289   C     0.67507   0.31277   0.16223   0.00000  Uiso   1.00
C290   C     0.85394   0.28890   0.63687   0.00000  Uiso   1.00
C291   C     0.89714   0.31069   0.60419   0.00000  Uiso   1.00
C292   C     0.91462   0.33202   0.71918   0.00000  Uiso   1.00
C293   C     0.95452   0.34980   0.66496   0.00000  Uiso   1.00
C294   C     0.87584   0.25781   0.60871   0.00000  Uiso   1.00
C295   C     0.87542   0.23468   0.72750   0.00000  Uiso   1.00
C296   C     0.89739   0.20794   0.67708   0.00000  Uiso   1.00
C297   C     0.81610   0.29384   0.49161   0.00000  Uiso   1.00
C298   C     0.76544   0.30100   0.51195   0.00000  Uiso   1.00
C299   C     0.73711   0.30458   0.36294   0.00000  Uiso   1.00
H300   H     0.91053   0.27985   0.20891   0.00000  Uiso   1.00
H301   H     0.97533   0.32231   0.25998   0.00000  Uiso   1.00
H302   H     0.93613   0.22498   0.26829   0.00000  Uiso   1.00
H303   H     0.82617   0.29128   0.05278   0.00000  Uiso   1.00
H304   H     0.03766   0.37089   0.38867   0.00000  Uiso   1.00
H305   H     0.95499   0.16566   0.40617   0.00000  Uiso   1.00
H306   H     0.72312   0.30549   0.95171   0.00000  Uiso   1.00
H307   H     0.83712   0.29159   0.76406   0.00000  Uiso   1.00
H308   H     0.89790   0.33469   0.84560   0.00000  Uiso   1.00
H309   H     0.85869   0.23736   0.85391   0.00000  Uiso   1.00
H310   H     0.74874   0.30367   0.63839   0.00000  Uiso   1.00
H311   H     0.97481   0.38094   0.86399   0.00000  Uiso   1.00
H312   H     0.89213   0.17571   0.88148   0.00000  Uiso   1.00
H313   H     0.66027   0.31554   0.42702   0.00000  Uiso   1.00
O314   O     0.04755   0.40405   0.66997   0.00000  Uiso   1.00
O315   O     0.93907   0.13480   0.69291   0.00000  Uiso   1.00
O316   O     0.63488   0.31824   0.09667   0.00000  Uiso   1.00
N317   N     0.01452   0.36734   0.48934   0.00000  Uiso   1.00
N318   N     0.93723   0.17547   0.50570   0.00000  Uiso   1.00
N319   N     0.72046   0.30619   0.08082   0.00000  Uiso   1.00
N320   N     0.98070   0.37275   0.74510   0.00000  Uiso   1.00
N321   N     0.90341   0.18088   0.76146   0.00000  Uiso   1.00
N322   N     0.68664   0.31159   0.33658   0.00000  Uiso   1.00
C323   C     0.89371   0.78254   0.83610   0.00000  Uiso   1.00
C324   C     0.91874   0.80724   0.94082   0.00000  Uiso   1.00
C325   C     0.95862   0.82499   0.88642   0.00000  Uiso   1.00
C326   C     0.97616   0.84634   0.00130   0.00000  Uiso   1.00
C327   C     0.01832   0.88415   0.13909   0.00000  Uiso   1.00
C328   C     0.89745   0.75436   0.94535   0.00000  Uiso   1.00
C329   C     0.91942   0.72764   0.89473   0.00000  Uiso   1.00
C330   C     0.91903   0.70448   0.01342   0.00000  Uiso   1.00
C331   C     0.92810   0.66018   0.15819   0.00000  Uiso   1.00
C332   C     0.83771   0.79039   0.82825   0.00000  Uiso   1.00
C333   C     0.80944   0.79396   0.67917   0.00000  Uiso   1.00
C334   C     0.75875   0.80112   0.69928   0.00000  Uiso   1.00
C335   C     0.67507   0.81277   0.66223   0.00000  Uiso   1.00
C336   C     0.85394   0.78890   0.13687   0.00000  Uiso   1.00
C337   C     0.89714   0.81069   0.10419   0.00000  Uiso   1.00
C338   C     0.91462   0.83202   0.21918   0.00000  Uiso   1.00
C339   C     0.95452   0.84980   0.16496   0.00000  Uiso   1.00
C340   C     0.87584   0.75781   0.10871   0.00000  Uiso   1.00
C341   C     0.87542   0.73468   0.22750   0.00000  Uiso   1.00
C342   C     0.89739   0.70794   0.17708   0.00000  Uiso   1.00
C343   C     0.81610   0.79384   0.99161   0.00000  Uiso   1.00
C344   C     0.76544   0.80100   0.01195   0.00000  Uiso   1.00
C345   C     0.73711   0.80458   0.86294   0.00000  Uiso   1.00
H346   H     0.91053   0.77985   0.70891   0.00000  Uiso   1.00
H347   H     0.97533   0.82231   0.75998   0.00000  Uiso   1.00
H348   H     0.93613   0.72498   0.76829   0.00000  Uiso   1.00
H349   H     0.82617   0.79128   0.55278   0.00000  Uiso   1.00
H350   H     0.03766   0.87089   0.88867   0.00000  Uiso   1.00
H351   H     0.95499   0.66566   0.90617   0.00000  Uiso   1.00
H352   H     0.72312   0.80549   0.45171   0.00000  Uiso   1.00
H353   H     0.83712   0.79159   0.26406   0.00000  Uiso   1.00
H354   H     0.89790   0.83469   0.34560   0.00000  Uiso   1.00
H355   H     0.85869   0.73736   0.35391   0.00000  Uiso   1.00
H356   H     0.74874   0.80367   0.13839   0.00000  Uiso   1.00
H357   H     0.97481   0.88094   0.36399   0.00000  Uiso   1.00
H358   H     0.89213   0.67571   0.38148   0.00000  Uiso   1.00
H359   H     0.66027   0.81554   0.92702   0.00000  Uiso   1.00
O360   O     0.04755   0.90405   0.16997   0.00000  Uiso   1.00
O361   O     0.93907   0.63480   0.19291   0.00000  Uiso   1.00
O362   O     0.63488   0.81824   0.59667   0.00000  Uiso   1.00
N363   N     0.01452   0.86734   0.98934   0.00000  Uiso   1.00
N364   N     0.93723   0.67547   0.00570   0.00000  Uiso   1.00
N365   N     0.72046   0.80619   0.58082   0.00000  Uiso   1.00
N366   N     0.98070   0.87275   0.24510   0.00000  Uiso   1.00
N367   N     0.90341   0.68088   0.26146   0.00000  Uiso   1.00
N368   N     0.68664   0.81159   0.83658   0.00000  Uiso   1.00
C369   C     0.85629   0.53254   0.08610   0.00000  Uiso   1.00
C370   C     0.83126   0.55724   0.19082   0.00000  Uiso   1.00
C371   C     0.79138   0.57499   0.13642   0.00000  Uiso   1.00
C372   C     0.77384   0.59634   0.25130   0.00000  Uiso   1.00
C373   C     0.73168   0.63415   0.38909   0.00000  Uiso   1.00
C374   C     0.85255   0.50436   0.19535   0.00000  Uiso   1.00
C375   C     0.83058   0.47764   0.14473   0.00000  Uiso   1.00
C376   C     0.83097   0.45448   0.26342   0.00000  Uiso   1.00
C377   C     0.82190   0.41018   0.40819   0.00000  Uiso   1.00
C378   C     0.91229   0.54039   0.07825   0.00000  Uiso   1.00
C379   C     0.94056   0.54396   0.92917   0.00000  Uiso   1.00
C380   C     0.99125   0.55112   0.94928   0.00000  Uiso   1.00
C381   C     0.07493   0.56277   0.91223   0.00000  Uiso   1.00
C382   C     0.89606   0.53890   0.38687   0.00000  Uiso   1.00
C383   C     0.85286   0.56069   0.35419   0.00000  Uiso   1.00
C384   C     0.83538   0.58202   0.46918   0.00000  Uiso   1.00
C385   C     0.79548   0.59980   0.41496   0.00000  Uiso   1.00
C386   C     0.87416   0.50781   0.35871   0.00000  Uiso   1.00
C387   C     0.87458   0.48468   0.47750   0.00000  Uiso   1.00
C388   C     0.85261   0.45794   0.42708   0.00000  Uiso   1.00
C389   C     0.93390   0.54384   0.24161   0.00000  Uiso   1.00
C390   C     0.98456   0.55100   0.26195   0.00000  Uiso   1.00
C391   C     0.01289   0.55458   0.11294   0.00000  Uiso   1.00
H392   H     0.83947   0.52985   0.95891   0.00000  Uiso   1.00
H393   H     0.77467   0.57231   0.00998   0.00000  Uiso   1.00
H394   H     0.81387   0.47498   0.01829   0.00000  Uiso   1.00
H395   H     0.92383   0.54128   0.80278   0.00000  Uiso   1.00
H396   H     0.71234   0.62089   0.13867   0.00000  Uiso   1.00
H397   H     0.79501   0.41566   0.15617   0.00000  Uiso   1.00
H398   H     0.02688   0.55549   0.70171   0.00000  Uiso   1.00
H399   H     0.91288   0.54159   0.51406   0.00000  Uiso   1.00
H400   H     0.85210   0.58469   0.59560   0.00000  Uiso   1.00
H401   H     0.89131   0.48736   0.60391   0.00000  Uiso   1.00
H402   H     0.00126   0.55367   0.38839   0.00000  Uiso   1.00
H403   H     0.77519   0.63094   0.61399   0.00000  Uiso   1.00
H404   H     0.85787   0.42571   0.63148   0.00000  Uiso   1.00
H405   H     0.08973   0.56554   0.17702   0.00000  Uiso   1.00
O406   O     0.70245   0.65405   0.41997   0.00000  Uiso   1.00
O407   O     0.81093   0.38480   0.44291   0.00000  Uiso   1.00
O408   O     0.11512   0.56824   0.84667   0.00000  Uiso   1.00
N409   N     0.73548   0.61734   0.23934   0.00000  Uiso   1.00
N410   N     0.81277   0.42547   0.25570   0.00000  Uiso   1.00
N411   N     0.02954   0.55619   0.83082   0.00000  Uiso   1.00
N412   N     0.76930   0.62275   0.49510   0.00000  Uiso   1.00
N413   N     0.84659   0.43088   0.51146   0.00000  Uiso   1.00
N414   N     0.06336   0.56159   0.08658   0.00000  Uiso   1.00
C415   C     0.85629   0.03254   0.58610   0.00000  Uiso   1.00
C416   C     0.83126   0.05724   0.69082   0.00000  Uiso   1.00
C417   C     0.79138   0.07499   0.63642   0.00000  Uiso   1.00
C418   C     0.77384   0.09634   0.75130   0.00000  Uiso   1.00
C419   C     0.73168   0.13415   0.88909   0.00000  Uiso   1.00
C420   C     0.85255   0.00436   0.69535   0.00000  Uiso   1.00
C421   C     0.83058   0.97764   0.64473   0.00000  Uiso   1.00
C422   C     0.83097   0.95448   0.76342   0.00000  Uiso   1.00
C423   C     0.82190   0.91018   0.90819   0.00000  Uiso   1.00
C424   C     0.91229   0.04039   0.57825   0.00000  Uiso   1.00
C425   C     0.94056   0.04396   0.42917   0.00000  Uiso   1.00
C426   C     0.99125   0.05112   0.44928   0.00000  Uiso   1.00
C427   C     0.07493   0.06277   0.41223   0.00000  Uiso   1.00
C428   C     0.89606   0.03890   0.88687   0.00000  Uiso   1.00
C429   C     0.85286   0.06069   0.85419   0.00000  Uiso   1.00
C430   C     0.83538   0.08202   0.96918   0.00000  Uiso   1.00
C431   C     0.79548   0.09980   0.91496   0.00000  Uiso   1.00
C432   C     0.87416   0.00781   0.85871   0.00000  Uiso   1.00
C433   C     0.87458   0.98468   0.97750   0.00000  Uiso   1.00
C434   C     0.85261   0.95794   0.92708   0.00000  Uiso   1.00
C435   C     0.93390   0.04384   0.74161   0.00000  Uiso   1.00
C436   C     0.98456   0.05100   0.76195   0.00000  Uiso   1.00
C437   C     0.01289   0.05458   0.61294   0.00000  Uiso   1.00
H438   H     0.83947   0.02985   0.45891   0.00000  Uiso   1.00
H439   H     0.77467   0.07231   0.50998   0.00000  Uiso   1.00
H440   H     0.81387   0.97498   0.51829   0.00000  Uiso   1.00
H441   H     0.92383   0.04128   0.30278   0.00000  Uiso   1.00
H442   H     0.71234   0.12089   0.63867   0.00000  Uiso   1.00
H443   H     0.79501   0.91566   0.65617   0.00000  Uiso   1.00
H444   H     0.02688   0.05549   0.20171   0.00000  Uiso   1.00
H445   H     0.91288   0.04159   0.01406   0.00000  Uiso   1.00
H446   H     0.85210   0.08469   0.09560   0.00000  Uiso   1.00
H447   H     0.89131   0.98736   0.10391   0.00000  Uiso   1.00
H448   H     0.00126   0.05367   0.88839   0.00000  Uiso   1.00
H449   H     0.77519   0.13094   0.11399   0.00000  Uiso   1.00
H450   H     0.85787   0.92571   0.13148   0.00000  Uiso   1.00
H451   H     0.08973   0.06554   0.67702   0.00000  Uiso   1.00
O452   O     0.70245   0.15405   0.91997   0.00000  Uiso   1.00
O453   O     0.81093   0.88480   0.94291   0.00000  Uiso   1.00
O454   O     0.11512   0.06824   0.34667   0.00000  Uiso   1.00
N455   N     0.73548   0.11734   0.73934   0.00000  Uiso   1.00
N456   N     0.81277   0.92547   0.75570   0.00000  Uiso   1.00
N457   N     0.02954   0.05619   0.33082   0.00000  Uiso   1.00
N458   N     0.76930   0.12275   0.99510   0.00000  Uiso   1.00
N459   N     0.84659   0.93088   0.01146   0.00000  Uiso   1.00
N460   N     0.06336   0.06159   0.58658   0.00000  Uiso   1.00
C461   C     0.35629   0.53254   0.58610   0.00000  Uiso   1.00
C462   C     0.33126   0.55724   0.69082   0.00000  Uiso   1.00
C463   C     0.29138   0.57499   0.63642   0.00000  Uiso   1.00
C464   C     0.27384   0.59634   0.75130   0.00000  Uiso   1.00
C465   C     0.23168   0.63415   0.88909   0.00000  Uiso   1.00
C466   C     0.35255   0.50436   0.69535   0.00000  Uiso   1.00
C467   C     0.33058   0.47764   0.64473   0.00000  Uiso   1.00
C468   C     0.33097   0.45448   0.76342   0.00000  Uiso   1.00
C469   C     0.32190   0.41018   0.90819   0.00000  Uiso   1.00
C470   C     0.41229   0.54039   0.57825   0.00000  Uiso   1.00
C471   C     0.44056   0.54396   0.42917   0.00000  Uiso   1.00
C472   C     0.49125   0.55112   0.44928   0.00000  Uiso   1.00
C473   C     0.57493   0.56277   0.41223   0.00000  Uiso   1.00
C474   C     0.39606   0.53890   0.88687   0.00000  Uiso   1.00
C475   C     0.35286   0.56069   0.85419   0.00000  Uiso   1.00
C476   C     0.33538   0.58202   0.96918   0.00000  Uiso   1.00
C477   C     0.29548   0.59980   0.91496   0.00000  Uiso   1.00
C478   C     0.37416   0.50781   0.85871   0.00000  Uiso   1.00
C479   C     0.37458   0.48468   0.97750   0.00000  Uiso   1.00
C480   C     0.35261   0.45794   0.92708   0.00000  Uiso   1.00
C481   C     0.43390   0.54384   0.74161   0.00000  Uiso   1.00
C482   C     0.48456   0.55100   0.76195   0.00000  Uiso   1.00
C483   C     0.51289   0.55458   0.61294   0.00000  Uiso   1.00
H484   H     0.33947   0.52985   0.45891   0.00000  Uiso   1.00
H485   H     0.27467   0.57231   0.50998   0.00000  Uiso   1.00
H486   H     0.31387   0.47498   0.51829   0.00000  Uiso   1.00
H487   H     0.42383   0.54128   0.30278   0.00000  Uiso   1.00
H488   H     0.21234   0.62089   0.63867   0.00000  Uiso   1.00
H489   H     0.29501   0.41566   0.65617   0.00000  Uiso   1.00
H490   H     0.52688   0.55549   0.20171   0.00000  Uiso   1.00
H491   H     0.41288   0.54159   0.01406   0.00000  Uiso   1.00
H492   H     0.35210   0.58469   0.09560   0.00000  Uiso   1.00
H493   H     0.39131   0.48736   0.10391   0.00000  Uiso   1.00
H494   H     0.50126   0.55367   0.88839   0.00000  Uiso   1.00
H495   H     0.27519   0.63094   0.11399   0.00000  Uiso   1.00
H496   H     0.35787   0.42571   0.13148   0.00000  Uiso   1.00
H497   H     0.58973   0.56554   0.67702   0.00000  Uiso   1.00
O498   O     0.20245   0.65405   0.91997   0.00000  Uiso   1.00
O499   O     0.31093   0.38480   0.94291   0.00000  Uiso   1.00
O500   O     0.61512   0.56824   0.34667   0.00000  Uiso   1.00
N501   N     0.23548   0.61734   0.73934   0.00000  Uiso   1.00
N502   N     0.31277   0.42547   0.75570   0.00000  Uiso   1.00
N503   N     0.52954   0.55619   0.33082   0.00000  Uiso   1.00
N504   N     0.26930   0.62275   0.99510   0.00000  Uiso   1.00
N505   N     0.34659   0.43088   0.01146   0.00000  Uiso   1.00
N506   N     0.56336   0.56159   0.58658   0.00000  Uiso   1.00
C507   C     0.35629   0.03254   0.08610   0.00000  Uiso   1.00
C508   C     0.33126   0.05724   0.19082   0.00000  Uiso   1.00
C509   C     0.29138   0.07499   0.13642   0.00000  Uiso   1.00
C510   C     0.27384   0.09634   0.25130   0.00000  Uiso   1.00
C511   C     0.23168   0.13415   0.38909   0.00000  Uiso   1.00
C512   C     0.35255   0.00436   0.19535   0.00000  Uiso   1.00
C513   C     0.33058   0.97764   0.14473   0.00000  Uiso   1.00
C514   C     0.33097   0.95448   0.26342   0.00000  Uiso   1.00
C515   C     0.32190   0.91018   0.40819   0.00000  Uiso   1.00
C516   C     0.41229   0.04039   0.07825   0.00000  Uiso   1.00
C517   C     0.44056   0.04396   0.92917   0.00000  Uiso   1.00
C518   C     0.49125   0.05112   0.94928   0.00000  Uiso   1.00
C519   C     0.57493   0.06277   0.91223   0.00000  Uiso   1.00
C520   C     0.39606   0.03890   0.38687   0.00000  Uiso   1.00
C521   C     0.35286   0.06069   0.35419   0.00000  Uiso   1.00
C522   C     0.33538   0.08202   0.46918   0.00000  Uiso   1.00
C523   C     0.29548   0.09980   0.41496   0.00000  Uiso   1.00
C524   C     0.37416   0.00781   0.35871   0.00000  Uiso   1.00
C525   C     0.37458   0.98468   0.47750   0.00000  Uiso   1.00
C526   C     0.35261   0.95794   0.42708   0.00000  Uiso   1.00
C527   C     0.43390   0.04384   0.24161   0.00000  Uiso   1.00
C528   C     0.48456   0.05100   0.26195   0.00000  Uiso   1.00
C529   C     0.51289   0.05458   0.11294   0.00000  Uiso   1.00
H530   H     0.33947   0.02985   0.95891   0.00000  Uiso   1.00
H531   H     0.27467   0.07231   0.00998   0.00000  Uiso   1.00
H532   H     0.31387   0.97498   0.01829   0.00000  Uiso   1.00
H533   H     0.42383   0.04128   0.80278   0.00000  Uiso   1.00
H534   H     0.21234   0.12089   0.13867   0.00000  Uiso   1.00
H535   H     0.29501   0.91566   0.15617   0.00000  Uiso   1.00
H536   H     0.52688   0.05549   0.70171   0.00000  Uiso   1.00
H537   H     0.41288   0.04159   0.51406   0.00000  Uiso   1.00
H538   H     0.35210   0.08469   0.59560   0.00000  Uiso   1.00
H539   H     0.39131   0.98736   0.60391   0.00000  Uiso   1.00
H540   H     0.50126   0.05367   0.38839   0.00000  Uiso   1.00
H541   H     0.27519   0.13094   0.61399   0.00000  Uiso   1.00
H542   H     0.35787   0.92571   0.63148   0.00000  Uiso   1.00
H543   H     0.58973   0.06554   0.17702   0.00000  Uiso   1.00
O544   O     0.20245   0.15405   0.41997   0.00000  Uiso   1.00
O545   O     0.31093   0.88480   0.44291   0.00000  Uiso   1.00
O546   O     0.61512   0.06824   0.84667   0.00000  Uiso   1.00
N547   N     0.23548   0.11734   0.23934   0.00000  Uiso   1.00
N548   N     0.31277   0.92547   0.25570   0.00000  Uiso   1.00
N549   N     0.52954   0.05619   0.83082   0.00000  Uiso   1.00
N550   N     0.26930   0.12275   0.49510   0.00000  Uiso   1.00
N551   N     0.34659   0.93088   0.51146   0.00000  Uiso   1.00
N552   N     0.56336   0.06159   0.08658   0.00000  Uiso   1.00
C553   C     0.64371   0.96746   0.08610   0.00000  Uiso   1.00
C554   C     0.66874   0.94276   0.19082   0.00000  Uiso   1.00
C555   C     0.70862   0.92501   0.13642   0.00000  Uiso   1.00
C556   C     0.72616   0.90366   0.25130   0.00000  Uiso   1.00
C557   C     0.76832   0.86585   0.38909   0.00000  Uiso   1.00
C558   C     0.64745   0.99564   0.19535   0.00000  Uiso   1.00
C559   C     0.66942   0.02236   0.14473   0.00000  Uiso   1.00
C560   C     0.66903   0.04552   0.26342   0.00000  Uiso   1.00
C561   C     0.67810   0.08982   0.40819   0.00000  Uiso   1.00
C562   C     0.58771   0.95961   0.07825   0.00000  Uiso   1.00
C563   C     0.55944   0.95604   0.92917   0.00000  Uiso   1.00
C564   C     0.50875   0.94888   0.94928   0.00000  Uiso   1.00
C565   C     0.42507   0.93723   0.91223   0.00000  Uiso   1.00
C566   C     0.60394   0.96110   0.38687   0.00000  Uiso   1.00
C567   C     0.64714   0.93931   0.35419   0.00000  Uiso   1.00
C568   C     0.66462   0.91798   0.46918   0.00000  Uiso   1.00
C569   C     0.70452   0.90020   0.41496   0.00000  Uiso   1.00
C570   C     0.62584   0.99219   0.35871   0.00000  Uiso   1.00
C571   C     0.62542   0.01532   0.47750   0.00000  Uiso   1.00
C572   C     0.64739   0.04206   0.42708   0.00000  Uiso   1.00
C573   C     0.56610   0.95616   0.24161   0.00000  Uiso   1.00
C574   C     0.51544   0.94900   0.26195   0.00000  Uiso   1.00
C575   C     0.48711   0.94542   0.11294   0.00000  Uiso   1.00
H576   H     0.66053   0.97015   0.95891   0.00000  Uiso   1.00
H577   H     0.72533   0.92769   0.00998   0.00000  Uiso   1.00
H578   H     0.68613   0.02502   0.01829   0.00000  Uiso   1.00
H579   H     0.57617   0.95872   0.80278   0.00000  Uiso   1.00
H580   H     0.78766   0.87911   0.13867   0.00000  Uiso   1.00
H581   H     0.70499   0.08434   0.15617   0.00000  Uiso   1.00
H582   H     0.47312   0.94451   0.70171   0.00000  Uiso   1.00
H583   H     0.58712   0.95841   0.51406   0.00000  Uiso   1.00
H584   H     0.64790   0.91531   0.59560   0.00000  Uiso   1.00
H585   H     0.60869   0.01264   0.60391   0.00000  Uiso   1.00
H586   H     0.49874   0.94633   0.38839   0.00000  Uiso   1.00
H587   H     0.72481   0.86906   0.61399   0.00000  Uiso   1.00
H588   H     0.64213   0.07429   0.63148   0.00000  Uiso   1.00
H589   H     0.41027   0.93446   0.17702   0.00000  Uiso   1.00
O590   O     0.79755   0.84595   0.41997   0.00000  Uiso   1.00
O591   O     0.68907   0.11520   0.44291   0.00000  Uiso   1.00
O592   O     0.38488   0.93176   0.84667   0.00000  Uiso   1.00
N593   N     0.76452   0.88266   0.23934   0.00000  Uiso   1.00
N594   N     0.68723   0.07453   0.25570   0.00000  Uiso   1.00
N595   N     0.47046   0.94381   0.83082   0.00000  Uiso   1.00
N596   N     0.73070   0.87725   0.49510   0.00000  Uiso   1.00
N597   N     0.65341   0.06912   0.51146   0.00000  Uiso   1.00
N598   N     0.43664   0.93841   0.08658   0.00000  Uiso   1.00
C599   C     0.64371   0.46746   0.58610   0.00000  Uiso   1.00
C600   C     0.66874   0.44276   0.69082   0.00000  Uiso   1.00
C601   C     0.70862   0.42501   0.63642   0.00000  Uiso   1.00
C602   C     0.72616   0.40366   0.75130   0.00000  Uiso   1.00
C603   C     0.76832   0.36585   0.88909   0.00000  Uiso   1.00
C604   C     0.64745   0.49564   0.69535   0.00000  Uiso   1.00
C605   C     0.66942   0.52236   0.64473   0.00000  Uiso   1.00
C606   C     0.66903   0.54552   0.76342   0.00000  Uiso   1.00
C607   C     0.67810   0.58982   0.90819   0.00000  Uiso   1.00
C608   C     0.58771   0.45961   0.57825   0.00000  Uiso   1.00
C609   C     0.55944   0.45604   0.42917   0.00000  Uiso   1.00
C610   C     0.50875   0.44888   0.44928   0.00000  Uiso   1.00
C611   C     0.42507   0.43723   0.41223   0.00000  Uiso   1.00
C612   C     0.60394   0.46110   0.88687   0.00000  Uiso   1.00
C613   C     0.64714   0.43931   0.85419   0.00000  Uiso   1.00
C614   C     0.66462   0.41798   0.96918   0.00000  Uiso   1.00
C615   C     0.70452   0.40020   0.91496   0.00000  Uiso   1.00
C616   C     0.62584   0.49219   0.85871   0.00000  Uiso   1.00
C617   C     0.62542   0.51532   0.97750   0.00000  Uiso   1.00
C618   C     0.64739   0.54206   0.92708   0.00000  Uiso   1.00
C619   C     0.56610   0.45616   0.74161   0.00000  Uiso   1.00
C620   C     0.51544   0.44900   0.76195   0.00000  Uiso   1.00
C621   C     0.48711   0.44542   0.61294   0.00000  Uiso   1.00
H622   H     0.66053   0.47015   0.45891   0.00000  Uiso   1.00
H623   H     0.72533   0.42769   0.50998   0.00000  Uiso   1.00
H624   H     0.68613   0.52502   0.51829   0.00000  Uiso   1.00
H625   H     0.57617   0.45872   0.30278   0.00000  Uiso   1.00
H626   H     0.78766   0.37911   0.63867   0.00000  Uiso   1.00
H627   H     0.70499   0.58434   0.65617   0.00000  Uiso   1.00
H628   H     0.47312   0.44451   0.20171   0.00000  Uiso   1.00
H629   H     0.58712   0.45841   0.01406   0.00000  Uiso   1.00
H630   H     0.64790   0.41531   0.09560   0.00000  Uiso   1.00
H631   H     0.60869   0.51264   0.10391   0.00000  Uiso   1.00
H632   H     0.49874   0.44633   0.88839   0.00000  Uiso   1.00
H633   H     0.72481   0.36906   0.11399   0.00000  Uiso   1.00
H634   H     0.64213   0.57429   0.13148   0.00000  Uiso   1.00
H635   H     0.41027   0.43446   0.67702   0.00000  Uiso   1.00
O636   O     0.79755   0.34595   0.91997   0.00000  Uiso   1.00
O637   O     0.68907   0.61520   0.94291   0.00000  Uiso   1.00
O638   O     0.38488   0.43176   0.34667   0.00000  Uiso   1.00
N639   N     0.76452   0.38266   0.73934   0.00000  Uiso   1.00
N640   N     0.68723   0.57453   0.75570   0.00000  Uiso   1.00
N641   N     0.47046   0.44381   0.33082   0.00000  Uiso   1.00
N642   N     0.73070   0.37725   0.99510   0.00000  Uiso   1.00
N643   N     0.65341   0.56912   0.01146   0.00000  Uiso   1.00
N644   N     0.43664   0.43841   0.58658   0.00000  Uiso   1.00
C645   C     0.14371   0.96746   0.58610   0.00000  Uiso   1.00
C646   C     0.16874   0.94276   0.69082   0.00000  Uiso   1.00
C647   C     0.20862   0.92501   0.63642   0.00000  Uiso   1.00
C648   C     0.22616   0.90366   0.75130   0.00000  Uiso   1.00
C649   C     0.26832   0.86585   0.88909   0.00000  Uiso   1.00
C650   C     0.14745   0.99564   0.69535   0.00000  Uiso   1.00
C651   C     0.16942   0.02236   0.64473   0.00000  Uiso   1.00
C652   C     0.16903   0.04552   0.76342   0.00000  Uiso   1.00
C653   C     0.17810   0.08982   0.90819   0.00000  Uiso   1.00
C654   C     0.08771   0.95961   0.57825   0.00000  Uiso   1.00
C655   C     0.05944   0.95604   0.42917   0.00000  Uiso   1.00
C656   C     0.00875   0.94888   0.44928   0.00000  Uiso   1.00
C657   C     0.92507   0.93723   0.41223   0.00000  Uiso   1.00
C658   C     0.10394   0.96110   0.88687   0.00000  Uiso   1.00
C659   C     0.14714   0.93931   0.85419   0.00000  Uiso   1.00
C660   C     0.16462   0.91798   0.96918   0.00000  Uiso   1.00
C661   C     0.20452   0.90020   0.91496   0.00000  Uiso   1.00
C662   C     0.12584   0.99219   0.85871   0.00000  Uiso   1.00
C663   C     0.12542   0.01532   0.97750   0.00000  Uiso   1.00
C664   C     0.14739   0.04206   0.92708   0.00000  Uiso   1.00
C665   C     0.06610   0.95616   0.74161   0.00000  Uiso   1.00
C666   C     0.01544   0.94900   0.76195   0.00000  Uiso   1.00
C667   C     0.98711   0.94542   0.61294   0.00000  Uiso   1.00
H668   H     0.16053   0.97015   0.45891   0.00000  Uiso   1.00
H669   H     0.22533   0.92769   0.50998   0.00000  Uiso   1.00
H670   H     0.18613   0.02502   0.51829   0.00000  Uiso   1.00
H671   H     0.07617   0.95872   0.30278   0.00000  Uiso   1.00
H672   H     0.28766   0.87911   0.63867   0.00000  Uiso   1.00
H673   H     0.20499   0.08434   0.65617   0.00000  Uiso   1.00
H674   H     0.97312   0.94451   0.20171   0.00000  Uiso   1.00
H675   H     0.08712   0.95841   0.01406   0.00000  Uiso   1.00
H676   H     0.14790   0.91531   0.09560   0.00000  Uiso   1.00
H677   H     0.10869   0.01264   0.10391   0.00000  Uiso   1.00
H678   H     0.99874   0.94633   0.88839   0.00000  Uiso   1.00
H679   H     0.22481   0.86906   0.11399   0.00000  Uiso   1.00
H680   H     0.14213   0.07429   0.13148   0.00000  Uiso   1.00
H681   H     0.91027   0.93446   0.67702   0.00000  Uiso   1.00
O682   O     0.29755   0.84595   0.91997   0.00000  Uiso   1.00
O683   O     0.18907   0.11520   0.94291   0.00000  Uiso   1.00
O684   O     0.88488   0.93176   0.34667   0.00000  Uiso   1.00
N685   N     0.26452   0.88266   0.73934   0.00000  Uiso   1.00
N686   N     0.18723   0.07453   0.75570   0.00000  Uiso   1.00
N687   N     0.97046   0.94381   0.33082   0.00000  Uiso   1.00
N688   N     0.23070   0.87725   0.99510   0.00000  Uiso   1.00
N689   N     0.15341   0.06912   0.01146   0.00000  Uiso   1.00
N690   N     0.93664   0.93841   0.58658   0.00000  Uiso   1.00
C691   C     0.14371   0.46746   0.08610   0.00000  Uiso   1.00
C692   C     0.16874   0.44276   0.19082   0.00000  Uiso   1.00
C693   C     0.20862   0.42501   0.13642   0.00000  Uiso   1.00
C694   C     0.22616   0.40366   0.25130   0.00000  Uiso   1.00
C695   C     0.26832   0.36585   0.38909   0.00000  Uiso   1.00
C696   C     0.14745   0.49564   0.19535   0.00000  Uiso   1.00
C697   C     0.16942   0.52236   0.14473   0.00000  Uiso   1.00
C698   C     0.16903   0.54552   0.26342   0.00000  Uiso   1.00
C699   C     0.17810   0.58982   0.40819   0.00000  Uiso   1.00
C700   C     0.08771   0.45961   0.07825   0.00000  Uiso   1.00
C701   C     0.05944   0.45604   0.92917   0.00000  Uiso   1.00
C702   C     0.00875   0.44888   0.94928   0.00000  Uiso   1.00
C703   C     0.92507   0.43723   0.91223   0.00000  Uiso   1.00
C704   C     0.10394   0.46110   0.38687   0.00000  Uiso   1.00
C705   C     0.14714   0.43931   0.35419   0.00000  Uiso   1.00
C706   C     0.16462   0.41798   0.46918   0.00000  Uiso   1.00
C707   C     0.20452   0.40020   0.41496   0.00000  Uiso   1.00
C708   C     0.12584   0.49219   0.35871   0.00000  Uiso   1.00
C709   C     0.12542   0.51532   0.47750   0.00000  Uiso   1.00
C710   C     0.14739   0.54206   0.42708   0.00000  Uiso   1.00
C711   C     0.06610   0.45616   0.24161   0.00000  Uiso   1.00
C712   C     0.01544   0.44900   0.26195   0.00000  Uiso   1.00
C713   C     0.98711   0.44542   0.11294   0.00000  Uiso   1.00
H714   H     0.16053   0.47015   0.95891   0.00000  Uiso   1.00
H715   H     0.22533   0.42769   0.00998   0.00000  Uiso   1.00
H716   H     0.18613   0.52502   0.01829   0.00000  Uiso   1.00
H717   H     0.07617   0.45872   0.80278   0.00000  Uiso   1.00
H718   H     0.28766   0.37911   0.13867   0.00000  Uiso   1.00
H719   H     0.20499   0.58434   0.15617   0.00000  Uiso   1.00
H720   H     0.97312   0.44451   0.70171   0.00000  Uiso   1.00
H721   H     0.08712   0.45841   0.51406   0.00000  Uiso   1.00
H722   H     0.14790   0.41531   0.59560   0.00000  Uiso   1.00
H723   H     0.10869   0.51264   0.60391   0.00000  Uiso   1.00
H724   H     0.99874   0.44633   0.38839   0.00000  Uiso   1.00
H725   H     0.22481   0.36906   0.61399   0.00000  Uiso   1.00
H726   H     0.14213   0.57429   0.63148   0.00000  Uiso   1.00
H727   H     0.91027   0.43446   0.17702   0.00000  Uiso   1.00
O728   O     0.29755   0.34595   0.41997   0.00000  Uiso   1.00
O729   O     0.18907   0.61520   0.44291   0.00000  Uiso   1.00
O730   O     0.88488   0.43176   0.84667   0.00000  Uiso   1.00
N731   N     0.26452   0.38266   0.23934   0.00000  Uiso   1.00
N732   N     0.18723   0.57453   0.25570   0.00000  Uiso   1.00
N733   N     0.97046   0.44381   0.83082   0.00000  Uiso   1.00
N734   N     0.23070   0.37725   0.49510   0.00000  Uiso   1.00
N735   N     0.15341   0.56912   0.51146   0.00000  Uiso   1.00
N736   N     0.93664   0.43841   0.08658   0.00000  Uiso   1.00
