data_job_05574
_audit_creation_date              2018-12-19
_audit_creation_method            'Materials Studio'
_symmetry_space_group_name_H-M    'P1'
_symmetry_Int_Tables_number       1
_symmetry_cell_setting            triclinic
loop_
_symmetry_equiv_pos_as_xyz
  x,y,z
_cell_length_a                    23.8668
_cell_length_b                    23.7671
_cell_length_c                    24.4349
_cell_angle_alpha                 90.0000
_cell_angle_beta                  90.0000
_cell_angle_gamma                 90.0000
loop_
_atom_site_label
_atom_site_type_symbol
_atom_site_fract_x
_atom_site_fract_y
_atom_site_fract_z
_atom_site_U_iso_or_equiv
_atom_site_adp_type
_atom_site_occupancy
C1     C     0.18478   0.67704   0.83057   0.00000  Uiso   1.00
C2     C     0.17939   0.72079   0.87591   0.00000  Uiso   1.00
C3     C     0.19269   0.77744   0.87136   0.00000  Uiso   1.00
C4     C     0.18482   0.81054   0.91754   0.00000  Uiso   1.00
C5     C     0.17958   0.88193   0.98052   0.00000  Uiso   1.00
C6     C     0.22234   0.63073   0.85337   0.00000  Uiso   1.00
C7     C     0.27175   0.61166   0.82986   0.00000  Uiso   1.00
C8     C     0.30004   0.56895   0.85707   0.00000  Uiso   1.00
C9     C     0.36146   0.50050   0.88502   0.00000  Uiso   1.00
C10    C     0.12683   0.65085   0.82416   0.00000  Uiso   1.00
C11    C     0.09593   0.64868   0.77609   0.00000  Uiso   1.00
C12    C     0.04379   0.62290   0.77870   0.00000  Uiso   1.00
C13    C     0.95692   0.58569   0.76130   0.00000  Uiso   1.00
C14    C     0.14714   0.63510   0.92067   0.00000  Uiso   1.00
C15    C     0.15895   0.69801   0.92485   0.00000  Uiso   1.00
C16    C     0.15105   0.73103   0.97105   0.00000  Uiso   1.00
C17    C     0.16434   0.78772   0.96657   0.00000  Uiso   1.00
C18    C     0.20190   0.60795   0.90231   0.00000  Uiso   1.00
C19    C     0.23011   0.56526   0.92955   0.00000  Uiso   1.00
C20    C     0.27956   0.54613   0.90609   0.00000  Uiso   1.00
C21    C     0.10638   0.62807   0.87310   0.00000  Uiso   1.00
C22    C     0.05429   0.60228   0.87578   0.00000  Uiso   1.00
C23    C     0.02331   0.60007   0.82773   0.00000  Uiso   1.00
H24    H     0.20070   0.69478   0.79247   0.00000  Uiso   1.00
H25    H     0.20852   0.79505   0.83349   0.00000  Uiso   1.00
H26    H     0.28756   0.62930   0.79199   0.00000  Uiso   1.00
H27    H     0.11176   0.66632   0.73823   0.00000  Uiso   1.00
H28    H     0.20819   0.89618   0.90055   0.00000  Uiso   1.00
H29    H     0.37485   0.54666   0.81304   0.00000  Uiso   1.00
H30    H     0.00414   0.62472   0.69968   0.00000  Uiso   1.00
H31    H     0.13123   0.61736   0.95877   0.00000  Uiso   1.00
H32    H     0.13523   0.71339   0.00891   0.00000  Uiso   1.00
H33    H     0.21428   0.54764   0.96742   0.00000  Uiso   1.00
H34    H     0.03848   0.58465   0.91366   0.00000  Uiso   1.00
H35    H     0.14871   0.82990   0.04294   0.00000  Uiso   1.00
H36    H     0.31537   0.48038   0.95543   0.00000  Uiso   1.00
H37    H     0.94466   0.55844   0.84206   0.00000  Uiso   1.00
O38    O     0.18235   0.92760   0.00174   0.00000  Uiso   1.00
O39    O     0.40100   0.46905   0.88692   0.00000  Uiso   1.00
O40    O     0.91464   0.57146   0.73819   0.00000  Uiso   1.00
N41    N     0.19363   0.86740   0.92718   0.00000  Uiso   1.00
N42    N     0.34945   0.54063   0.84537   0.00000  Uiso   1.00
N43    N     0.00288   0.61360   0.73938   0.00000  Uiso   1.00
N44    N     0.16162   0.83174   0.00379   0.00000  Uiso   1.00
N45    N     0.31745   0.50497   0.92198   0.00000  Uiso   1.00
N46    N     0.97087   0.57793   0.81599   0.00000  Uiso   1.00
C47    C     0.68478   0.17704   0.33057   0.00000  Uiso   1.00
C48    C     0.67939   0.22079   0.37591   0.00000  Uiso   1.00
C49    C     0.69269   0.27744   0.37136   0.00000  Uiso   1.00
C50    C     0.68482   0.31054   0.41754   0.00000  Uiso   1.00
C51    C     0.67958   0.38193   0.48052   0.00000  Uiso   1.00
C52    C     0.72234   0.13073   0.35337   0.00000  Uiso   1.00
C53    C     0.77175   0.11166   0.32986   0.00000  Uiso   1.00
C54    C     0.80004   0.06895   0.35707   0.00000  Uiso   1.00
C55    C     0.86146   0.00050   0.38502   0.00000  Uiso   1.00
C56    C     0.62683   0.15085   0.32416   0.00000  Uiso   1.00
C57    C     0.59593   0.14868   0.27609   0.00000  Uiso   1.00
C58    C     0.54379   0.12290   0.27870   0.00000  Uiso   1.00
C59    C     0.45692   0.08569   0.26130   0.00000  Uiso   1.00
C60    C     0.64714   0.13510   0.42067   0.00000  Uiso   1.00
C61    C     0.65895   0.19801   0.42485   0.00000  Uiso   1.00
C62    C     0.65105   0.23103   0.47105   0.00000  Uiso   1.00
C63    C     0.66434   0.28772   0.46657   0.00000  Uiso   1.00
C64    C     0.70190   0.10795   0.40231   0.00000  Uiso   1.00
C65    C     0.73011   0.06526   0.42955   0.00000  Uiso   1.00
C66    C     0.77956   0.04613   0.40609   0.00000  Uiso   1.00
C67    C     0.60638   0.12807   0.37310   0.00000  Uiso   1.00
C68    C     0.55429   0.10228   0.37578   0.00000  Uiso   1.00
C69    C     0.52331   0.10007   0.32773   0.00000  Uiso   1.00
H70    H     0.70070   0.19478   0.29247   0.00000  Uiso   1.00
H71    H     0.70852   0.29505   0.33349   0.00000  Uiso   1.00
H72    H     0.78756   0.12930   0.29199   0.00000  Uiso   1.00
H73    H     0.61176   0.16632   0.23823   0.00000  Uiso   1.00
H74    H     0.70819   0.39618   0.40055   0.00000  Uiso   1.00
H75    H     0.87485   0.04666   0.31304   0.00000  Uiso   1.00
H76    H     0.50414   0.12472   0.19968   0.00000  Uiso   1.00
H77    H     0.63123   0.11736   0.45877   0.00000  Uiso   1.00
H78    H     0.63523   0.21339   0.50891   0.00000  Uiso   1.00
H79    H     0.71428   0.04764   0.46742   0.00000  Uiso   1.00
H80    H     0.53848   0.08465   0.41366   0.00000  Uiso   1.00
H81    H     0.64871   0.32990   0.54294   0.00000  Uiso   1.00
H82    H     0.81537   0.98038   0.45543   0.00000  Uiso   1.00
H83    H     0.44466   0.05844   0.34206   0.00000  Uiso   1.00
O84    O     0.68235   0.42760   0.50174   0.00000  Uiso   1.00
O85    O     0.90100   0.96905   0.38692   0.00000  Uiso   1.00
O86    O     0.41464   0.07146   0.23819   0.00000  Uiso   1.00
N87    N     0.69363   0.36740   0.42718   0.00000  Uiso   1.00
N88    N     0.84945   0.04063   0.34537   0.00000  Uiso   1.00
N89    N     0.50288   0.11360   0.23938   0.00000  Uiso   1.00
N90    N     0.66162   0.33174   0.50379   0.00000  Uiso   1.00
N91    N     0.81745   0.00497   0.42198   0.00000  Uiso   1.00
N92    N     0.47087   0.07793   0.31599   0.00000  Uiso   1.00
C93    C     0.31522   0.32296   0.33057   0.00000  Uiso   1.00
C94    C     0.32061   0.27921   0.37591   0.00000  Uiso   1.00
C95    C     0.30731   0.22256   0.37136   0.00000  Uiso   1.00
C96    C     0.31518   0.18946   0.41754   0.00000  Uiso   1.00
C97    C     0.32042   0.11807   0.48052   0.00000  Uiso   1.00
C98    C     0.27766   0.36927   0.35337   0.00000  Uiso   1.00
C99    C     0.22825   0.38834   0.32986   0.00000  Uiso   1.00
C100   C     0.19996   0.43105   0.35707   0.00000  Uiso   1.00
C101   C     0.13854   0.49950   0.38502   0.00000  Uiso   1.00
C102   C     0.37317   0.34915   0.32416   0.00000  Uiso   1.00
C103   C     0.40407   0.35132   0.27609   0.00000  Uiso   1.00
C104   C     0.45621   0.37710   0.27870   0.00000  Uiso   1.00
C105   C     0.54308   0.41431   0.26130   0.00000  Uiso   1.00
C106   C     0.35286   0.36490   0.42067   0.00000  Uiso   1.00
C107   C     0.34105   0.30199   0.42485   0.00000  Uiso   1.00
C108   C     0.34895   0.26897   0.47105   0.00000  Uiso   1.00
C109   C     0.33566   0.21228   0.46657   0.00000  Uiso   1.00
C110   C     0.29810   0.39205   0.40231   0.00000  Uiso   1.00
C111   C     0.26989   0.43474   0.42955   0.00000  Uiso   1.00
C112   C     0.22044   0.45387   0.40609   0.00000  Uiso   1.00
C113   C     0.39362   0.37193   0.37310   0.00000  Uiso   1.00
C114   C     0.44571   0.39772   0.37578   0.00000  Uiso   1.00
C115   C     0.47669   0.39993   0.32773   0.00000  Uiso   1.00
H116   H     0.29930   0.30522   0.29247   0.00000  Uiso   1.00
H117   H     0.29148   0.20495   0.33349   0.00000  Uiso   1.00
H118   H     0.21244   0.37070   0.29199   0.00000  Uiso   1.00
H119   H     0.38824   0.33368   0.23823   0.00000  Uiso   1.00
H120   H     0.29181   0.10382   0.40055   0.00000  Uiso   1.00
H121   H     0.12515   0.45334   0.31304   0.00000  Uiso   1.00
H122   H     0.49586   0.37528   0.19968   0.00000  Uiso   1.00
H123   H     0.36877   0.38264   0.45877   0.00000  Uiso   1.00
H124   H     0.36477   0.28661   0.50891   0.00000  Uiso   1.00
H125   H     0.28572   0.45236   0.46742   0.00000  Uiso   1.00
H126   H     0.46152   0.41535   0.41366   0.00000  Uiso   1.00
H127   H     0.35129   0.17010   0.54294   0.00000  Uiso   1.00
H128   H     0.18463   0.51962   0.45543   0.00000  Uiso   1.00
H129   H     0.55534   0.44156   0.34206   0.00000  Uiso   1.00
O130   O     0.31765   0.07240   0.50174   0.00000  Uiso   1.00
O131   O     0.09900   0.53095   0.38692   0.00000  Uiso   1.00
O132   O     0.58536   0.42854   0.23819   0.00000  Uiso   1.00
N133   N     0.30637   0.13260   0.42718   0.00000  Uiso   1.00
N134   N     0.15055   0.45937   0.34537   0.00000  Uiso   1.00
N135   N     0.49712   0.38640   0.23938   0.00000  Uiso   1.00
N136   N     0.33838   0.16826   0.50379   0.00000  Uiso   1.00
N137   N     0.18255   0.49503   0.42198   0.00000  Uiso   1.00
N138   N     0.52913   0.42207   0.31599   0.00000  Uiso   1.00
C139   C     0.81522   0.82296   0.83057   0.00000  Uiso   1.00
C140   C     0.82061   0.77921   0.87591   0.00000  Uiso   1.00
C141   C     0.80731   0.72256   0.87136   0.00000  Uiso   1.00
C142   C     0.81518   0.68946   0.91754   0.00000  Uiso   1.00
C143   C     0.82042   0.61807   0.98052   0.00000  Uiso   1.00
C144   C     0.77766   0.86927   0.85337   0.00000  Uiso   1.00
C145   C     0.72825   0.88834   0.82986   0.00000  Uiso   1.00
C146   C     0.69996   0.93105   0.85707   0.00000  Uiso   1.00
C147   C     0.63854   0.99950   0.88502   0.00000  Uiso   1.00
C148   C     0.87317   0.84915   0.82416   0.00000  Uiso   1.00
C149   C     0.90407   0.85132   0.77609   0.00000  Uiso   1.00
C150   C     0.95621   0.87710   0.77870   0.00000  Uiso   1.00
C151   C     0.04308   0.91431   0.76130   0.00000  Uiso   1.00
C152   C     0.85286   0.86490   0.92067   0.00000  Uiso   1.00
C153   C     0.84105   0.80199   0.92485   0.00000  Uiso   1.00
C154   C     0.84895   0.76897   0.97105   0.00000  Uiso   1.00
C155   C     0.83566   0.71228   0.96657   0.00000  Uiso   1.00
C156   C     0.79810   0.89205   0.90231   0.00000  Uiso   1.00
C157   C     0.76989   0.93474   0.92955   0.00000  Uiso   1.00
C158   C     0.72044   0.95387   0.90609   0.00000  Uiso   1.00
C159   C     0.89362   0.87193   0.87310   0.00000  Uiso   1.00
C160   C     0.94571   0.89772   0.87578   0.00000  Uiso   1.00
C161   C     0.97669   0.89993   0.82773   0.00000  Uiso   1.00
H162   H     0.79930   0.80522   0.79247   0.00000  Uiso   1.00
H163   H     0.79148   0.70495   0.83349   0.00000  Uiso   1.00
H164   H     0.71244   0.87070   0.79199   0.00000  Uiso   1.00
H165   H     0.88824   0.83368   0.73823   0.00000  Uiso   1.00
H166   H     0.79181   0.60382   0.90055   0.00000  Uiso   1.00
H167   H     0.62515   0.95334   0.81304   0.00000  Uiso   1.00
H168   H     0.99586   0.87528   0.69968   0.00000  Uiso   1.00
H169   H     0.86877   0.88264   0.95877   0.00000  Uiso   1.00
H170   H     0.86477   0.78661   0.00891   0.00000  Uiso   1.00
H171   H     0.78572   0.95236   0.96742   0.00000  Uiso   1.00
H172   H     0.96152   0.91535   0.91366   0.00000  Uiso   1.00
H173   H     0.85129   0.67010   0.04294   0.00000  Uiso   1.00
H174   H     0.68463   0.01962   0.95543   0.00000  Uiso   1.00
H175   H     0.05534   0.94156   0.84206   0.00000  Uiso   1.00
O176   O     0.81765   0.57240   0.00174   0.00000  Uiso   1.00
O177   O     0.59900   0.03095   0.88692   0.00000  Uiso   1.00
O178   O     0.08536   0.92854   0.73819   0.00000  Uiso   1.00
N179   N     0.80637   0.63260   0.92718   0.00000  Uiso   1.00
N180   N     0.65055   0.95937   0.84537   0.00000  Uiso   1.00
N181   N     0.99712   0.88640   0.73938   0.00000  Uiso   1.00
N182   N     0.83838   0.66826   0.00379   0.00000  Uiso   1.00
N183   N     0.68255   0.99503   0.92198   0.00000  Uiso   1.00
N184   N     0.02913   0.92207   0.81599   0.00000  Uiso   1.00
C185   C     0.81522   0.17704   0.66943   0.00000  Uiso   1.00
C186   C     0.82061   0.22079   0.62409   0.00000  Uiso   1.00
C187   C     0.80731   0.27744   0.62864   0.00000  Uiso   1.00
C188   C     0.81518   0.31054   0.58246   0.00000  Uiso   1.00
C189   C     0.82042   0.38193   0.51948   0.00000  Uiso   1.00
C190   C     0.77766   0.13073   0.64663   0.00000  Uiso   1.00
C191   C     0.72825   0.11166   0.67014   0.00000  Uiso   1.00
C192   C     0.69996   0.06895   0.64293   0.00000  Uiso   1.00
C193   C     0.63854   0.00050   0.61498   0.00000  Uiso   1.00
C194   C     0.87317   0.15085   0.67584   0.00000  Uiso   1.00
C195   C     0.90407   0.14868   0.72391   0.00000  Uiso   1.00
C196   C     0.95621   0.12290   0.72130   0.00000  Uiso   1.00
C197   C     0.04308   0.08569   0.73870   0.00000  Uiso   1.00
C198   C     0.85286   0.13510   0.57933   0.00000  Uiso   1.00
C199   C     0.84105   0.19801   0.57515   0.00000  Uiso   1.00
C200   C     0.84895   0.23103   0.52895   0.00000  Uiso   1.00
C201   C     0.83566   0.28772   0.53343   0.00000  Uiso   1.00
C202   C     0.79810   0.10795   0.59769   0.00000  Uiso   1.00
C203   C     0.76989   0.06526   0.57045   0.00000  Uiso   1.00
C204   C     0.72044   0.04613   0.59391   0.00000  Uiso   1.00
C205   C     0.89362   0.12807   0.62690   0.00000  Uiso   1.00
C206   C     0.94571   0.10228   0.62422   0.00000  Uiso   1.00
C207   C     0.97669   0.10007   0.67227   0.00000  Uiso   1.00
H208   H     0.79930   0.19478   0.70753   0.00000  Uiso   1.00
H209   H     0.79148   0.29505   0.66651   0.00000  Uiso   1.00
H210   H     0.71244   0.12930   0.70801   0.00000  Uiso   1.00
H211   H     0.88824   0.16632   0.76177   0.00000  Uiso   1.00
H212   H     0.79181   0.39618   0.59945   0.00000  Uiso   1.00
H213   H     0.62515   0.04666   0.68696   0.00000  Uiso   1.00
H214   H     0.99586   0.12472   0.80032   0.00000  Uiso   1.00
H215   H     0.86877   0.11736   0.54123   0.00000  Uiso   1.00
H216   H     0.86477   0.21339   0.49109   0.00000  Uiso   1.00
H217   H     0.78572   0.04764   0.53258   0.00000  Uiso   1.00
H218   H     0.96152   0.08465   0.58634   0.00000  Uiso   1.00
H219   H     0.85129   0.32990   0.45706   0.00000  Uiso   1.00
H220   H     0.68463   0.98038   0.54457   0.00000  Uiso   1.00
H221   H     0.05534   0.05844   0.65794   0.00000  Uiso   1.00
O222   O     0.81765   0.42760   0.49826   0.00000  Uiso   1.00
O223   O     0.59900   0.96905   0.61308   0.00000  Uiso   1.00
O224   O     0.08536   0.07146   0.76181   0.00000  Uiso   1.00
N225   N     0.80637   0.36740   0.57282   0.00000  Uiso   1.00
N226   N     0.65055   0.04063   0.65463   0.00000  Uiso   1.00
N227   N     0.99712   0.11360   0.76062   0.00000  Uiso   1.00
N228   N     0.83838   0.33174   0.49621   0.00000  Uiso   1.00
N229   N     0.68255   0.00497   0.57802   0.00000  Uiso   1.00
N230   N     0.02913   0.07793   0.68401   0.00000  Uiso   1.00
C231   C     0.31522   0.67704   0.16943   0.00000  Uiso   1.00
C232   C     0.32061   0.72079   0.12409   0.00000  Uiso   1.00
C233   C     0.30731   0.77744   0.12864   0.00000  Uiso   1.00
C234   C     0.31518   0.81054   0.08246   0.00000  Uiso   1.00
C235   C     0.32042   0.88193   0.01948   0.00000  Uiso   1.00
C236   C     0.27766   0.63073   0.14663   0.00000  Uiso   1.00
C237   C     0.22825   0.61166   0.17014   0.00000  Uiso   1.00
C238   C     0.19996   0.56895   0.14293   0.00000  Uiso   1.00
C239   C     0.13854   0.50050   0.11498   0.00000  Uiso   1.00
C240   C     0.37317   0.65085   0.17584   0.00000  Uiso   1.00
C241   C     0.40407   0.64868   0.22391   0.00000  Uiso   1.00
C242   C     0.45621   0.62290   0.22130   0.00000  Uiso   1.00
C243   C     0.54308   0.58569   0.23870   0.00000  Uiso   1.00
C244   C     0.35286   0.63510   0.07933   0.00000  Uiso   1.00
C245   C     0.34105   0.69801   0.07515   0.00000  Uiso   1.00
C246   C     0.34895   0.73103   0.02895   0.00000  Uiso   1.00
C247   C     0.33566   0.78772   0.03343   0.00000  Uiso   1.00
C248   C     0.29810   0.60795   0.09769   0.00000  Uiso   1.00
C249   C     0.26989   0.56526   0.07045   0.00000  Uiso   1.00
C250   C     0.22044   0.54613   0.09391   0.00000  Uiso   1.00
C251   C     0.39362   0.62807   0.12690   0.00000  Uiso   1.00
C252   C     0.44571   0.60228   0.12422   0.00000  Uiso   1.00
C253   C     0.47669   0.60007   0.17227   0.00000  Uiso   1.00
H254   H     0.29930   0.69478   0.20753   0.00000  Uiso   1.00
H255   H     0.29148   0.79505   0.16651   0.00000  Uiso   1.00
H256   H     0.21244   0.62930   0.20801   0.00000  Uiso   1.00
H257   H     0.38824   0.66632   0.26177   0.00000  Uiso   1.00
H258   H     0.29181   0.89618   0.09945   0.00000  Uiso   1.00
H259   H     0.12515   0.54666   0.18696   0.00000  Uiso   1.00
H260   H     0.49586   0.62472   0.30032   0.00000  Uiso   1.00
H261   H     0.36877   0.61736   0.04123   0.00000  Uiso   1.00
H262   H     0.36477   0.71339   0.99109   0.00000  Uiso   1.00
H263   H     0.28572   0.54764   0.03258   0.00000  Uiso   1.00
H264   H     0.46152   0.58465   0.08634   0.00000  Uiso   1.00
H265   H     0.35129   0.82990   0.95706   0.00000  Uiso   1.00
H266   H     0.18463   0.48038   0.04457   0.00000  Uiso   1.00
H267   H     0.55534   0.55844   0.15794   0.00000  Uiso   1.00
O268   O     0.31765   0.92760   0.99826   0.00000  Uiso   1.00
O269   O     0.09900   0.46905   0.11308   0.00000  Uiso   1.00
O270   O     0.58536   0.57146   0.26181   0.00000  Uiso   1.00
N271   N     0.30637   0.86740   0.07282   0.00000  Uiso   1.00
N272   N     0.15055   0.54063   0.15463   0.00000  Uiso   1.00
N273   N     0.49712   0.61360   0.26062   0.00000  Uiso   1.00
N274   N     0.33838   0.83174   0.99621   0.00000  Uiso   1.00
N275   N     0.18255   0.50497   0.07802   0.00000  Uiso   1.00
N276   N     0.52913   0.57793   0.18401   0.00000  Uiso   1.00
C277   C     0.68478   0.82296   0.16943   0.00000  Uiso   1.00
C278   C     0.67939   0.77921   0.12409   0.00000  Uiso   1.00
C279   C     0.69269   0.72256   0.12864   0.00000  Uiso   1.00
C280   C     0.68482   0.68946   0.08246   0.00000  Uiso   1.00
C281   C     0.67958   0.61807   0.01948   0.00000  Uiso   1.00
C282   C     0.72234   0.86927   0.14663   0.00000  Uiso   1.00
C283   C     0.77175   0.88834   0.17014   0.00000  Uiso   1.00
C284   C     0.80004   0.93105   0.14293   0.00000  Uiso   1.00
C285   C     0.86146   0.99950   0.11498   0.00000  Uiso   1.00
C286   C     0.62683   0.84915   0.17584   0.00000  Uiso   1.00
C287   C     0.59593   0.85132   0.22391   0.00000  Uiso   1.00
C288   C     0.54379   0.87710   0.22130   0.00000  Uiso   1.00
C289   C     0.45692   0.91431   0.23870   0.00000  Uiso   1.00
C290   C     0.64714   0.86490   0.07933   0.00000  Uiso   1.00
C291   C     0.65895   0.80199   0.07515   0.00000  Uiso   1.00
C292   C     0.65105   0.76897   0.02895   0.00000  Uiso   1.00
C293   C     0.66434   0.71228   0.03343   0.00000  Uiso   1.00
C294   C     0.70190   0.89205   0.09769   0.00000  Uiso   1.00
C295   C     0.73011   0.93474   0.07045   0.00000  Uiso   1.00
C296   C     0.77956   0.95387   0.09391   0.00000  Uiso   1.00
C297   C     0.60638   0.87193   0.12690   0.00000  Uiso   1.00
C298   C     0.55429   0.89772   0.12422   0.00000  Uiso   1.00
C299   C     0.52331   0.89993   0.17227   0.00000  Uiso   1.00
H300   H     0.70070   0.80522   0.20753   0.00000  Uiso   1.00
H301   H     0.70852   0.70495   0.16651   0.00000  Uiso   1.00
H302   H     0.78756   0.87070   0.20801   0.00000  Uiso   1.00
H303   H     0.61176   0.83368   0.26177   0.00000  Uiso   1.00
H304   H     0.70819   0.60382   0.09945   0.00000  Uiso   1.00
H305   H     0.87485   0.95334   0.18696   0.00000  Uiso   1.00
H306   H     0.50414   0.87528   0.30032   0.00000  Uiso   1.00
H307   H     0.63123   0.88264   0.04123   0.00000  Uiso   1.00
H308   H     0.63523   0.78661   0.99109   0.00000  Uiso   1.00
H309   H     0.71428   0.95236   0.03258   0.00000  Uiso   1.00
H310   H     0.53848   0.91535   0.08634   0.00000  Uiso   1.00
H311   H     0.64871   0.67010   0.95706   0.00000  Uiso   1.00
H312   H     0.81537   0.01962   0.04457   0.00000  Uiso   1.00
H313   H     0.44466   0.94156   0.15794   0.00000  Uiso   1.00
O314   O     0.68235   0.57240   0.99826   0.00000  Uiso   1.00
O315   O     0.90100   0.03095   0.11308   0.00000  Uiso   1.00
O316   O     0.41464   0.92854   0.26181   0.00000  Uiso   1.00
N317   N     0.69363   0.63260   0.07282   0.00000  Uiso   1.00
N318   N     0.84945   0.95937   0.15463   0.00000  Uiso   1.00
N319   N     0.50288   0.88640   0.26062   0.00000  Uiso   1.00
N320   N     0.66162   0.66826   0.99621   0.00000  Uiso   1.00
N321   N     0.81745   0.99503   0.07802   0.00000  Uiso   1.00
N322   N     0.47087   0.92207   0.18401   0.00000  Uiso   1.00
C323   C     0.18478   0.32296   0.66943   0.00000  Uiso   1.00
C324   C     0.17939   0.27921   0.62409   0.00000  Uiso   1.00
C325   C     0.19269   0.22256   0.62864   0.00000  Uiso   1.00
C326   C     0.18482   0.18946   0.58246   0.00000  Uiso   1.00
C327   C     0.17958   0.11807   0.51948   0.00000  Uiso   1.00
C328   C     0.22234   0.36927   0.64663   0.00000  Uiso   1.00
C329   C     0.27175   0.38834   0.67014   0.00000  Uiso   1.00
C330   C     0.30004   0.43105   0.64293   0.00000  Uiso   1.00
C331   C     0.36146   0.49950   0.61498   0.00000  Uiso   1.00
C332   C     0.12683   0.34915   0.67584   0.00000  Uiso   1.00
C333   C     0.09593   0.35132   0.72391   0.00000  Uiso   1.00
C334   C     0.04379   0.37710   0.72130   0.00000  Uiso   1.00
C335   C     0.95692   0.41431   0.73870   0.00000  Uiso   1.00
C336   C     0.14714   0.36490   0.57933   0.00000  Uiso   1.00
C337   C     0.15895   0.30199   0.57515   0.00000  Uiso   1.00
C338   C     0.15105   0.26897   0.52895   0.00000  Uiso   1.00
C339   C     0.16434   0.21228   0.53343   0.00000  Uiso   1.00
C340   C     0.20190   0.39205   0.59769   0.00000  Uiso   1.00
C341   C     0.23011   0.43474   0.57045   0.00000  Uiso   1.00
C342   C     0.27956   0.45387   0.59391   0.00000  Uiso   1.00
C343   C     0.10638   0.37193   0.62690   0.00000  Uiso   1.00
C344   C     0.05429   0.39772   0.62422   0.00000  Uiso   1.00
C345   C     0.02331   0.39993   0.67227   0.00000  Uiso   1.00
H346   H     0.20070   0.30522   0.70753   0.00000  Uiso   1.00
H347   H     0.20852   0.20495   0.66651   0.00000  Uiso   1.00
H348   H     0.28756   0.37070   0.70801   0.00000  Uiso   1.00
H349   H     0.11176   0.33368   0.76177   0.00000  Uiso   1.00
H350   H     0.20819   0.10382   0.59945   0.00000  Uiso   1.00
H351   H     0.37485   0.45334   0.68696   0.00000  Uiso   1.00
H352   H     0.00414   0.37528   0.80032   0.00000  Uiso   1.00
H353   H     0.13123   0.38264   0.54123   0.00000  Uiso   1.00
H354   H     0.13523   0.28661   0.49109   0.00000  Uiso   1.00
H355   H     0.21428   0.45236   0.53258   0.00000  Uiso   1.00
H356   H     0.03848   0.41535   0.58634   0.00000  Uiso   1.00
H357   H     0.14871   0.17010   0.45706   0.00000  Uiso   1.00
H358   H     0.31537   0.51962   0.54457   0.00000  Uiso   1.00
H359   H     0.94466   0.44156   0.65794   0.00000  Uiso   1.00
O360   O     0.18235   0.07240   0.49826   0.00000  Uiso   1.00
O361   O     0.40100   0.53095   0.61308   0.00000  Uiso   1.00
O362   O     0.91464   0.42854   0.76181   0.00000  Uiso   1.00
N363   N     0.19363   0.13260   0.57282   0.00000  Uiso   1.00
N364   N     0.34945   0.45937   0.65463   0.00000  Uiso   1.00
N365   N     0.00288   0.38640   0.76062   0.00000  Uiso   1.00
N366   N     0.16162   0.16826   0.49621   0.00000  Uiso   1.00
N367   N     0.31745   0.49503   0.57802   0.00000  Uiso   1.00
N368   N     0.97087   0.42207   0.68401   0.00000  Uiso   1.00
C369   C     0.81522   0.32296   0.16943   0.00000  Uiso   1.00
C370   C     0.82061   0.27921   0.12409   0.00000  Uiso   1.00
C371   C     0.80731   0.22256   0.12864   0.00000  Uiso   1.00
C372   C     0.81518   0.18946   0.08246   0.00000  Uiso   1.00
C373   C     0.82042   0.11807   0.01948   0.00000  Uiso   1.00
C374   C     0.77766   0.36927   0.14663   0.00000  Uiso   1.00
C375   C     0.72825   0.38834   0.17014   0.00000  Uiso   1.00
C376   C     0.69996   0.43105   0.14293   0.00000  Uiso   1.00
C377   C     0.63854   0.49950   0.11498   0.00000  Uiso   1.00
C378   C     0.87317   0.34915   0.17584   0.00000  Uiso   1.00
C379   C     0.90407   0.35132   0.22391   0.00000  Uiso   1.00
C380   C     0.95621   0.37710   0.22130   0.00000  Uiso   1.00
C381   C     0.04308   0.41431   0.23870   0.00000  Uiso   1.00
C382   C     0.85286   0.36490   0.07933   0.00000  Uiso   1.00
C383   C     0.84105   0.30199   0.07515   0.00000  Uiso   1.00
C384   C     0.84895   0.26897   0.02895   0.00000  Uiso   1.00
C385   C     0.83566   0.21228   0.03343   0.00000  Uiso   1.00
C386   C     0.79810   0.39205   0.09769   0.00000  Uiso   1.00
C387   C     0.76989   0.43474   0.07045   0.00000  Uiso   1.00
C388   C     0.72044   0.45387   0.09391   0.00000  Uiso   1.00
C389   C     0.89362   0.37193   0.12690   0.00000  Uiso   1.00
C390   C     0.94571   0.39772   0.12422   0.00000  Uiso   1.00
C391   C     0.97669   0.39993   0.17227   0.00000  Uiso   1.00
H392   H     0.79930   0.30522   0.20753   0.00000  Uiso   1.00
H393   H     0.79148   0.20495   0.16651   0.00000  Uiso   1.00
H394   H     0.71244   0.37070   0.20801   0.00000  Uiso   1.00
H395   H     0.88824   0.33368   0.26177   0.00000  Uiso   1.00
H396   H     0.79181   0.10382   0.09945   0.00000  Uiso   1.00
H397   H     0.62515   0.45334   0.18696   0.00000  Uiso   1.00
H398   H     0.99586   0.37528   0.30032   0.00000  Uiso   1.00
H399   H     0.86877   0.38264   0.04123   0.00000  Uiso   1.00
H400   H     0.86477   0.28661   0.99109   0.00000  Uiso   1.00
H401   H     0.78572   0.45236   0.03258   0.00000  Uiso   1.00
H402   H     0.96152   0.41535   0.08634   0.00000  Uiso   1.00
H403   H     0.85129   0.17010   0.95706   0.00000  Uiso   1.00
H404   H     0.68463   0.51962   0.04457   0.00000  Uiso   1.00
H405   H     0.05534   0.44156   0.15794   0.00000  Uiso   1.00
O406   O     0.81765   0.07240   0.99826   0.00000  Uiso   1.00
O407   O     0.59900   0.53095   0.11308   0.00000  Uiso   1.00
O408   O     0.08536   0.42854   0.26181   0.00000  Uiso   1.00
N409   N     0.80637   0.13260   0.07282   0.00000  Uiso   1.00
N410   N     0.65055   0.45937   0.15463   0.00000  Uiso   1.00
N411   N     0.99712   0.38640   0.26062   0.00000  Uiso   1.00
N412   N     0.83838   0.16826   0.99621   0.00000  Uiso   1.00
N413   N     0.68255   0.49503   0.07802   0.00000  Uiso   1.00
N414   N     0.02913   0.42207   0.18401   0.00000  Uiso   1.00
C415   C     0.31522   0.82296   0.66943   0.00000  Uiso   1.00
C416   C     0.32061   0.77921   0.62409   0.00000  Uiso   1.00
C417   C     0.30731   0.72256   0.62864   0.00000  Uiso   1.00
C418   C     0.31518   0.68946   0.58246   0.00000  Uiso   1.00
C419   C     0.32042   0.61807   0.51948   0.00000  Uiso   1.00
C420   C     0.27766   0.86927   0.64663   0.00000  Uiso   1.00
C421   C     0.22825   0.88834   0.67014   0.00000  Uiso   1.00
C422   C     0.19996   0.93105   0.64293   0.00000  Uiso   1.00
C423   C     0.13854   0.99950   0.61498   0.00000  Uiso   1.00
C424   C     0.37317   0.84915   0.67584   0.00000  Uiso   1.00
C425   C     0.40407   0.85132   0.72391   0.00000  Uiso   1.00
C426   C     0.45621   0.87710   0.72130   0.00000  Uiso   1.00
C427   C     0.54308   0.91431   0.73870   0.00000  Uiso   1.00
C428   C     0.35286   0.86490   0.57933   0.00000  Uiso   1.00
C429   C     0.34105   0.80199   0.57515   0.00000  Uiso   1.00
C430   C     0.34895   0.76897   0.52895   0.00000  Uiso   1.00
C431   C     0.33566   0.71228   0.53343   0.00000  Uiso   1.00
C432   C     0.29810   0.89205   0.59769   0.00000  Uiso   1.00
C433   C     0.26989   0.93474   0.57045   0.00000  Uiso   1.00
C434   C     0.22044   0.95387   0.59391   0.00000  Uiso   1.00
C435   C     0.39362   0.87193   0.62690   0.00000  Uiso   1.00
C436   C     0.44571   0.89772   0.62422   0.00000  Uiso   1.00
C437   C     0.47669   0.89993   0.67227   0.00000  Uiso   1.00
H438   H     0.29930   0.80522   0.70753   0.00000  Uiso   1.00
H439   H     0.29148   0.70495   0.66651   0.00000  Uiso   1.00
H440   H     0.21244   0.87070   0.70801   0.00000  Uiso   1.00
H441   H     0.38824   0.83368   0.76177   0.00000  Uiso   1.00
H442   H     0.29181   0.60382   0.59945   0.00000  Uiso   1.00
H443   H     0.12515   0.95334   0.68696   0.00000  Uiso   1.00
H444   H     0.49586   0.87528   0.80032   0.00000  Uiso   1.00
H445   H     0.36877   0.88264   0.54123   0.00000  Uiso   1.00
H446   H     0.36477   0.78661   0.49109   0.00000  Uiso   1.00
H447   H     0.28572   0.95236   0.53258   0.00000  Uiso   1.00
H448   H     0.46152   0.91535   0.58634   0.00000  Uiso   1.00
H449   H     0.35129   0.67010   0.45706   0.00000  Uiso   1.00
H450   H     0.18463   0.01962   0.54457   0.00000  Uiso   1.00
H451   H     0.55534   0.94156   0.65794   0.00000  Uiso   1.00
O452   O     0.31765   0.57240   0.49826   0.00000  Uiso   1.00
O453   O     0.09900   0.03095   0.61308   0.00000  Uiso   1.00
O454   O     0.58536   0.92854   0.76181   0.00000  Uiso   1.00
N455   N     0.30637   0.63260   0.57282   0.00000  Uiso   1.00
N456   N     0.15055   0.95937   0.65463   0.00000  Uiso   1.00
N457   N     0.49712   0.88640   0.76062   0.00000  Uiso   1.00
N458   N     0.33838   0.66826   0.49621   0.00000  Uiso   1.00
N459   N     0.18255   0.99503   0.57802   0.00000  Uiso   1.00
N460   N     0.52913   0.92207   0.68401   0.00000  Uiso   1.00
C461   C     0.68478   0.67704   0.66943   0.00000  Uiso   1.00
C462   C     0.67939   0.72079   0.62409   0.00000  Uiso   1.00
C463   C     0.69269   0.77744   0.62864   0.00000  Uiso   1.00
C464   C     0.68482   0.81054   0.58246   0.00000  Uiso   1.00
C465   C     0.67958   0.88193   0.51948   0.00000  Uiso   1.00
C466   C     0.72234   0.63073   0.64663   0.00000  Uiso   1.00
C467   C     0.77175   0.61166   0.67014   0.00000  Uiso   1.00
C468   C     0.80004   0.56895   0.64293   0.00000  Uiso   1.00
C469   C     0.86146   0.50050   0.61498   0.00000  Uiso   1.00
C470   C     0.62683   0.65085   0.67584   0.00000  Uiso   1.00
C471   C     0.59593   0.64868   0.72391   0.00000  Uiso   1.00
C472   C     0.54379   0.62290   0.72130   0.00000  Uiso   1.00
C473   C     0.45692   0.58569   0.73870   0.00000  Uiso   1.00
C474   C     0.64714   0.63510   0.57933   0.00000  Uiso   1.00
C475   C     0.65895   0.69801   0.57515   0.00000  Uiso   1.00
C476   C     0.65105   0.73103   0.52895   0.00000  Uiso   1.00
C477   C     0.66434   0.78772   0.53343   0.00000  Uiso   1.00
C478   C     0.70190   0.60795   0.59769   0.00000  Uiso   1.00
C479   C     0.73011   0.56526   0.57045   0.00000  Uiso   1.00
C480   C     0.77956   0.54613   0.59391   0.00000  Uiso   1.00
C481   C     0.60638   0.62807   0.62690   0.00000  Uiso   1.00
C482   C     0.55429   0.60228   0.62422   0.00000  Uiso   1.00
C483   C     0.52331   0.60007   0.67227   0.00000  Uiso   1.00
H484   H     0.70070   0.69478   0.70753   0.00000  Uiso   1.00
H485   H     0.70852   0.79505   0.66651   0.00000  Uiso   1.00
H486   H     0.78756   0.62930   0.70801   0.00000  Uiso   1.00
H487   H     0.61176   0.66632   0.76177   0.00000  Uiso   1.00
H488   H     0.70819   0.89618   0.59945   0.00000  Uiso   1.00
H489   H     0.87485   0.54666   0.68696   0.00000  Uiso   1.00
H490   H     0.50414   0.62472   0.80032   0.00000  Uiso   1.00
H491   H     0.63123   0.61736   0.54123   0.00000  Uiso   1.00
H492   H     0.63523   0.71339   0.49109   0.00000  Uiso   1.00
H493   H     0.71428   0.54764   0.53258   0.00000  Uiso   1.00
H494   H     0.53848   0.58465   0.58634   0.00000  Uiso   1.00
H495   H     0.64871   0.82990   0.45706   0.00000  Uiso   1.00
H496   H     0.81537   0.48038   0.54457   0.00000  Uiso   1.00
H497   H     0.44466   0.55844   0.65794   0.00000  Uiso   1.00
O498   O     0.68235   0.92760   0.49826   0.00000  Uiso   1.00
O499   O     0.90100   0.46905   0.61308   0.00000  Uiso   1.00
O500   O     0.41464   0.57146   0.76181   0.00000  Uiso   1.00
N501   N     0.69363   0.86740   0.57282   0.00000  Uiso   1.00
N502   N     0.84945   0.54063   0.65463   0.00000  Uiso   1.00
N503   N     0.50288   0.61360   0.76062   0.00000  Uiso   1.00
N504   N     0.66162   0.83174   0.49621   0.00000  Uiso   1.00
N505   N     0.81745   0.50497   0.57802   0.00000  Uiso   1.00
N506   N     0.47087   0.57793   0.68401   0.00000  Uiso   1.00
C507   C     0.18478   0.17704   0.16943   0.00000  Uiso   1.00
C508   C     0.17939   0.22079   0.12409   0.00000  Uiso   1.00
C509   C     0.19269   0.27744   0.12864   0.00000  Uiso   1.00
C510   C     0.18482   0.31054   0.08246   0.00000  Uiso   1.00
C511   C     0.17958   0.38193   0.01948   0.00000  Uiso   1.00
C512   C     0.22234   0.13073   0.14663   0.00000  Uiso   1.00
C513   C     0.27175   0.11166   0.17014   0.00000  Uiso   1.00
C514   C     0.30004   0.06895   0.14293   0.00000  Uiso   1.00
C515   C     0.36146   0.00050   0.11498   0.00000  Uiso   1.00
C516   C     0.12683   0.15085   0.17584   0.00000  Uiso   1.00
C517   C     0.09593   0.14868   0.22391   0.00000  Uiso   1.00
C518   C     0.04379   0.12290   0.22130   0.00000  Uiso   1.00
C519   C     0.95692   0.08569   0.23870   0.00000  Uiso   1.00
C520   C     0.14714   0.13510   0.07933   0.00000  Uiso   1.00
C521   C     0.15895   0.19801   0.07515   0.00000  Uiso   1.00
C522   C     0.15105   0.23103   0.02895   0.00000  Uiso   1.00
C523   C     0.16434   0.28772   0.03343   0.00000  Uiso   1.00
C524   C     0.20190   0.10795   0.09769   0.00000  Uiso   1.00
C525   C     0.23011   0.06526   0.07045   0.00000  Uiso   1.00
C526   C     0.27956   0.04613   0.09391   0.00000  Uiso   1.00
C527   C     0.10638   0.12807   0.12690   0.00000  Uiso   1.00
C528   C     0.05429   0.10228   0.12422   0.00000  Uiso   1.00
C529   C     0.02331   0.10007   0.17227   0.00000  Uiso   1.00
H530   H     0.20070   0.19478   0.20753   0.00000  Uiso   1.00
H531   H     0.20852   0.29505   0.16651   0.00000  Uiso   1.00
H532   H     0.28756   0.12930   0.20801   0.00000  Uiso   1.00
H533   H     0.11176   0.16632   0.26177   0.00000  Uiso   1.00
H534   H     0.20819   0.39618   0.09945   0.00000  Uiso   1.00
H535   H     0.37485   0.04666   0.18696   0.00000  Uiso   1.00
H536   H     0.00414   0.12472   0.30032   0.00000  Uiso   1.00
H537   H     0.13123   0.11736   0.04123   0.00000  Uiso   1.00
H538   H     0.13523   0.21339   0.99109   0.00000  Uiso   1.00
H539   H     0.21428   0.04764   0.03258   0.00000  Uiso   1.00
H540   H     0.03848   0.08465   0.08634   0.00000  Uiso   1.00
H541   H     0.14871   0.32990   0.95706   0.00000  Uiso   1.00
H542   H     0.31537   0.98038   0.04457   0.00000  Uiso   1.00
H543   H     0.94466   0.05844   0.15794   0.00000  Uiso   1.00
O544   O     0.18235   0.42760   0.99826   0.00000  Uiso   1.00
O545   O     0.40100   0.96905   0.11308   0.00000  Uiso   1.00
O546   O     0.91464   0.07146   0.26181   0.00000  Uiso   1.00
N547   N     0.19363   0.36740   0.07282   0.00000  Uiso   1.00
N548   N     0.34945   0.04063   0.15463   0.00000  Uiso   1.00
N549   N     0.00288   0.11360   0.26062   0.00000  Uiso   1.00
N550   N     0.16162   0.33174   0.99621   0.00000  Uiso   1.00
N551   N     0.31745   0.00497   0.07802   0.00000  Uiso   1.00
N552   N     0.97087   0.07793   0.18401   0.00000  Uiso   1.00
C553   C     0.18478   0.82296   0.33057   0.00000  Uiso   1.00
C554   C     0.17939   0.77921   0.37591   0.00000  Uiso   1.00
C555   C     0.19269   0.72256   0.37136   0.00000  Uiso   1.00
C556   C     0.18482   0.68946   0.41754   0.00000  Uiso   1.00
C557   C     0.17958   0.61807   0.48052   0.00000  Uiso   1.00
C558   C     0.22234   0.86927   0.35337   0.00000  Uiso   1.00
C559   C     0.27175   0.88834   0.32986   0.00000  Uiso   1.00
C560   C     0.30004   0.93105   0.35707   0.00000  Uiso   1.00
C561   C     0.36146   0.99950   0.38502   0.00000  Uiso   1.00
C562   C     0.12683   0.84915   0.32416   0.00000  Uiso   1.00
C563   C     0.09593   0.85132   0.27609   0.00000  Uiso   1.00
C564   C     0.04379   0.87710   0.27870   0.00000  Uiso   1.00
C565   C     0.95692   0.91431   0.26130   0.00000  Uiso   1.00
C566   C     0.14714   0.86490   0.42067   0.00000  Uiso   1.00
C567   C     0.15895   0.80199   0.42485   0.00000  Uiso   1.00
C568   C     0.15105   0.76897   0.47105   0.00000  Uiso   1.00
C569   C     0.16434   0.71228   0.46657   0.00000  Uiso   1.00
C570   C     0.20190   0.89205   0.40231   0.00000  Uiso   1.00
C571   C     0.23011   0.93474   0.42955   0.00000  Uiso   1.00
C572   C     0.27956   0.95387   0.40609   0.00000  Uiso   1.00
C573   C     0.10638   0.87193   0.37310   0.00000  Uiso   1.00
C574   C     0.05429   0.89772   0.37578   0.00000  Uiso   1.00
C575   C     0.02331   0.89993   0.32773   0.00000  Uiso   1.00
H576   H     0.20070   0.80522   0.29247   0.00000  Uiso   1.00
H577   H     0.20852   0.70495   0.33349   0.00000  Uiso   1.00
H578   H     0.28756   0.87070   0.29199   0.00000  Uiso   1.00
H579   H     0.11176   0.83368   0.23823   0.00000  Uiso   1.00
H580   H     0.20819   0.60382   0.40055   0.00000  Uiso   1.00
H581   H     0.37485   0.95334   0.31304   0.00000  Uiso   1.00
H582   H     0.00414   0.87528   0.19968   0.00000  Uiso   1.00
H583   H     0.13123   0.88264   0.45877   0.00000  Uiso   1.00
H584   H     0.13523   0.78661   0.50891   0.00000  Uiso   1.00
H585   H     0.21428   0.95236   0.46742   0.00000  Uiso   1.00
H586   H     0.03848   0.91535   0.41366   0.00000  Uiso   1.00
H587   H     0.14871   0.67010   0.54294   0.00000  Uiso   1.00
H588   H     0.31537   0.01962   0.45543   0.00000  Uiso   1.00
H589   H     0.94466   0.94156   0.34206   0.00000  Uiso   1.00
O590   O     0.18235   0.57240   0.50174   0.00000  Uiso   1.00
O591   O     0.40100   0.03095   0.38692   0.00000  Uiso   1.00
O592   O     0.91464   0.92854   0.23819   0.00000  Uiso   1.00
N593   N     0.19363   0.63260   0.42718   0.00000  Uiso   1.00
N594   N     0.34945   0.95937   0.34537   0.00000  Uiso   1.00
N595   N     0.00288   0.88640   0.23938   0.00000  Uiso   1.00
N596   N     0.16162   0.66826   0.50379   0.00000  Uiso   1.00
N597   N     0.31745   0.99503   0.42198   0.00000  Uiso   1.00
N598   N     0.97087   0.92207   0.31599   0.00000  Uiso   1.00
C599   C     0.68478   0.32296   0.83057   0.00000  Uiso   1.00
C600   C     0.67939   0.27921   0.87591   0.00000  Uiso   1.00
C601   C     0.69269   0.22256   0.87136   0.00000  Uiso   1.00
C602   C     0.68482   0.18946   0.91754   0.00000  Uiso   1.00
C603   C     0.67958   0.11807   0.98052   0.00000  Uiso   1.00
C604   C     0.72234   0.36927   0.85337   0.00000  Uiso   1.00
C605   C     0.77175   0.38834   0.82986   0.00000  Uiso   1.00
C606   C     0.80004   0.43105   0.85707   0.00000  Uiso   1.00
C607   C     0.86146   0.49950   0.88502   0.00000  Uiso   1.00
C608   C     0.62683   0.34915   0.82416   0.00000  Uiso   1.00
C609   C     0.59593   0.35132   0.77609   0.00000  Uiso   1.00
C610   C     0.54379   0.37710   0.77870   0.00000  Uiso   1.00
C611   C     0.45692   0.41431   0.76130   0.00000  Uiso   1.00
C612   C     0.64714   0.36490   0.92067   0.00000  Uiso   1.00
C613   C     0.65895   0.30199   0.92485   0.00000  Uiso   1.00
C614   C     0.65105   0.26897   0.97105   0.00000  Uiso   1.00
C615   C     0.66434   0.21228   0.96657   0.00000  Uiso   1.00
C616   C     0.70190   0.39205   0.90231   0.00000  Uiso   1.00
C617   C     0.73011   0.43474   0.92955   0.00000  Uiso   1.00
C618   C     0.77956   0.45387   0.90609   0.00000  Uiso   1.00
C619   C     0.60638   0.37193   0.87310   0.00000  Uiso   1.00
C620   C     0.55429   0.39772   0.87578   0.00000  Uiso   1.00
C621   C     0.52331   0.39993   0.82773   0.00000  Uiso   1.00
H622   H     0.70070   0.30522   0.79247   0.00000  Uiso   1.00
H623   H     0.70852   0.20495   0.83349   0.00000  Uiso   1.00
H624   H     0.78756   0.37070   0.79199   0.00000  Uiso   1.00
H625   H     0.61176   0.33368   0.73823   0.00000  Uiso   1.00
H626   H     0.70819   0.10382   0.90055   0.00000  Uiso   1.00
H627   H     0.87485   0.45334   0.81304   0.00000  Uiso   1.00
H628   H     0.50414   0.37528   0.69968   0.00000  Uiso   1.00
H629   H     0.63123   0.38264   0.95877   0.00000  Uiso   1.00
H630   H     0.63523   0.28661   0.00891   0.00000  Uiso   1.00
H631   H     0.71428   0.45236   0.96742   0.00000  Uiso   1.00
H632   H     0.53848   0.41535   0.91366   0.00000  Uiso   1.00
H633   H     0.64871   0.17010   0.04294   0.00000  Uiso   1.00
H634   H     0.81537   0.51962   0.95543   0.00000  Uiso   1.00
H635   H     0.44466   0.44156   0.84206   0.00000  Uiso   1.00
O636   O     0.68235   0.07240   0.00174   0.00000  Uiso   1.00
O637   O     0.90100   0.53095   0.88692   0.00000  Uiso   1.00
O638   O     0.41464   0.42854   0.73819   0.00000  Uiso   1.00
N639   N     0.69363   0.13260   0.92718   0.00000  Uiso   1.00
N640   N     0.84945   0.45937   0.84537   0.00000  Uiso   1.00
N641   N     0.50288   0.38640   0.73938   0.00000  Uiso   1.00
N642   N     0.66162   0.16826   0.00379   0.00000  Uiso   1.00
N643   N     0.81745   0.49503   0.92198   0.00000  Uiso   1.00
N644   N     0.47087   0.42207   0.81599   0.00000  Uiso   1.00
C645   C     0.31522   0.17704   0.83057   0.00000  Uiso   1.00
C646   C     0.32061   0.22079   0.87591   0.00000  Uiso   1.00
C647   C     0.30731   0.27744   0.87136   0.00000  Uiso   1.00
C648   C     0.31518   0.31054   0.91754   0.00000  Uiso   1.00
C649   C     0.32042   0.38193   0.98052   0.00000  Uiso   1.00
C650   C     0.27766   0.13073   0.85337   0.00000  Uiso   1.00
C651   C     0.22825   0.11166   0.82986   0.00000  Uiso   1.00
C652   C     0.19996   0.06895   0.85707   0.00000  Uiso   1.00
C653   C     0.13854   0.00050   0.88502   0.00000  Uiso   1.00
C654   C     0.37317   0.15085   0.82416   0.00000  Uiso   1.00
C655   C     0.40407   0.14868   0.77609   0.00000  Uiso   1.00
C656   C     0.45621   0.12290   0.77870   0.00000  Uiso   1.00
C657   C     0.54308   0.08569   0.76130   0.00000  Uiso   1.00
C658   C     0.35286   0.13510   0.92067   0.00000  Uiso   1.00
C659   C     0.34105   0.19801   0.92485   0.00000  Uiso   1.00
C660   C     0.34895   0.23103   0.97105   0.00000  Uiso   1.00
C661   C     0.33566   0.28772   0.96657   0.00000  Uiso   1.00
C662   C     0.29810   0.10795   0.90231   0.00000  Uiso   1.00
C663   C     0.26989   0.06526   0.92955   0.00000  Uiso   1.00
C664   C     0.22044   0.04613   0.90609   0.00000  Uiso   1.00
C665   C     0.39362   0.12807   0.87310   0.00000  Uiso   1.00
C666   C     0.44571   0.10228   0.87578   0.00000  Uiso   1.00
C667   C     0.47669   0.10007   0.82773   0.00000  Uiso   1.00
H668   H     0.29930   0.19478   0.79247   0.00000  Uiso   1.00
H669   H     0.29148   0.29505   0.83349   0.00000  Uiso   1.00
H670   H     0.21244   0.12930   0.79199   0.00000  Uiso   1.00
H671   H     0.38824   0.16632   0.73823   0.00000  Uiso   1.00
H672   H     0.29181   0.39618   0.90055   0.00000  Uiso   1.00
H673   H     0.12515   0.04666   0.81304   0.00000  Uiso   1.00
H674   H     0.49586   0.12472   0.69968   0.00000  Uiso   1.00
H675   H     0.36877   0.11736   0.95877   0.00000  Uiso   1.00
H676   H     0.36477   0.21339   0.00891   0.00000  Uiso   1.00
H677   H     0.28572   0.04764   0.96742   0.00000  Uiso   1.00
H678   H     0.46152   0.08465   0.91366   0.00000  Uiso   1.00
H679   H     0.35129   0.32990   0.04294   0.00000  Uiso   1.00
H680   H     0.18463   0.98038   0.95543   0.00000  Uiso   1.00
H681   H     0.55534   0.05844   0.84206   0.00000  Uiso   1.00
O682   O     0.31765   0.42760   0.00174   0.00000  Uiso   1.00
O683   O     0.09900   0.96905   0.88692   0.00000  Uiso   1.00
O684   O     0.58536   0.07146   0.73819   0.00000  Uiso   1.00
N685   N     0.30637   0.36740   0.92718   0.00000  Uiso   1.00
N686   N     0.15055   0.04063   0.84537   0.00000  Uiso   1.00
N687   N     0.49712   0.11360   0.73938   0.00000  Uiso   1.00
N688   N     0.33838   0.33174   0.00379   0.00000  Uiso   1.00
N689   N     0.18255   0.00497   0.92198   0.00000  Uiso   1.00
N690   N     0.52913   0.07793   0.81599   0.00000  Uiso   1.00
C691   C     0.81522   0.67704   0.33057   0.00000  Uiso   1.00
C692   C     0.82061   0.72079   0.37591   0.00000  Uiso   1.00
C693   C     0.80731   0.77744   0.37136   0.00000  Uiso   1.00
C694   C     0.81518   0.81054   0.41754   0.00000  Uiso   1.00
C695   C     0.82042   0.88193   0.48052   0.00000  Uiso   1.00
C696   C     0.77766   0.63073   0.35337   0.00000  Uiso   1.00
C697   C     0.72825   0.61166   0.32986   0.00000  Uiso   1.00
C698   C     0.69996   0.56895   0.35707   0.00000  Uiso   1.00
C699   C     0.63854   0.50050   0.38502   0.00000  Uiso   1.00
C700   C     0.87317   0.65085   0.32416   0.00000  Uiso   1.00
C701   C     0.90407   0.64868   0.27609   0.00000  Uiso   1.00
C702   C     0.95621   0.62290   0.27870   0.00000  Uiso   1.00
C703   C     0.04308   0.58569   0.26130   0.00000  Uiso   1.00
C704   C     0.85286   0.63510   0.42067   0.00000  Uiso   1.00
C705   C     0.84105   0.69801   0.42485   0.00000  Uiso   1.00
C706   C     0.84895   0.73103   0.47105   0.00000  Uiso   1.00
C707   C     0.83566   0.78772   0.46657   0.00000  Uiso   1.00
C708   C     0.79810   0.60795   0.40231   0.00000  Uiso   1.00
C709   C     0.76989   0.56526   0.42955   0.00000  Uiso   1.00
C710   C     0.72044   0.54613   0.40609   0.00000  Uiso   1.00
C711   C     0.89362   0.62807   0.37310   0.00000  Uiso   1.00
C712   C     0.94571   0.60228   0.37578   0.00000  Uiso   1.00
C713   C     0.97669   0.60007   0.32773   0.00000  Uiso   1.00
H714   H     0.79930   0.69478   0.29247   0.00000  Uiso   1.00
H715   H     0.79148   0.79505   0.33349   0.00000  Uiso   1.00
H716   H     0.71244   0.62930   0.29199   0.00000  Uiso   1.00
H717   H     0.88824   0.66632   0.23823   0.00000  Uiso   1.00
H718   H     0.79181   0.89618   0.40055   0.00000  Uiso   1.00
H719   H     0.62515   0.54666   0.31304   0.00000  Uiso   1.00
H720   H     0.99586   0.62472   0.19968   0.00000  Uiso   1.00
H721   H     0.86877   0.61736   0.45877   0.00000  Uiso   1.00
H722   H     0.86477   0.71339   0.50891   0.00000  Uiso   1.00
H723   H     0.78572   0.54764   0.46742   0.00000  Uiso   1.00
H724   H     0.96152   0.58465   0.41366   0.00000  Uiso   1.00
H725   H     0.85129   0.82990   0.54294   0.00000  Uiso   1.00
H726   H     0.68463   0.48038   0.45543   0.00000  Uiso   1.00
H727   H     0.05534   0.55844   0.34206   0.00000  Uiso   1.00
O728   O     0.81765   0.92760   0.50174   0.00000  Uiso   1.00
O729   O     0.59900   0.46905   0.38692   0.00000  Uiso   1.00
O730   O     0.08536   0.57146   0.23819   0.00000  Uiso   1.00
N731   N     0.80637   0.86740   0.42718   0.00000  Uiso   1.00
N732   N     0.65055   0.54063   0.34537   0.00000  Uiso   1.00
N733   N     0.99712   0.61360   0.23938   0.00000  Uiso   1.00
N734   N     0.83838   0.83174   0.50379   0.00000  Uiso   1.00
N735   N     0.68255   0.50497   0.42198   0.00000  Uiso   1.00
N736   N     0.02913   0.57793   0.31599   0.00000  Uiso   1.00
