data_job_00297
_audit_creation_date              2018-12-19
_audit_creation_method            'Materials Studio'
_symmetry_space_group_name_H-M    'P1'
_symmetry_Int_Tables_number       1
_symmetry_cell_setting            triclinic
loop_
_symmetry_equiv_pos_as_xyz
  x,y,z
_cell_length_a                    25.6529
_cell_length_b                    25.6529
_cell_length_c                    15.5152
_cell_angle_alpha                 90.0000
_cell_angle_beta                  90.0000
_cell_angle_gamma                 90.0000
loop_
_atom_site_label
_atom_site_type_symbol
_atom_site_fract_x
_atom_site_fract_y
_atom_site_fract_z
_atom_site_U_iso_or_equiv
_atom_site_adp_type
_atom_site_occupancy
C1     C     0.93450   0.77222   0.34193   0.00000  Uiso   1.00
C2     C     0.95050   0.81654   0.28201   0.00000  Uiso   1.00
C3     C     0.00067   0.82632   0.25274   0.00000  Uiso   1.00
C4     C     0.00726   0.86880   0.19835   0.00000  Uiso   1.00
C5     C     0.03852   0.93284   0.10903   0.00000  Uiso   1.00
C6     C     0.90777   0.79786   0.41880   0.00000  Uiso   1.00
C7     C     0.92202   0.79193   0.50454   0.00000  Uiso   1.00
C8     C     0.89263   0.81868   0.56531   0.00000  Uiso   1.00
C9     C     0.85753   0.85369   0.68837   0.00000  Uiso   1.00
C10    C     0.89210   0.74203   0.29446   0.00000  Uiso   1.00
C11    C     0.89316   0.68914   0.27567   0.00000  Uiso   1.00
C12    C     0.85057   0.66887   0.23176   0.00000  Uiso   1.00
C13    C     0.79113   0.61719   0.16176   0.00000  Uiso   1.00
C14    C     0.85698   0.83025   0.29740   0.00000  Uiso   1.00
C15    C     0.90839   0.84806   0.25783   0.00000  Uiso   1.00
C16    C     0.91491   0.89053   0.20347   0.00000  Uiso   1.00
C17    C     0.96508   0.90037   0.17412   0.00000  Uiso   1.00
C18    C     0.86567   0.82938   0.39462   0.00000  Uiso   1.00
C19    C     0.83625   0.85614   0.45528   0.00000  Uiso   1.00
C20    C     0.85045   0.85025   0.54108   0.00000  Uiso   1.00
C21    C     0.84999   0.77355   0.27027   0.00000  Uiso   1.00
C22    C     0.80739   0.75335   0.22640   0.00000  Uiso   1.00
C23    C     0.80839   0.70045   0.20754   0.00000  Uiso   1.00
H24    H     0.96727   0.74768   0.36076   0.00000  Uiso   1.00
H25    H     0.03325   0.80192   0.27147   0.00000  Uiso   1.00
H26    H     0.95460   0.76753   0.52324   0.00000  Uiso   1.00
H27    H     0.92574   0.66476   0.29439   0.00000  Uiso   1.00
H28    H     0.08783   0.87598   0.16184   0.00000  Uiso   1.00
H29    H     0.92198   0.80345   0.69270   0.00000  Uiso   1.00
H30    H     0.86113   0.58674   0.21014   0.00000  Uiso   1.00
H31    H     0.82420   0.85479   0.27858   0.00000  Uiso   1.00
H32    H     0.88232   0.91492   0.18477   0.00000  Uiso   1.00
H33    H     0.80367   0.88052   0.43654   0.00000  Uiso   1.00
H34    H     0.77482   0.77776   0.20770   0.00000  Uiso   1.00
H35    H     0.96533   0.96769   0.09147   0.00000  Uiso   1.00
H36    H     0.79948   0.89515   0.62234   0.00000  Uiso   1.00
H37    H     0.73864   0.67845   0.13978   0.00000  Uiso   1.00
O38    O     0.06740   0.95946   0.06646   0.00000  Uiso   1.00
O39    O     0.84980   0.86429   0.76292   0.00000  Uiso   1.00
O40    O     0.76998   0.57998   0.12982   0.00000  Uiso   1.00
N41    N     0.05102   0.88930   0.15814   0.00000  Uiso   1.00
N42    N     0.89596   0.82150   0.65446   0.00000  Uiso   1.00
N43    N     0.83908   0.61889   0.20333   0.00000  Uiso   1.00
N44    N     0.98510   0.93865   0.12027   0.00000  Uiso   1.00
N45    N     0.83005   0.87085   0.61660   0.00000  Uiso   1.00
N46    N     0.77316   0.66824   0.16547   0.00000  Uiso   1.00
C47    C     0.43450   0.27222   0.84193   0.00000  Uiso   1.00
C48    C     0.45050   0.31654   0.78201   0.00000  Uiso   1.00
C49    C     0.50067   0.32632   0.75274   0.00000  Uiso   1.00
C50    C     0.50726   0.36880   0.69835   0.00000  Uiso   1.00
C51    C     0.53852   0.43284   0.60903   0.00000  Uiso   1.00
C52    C     0.40777   0.29786   0.91880   0.00000  Uiso   1.00
C53    C     0.42202   0.29193   0.00454   0.00000  Uiso   1.00
C54    C     0.39263   0.31868   0.06531   0.00000  Uiso   1.00
C55    C     0.35753   0.35369   0.18837   0.00000  Uiso   1.00
C56    C     0.39210   0.24203   0.79446   0.00000  Uiso   1.00
C57    C     0.39316   0.18914   0.77567   0.00000  Uiso   1.00
C58    C     0.35057   0.16887   0.73176   0.00000  Uiso   1.00
C59    C     0.29113   0.11719   0.66176   0.00000  Uiso   1.00
C60    C     0.35698   0.33025   0.79740   0.00000  Uiso   1.00
C61    C     0.40839   0.34806   0.75783   0.00000  Uiso   1.00
C62    C     0.41491   0.39053   0.70347   0.00000  Uiso   1.00
C63    C     0.46508   0.40037   0.67412   0.00000  Uiso   1.00
C64    C     0.36567   0.32938   0.89462   0.00000  Uiso   1.00
C65    C     0.33625   0.35614   0.95528   0.00000  Uiso   1.00
C66    C     0.35045   0.35025   0.04108   0.00000  Uiso   1.00
C67    C     0.34999   0.27355   0.77027   0.00000  Uiso   1.00
C68    C     0.30739   0.25335   0.72640   0.00000  Uiso   1.00
C69    C     0.30839   0.20045   0.70754   0.00000  Uiso   1.00
H70    H     0.46727   0.24768   0.86076   0.00000  Uiso   1.00
H71    H     0.53325   0.30192   0.77147   0.00000  Uiso   1.00
H72    H     0.45460   0.26753   0.02324   0.00000  Uiso   1.00
H73    H     0.42574   0.16476   0.79439   0.00000  Uiso   1.00
H74    H     0.58783   0.37598   0.66184   0.00000  Uiso   1.00
H75    H     0.42198   0.30345   0.19270   0.00000  Uiso   1.00
H76    H     0.36113   0.08674   0.71014   0.00000  Uiso   1.00
H77    H     0.32420   0.35479   0.77858   0.00000  Uiso   1.00
H78    H     0.38232   0.41492   0.68477   0.00000  Uiso   1.00
H79    H     0.30367   0.38052   0.93654   0.00000  Uiso   1.00
H80    H     0.27482   0.27776   0.70770   0.00000  Uiso   1.00
H81    H     0.46533   0.46769   0.59147   0.00000  Uiso   1.00
H82    H     0.29948   0.39515   0.12234   0.00000  Uiso   1.00
H83    H     0.23864   0.17845   0.63978   0.00000  Uiso   1.00
O84    O     0.56740   0.45946   0.56646   0.00000  Uiso   1.00
O85    O     0.34980   0.36429   0.26292   0.00000  Uiso   1.00
O86    O     0.26998   0.07998   0.62982   0.00000  Uiso   1.00
N87    N     0.55102   0.38930   0.65814   0.00000  Uiso   1.00
N88    N     0.39596   0.32150   0.15446   0.00000  Uiso   1.00
N89    N     0.33908   0.11889   0.70333   0.00000  Uiso   1.00
N90    N     0.48510   0.43865   0.62027   0.00000  Uiso   1.00
N91    N     0.33005   0.37085   0.11660   0.00000  Uiso   1.00
N92    N     0.27316   0.16824   0.66547   0.00000  Uiso   1.00
C93    C     0.56550   0.72778   0.84193   0.00000  Uiso   1.00
C94    C     0.54950   0.68346   0.78201   0.00000  Uiso   1.00
C95    C     0.49933   0.67368   0.75274   0.00000  Uiso   1.00
C96    C     0.49274   0.63120   0.69835   0.00000  Uiso   1.00
C97    C     0.46148   0.56716   0.60903   0.00000  Uiso   1.00
C98    C     0.59223   0.70214   0.91880   0.00000  Uiso   1.00
C99    C     0.57798   0.70807   0.00454   0.00000  Uiso   1.00
C100   C     0.60737   0.68132   0.06531   0.00000  Uiso   1.00
C101   C     0.64247   0.64631   0.18837   0.00000  Uiso   1.00
C102   C     0.60790   0.75797   0.79446   0.00000  Uiso   1.00
C103   C     0.60684   0.81086   0.77567   0.00000  Uiso   1.00
C104   C     0.64943   0.83113   0.73176   0.00000  Uiso   1.00
C105   C     0.70887   0.88281   0.66176   0.00000  Uiso   1.00
C106   C     0.64302   0.66975   0.79740   0.00000  Uiso   1.00
C107   C     0.59161   0.65194   0.75783   0.00000  Uiso   1.00
C108   C     0.58509   0.60947   0.70347   0.00000  Uiso   1.00
C109   C     0.53492   0.59963   0.67412   0.00000  Uiso   1.00
C110   C     0.63433   0.67062   0.89462   0.00000  Uiso   1.00
C111   C     0.66375   0.64386   0.95528   0.00000  Uiso   1.00
C112   C     0.64955   0.64975   0.04108   0.00000  Uiso   1.00
C113   C     0.65001   0.72645   0.77027   0.00000  Uiso   1.00
C114   C     0.69261   0.74665   0.72640   0.00000  Uiso   1.00
C115   C     0.69161   0.79955   0.70754   0.00000  Uiso   1.00
H116   H     0.53273   0.75232   0.86076   0.00000  Uiso   1.00
H117   H     0.46675   0.69808   0.77147   0.00000  Uiso   1.00
H118   H     0.54540   0.73247   0.02324   0.00000  Uiso   1.00
H119   H     0.57426   0.83524   0.79439   0.00000  Uiso   1.00
H120   H     0.41217   0.62402   0.66184   0.00000  Uiso   1.00
H121   H     0.57802   0.69655   0.19270   0.00000  Uiso   1.00
H122   H     0.63887   0.91326   0.71014   0.00000  Uiso   1.00
H123   H     0.67580   0.64521   0.77858   0.00000  Uiso   1.00
H124   H     0.61768   0.58508   0.68477   0.00000  Uiso   1.00
H125   H     0.69633   0.61948   0.93654   0.00000  Uiso   1.00
H126   H     0.72518   0.72224   0.70770   0.00000  Uiso   1.00
H127   H     0.53467   0.53231   0.59147   0.00000  Uiso   1.00
H128   H     0.70052   0.60485   0.12234   0.00000  Uiso   1.00
H129   H     0.76136   0.82155   0.63978   0.00000  Uiso   1.00
O130   O     0.43260   0.54054   0.56646   0.00000  Uiso   1.00
O131   O     0.65020   0.63571   0.26292   0.00000  Uiso   1.00
O132   O     0.73002   0.92002   0.62982   0.00000  Uiso   1.00
N133   N     0.44898   0.61070   0.65814   0.00000  Uiso   1.00
N134   N     0.60404   0.67850   0.15446   0.00000  Uiso   1.00
N135   N     0.66092   0.88111   0.70333   0.00000  Uiso   1.00
N136   N     0.51490   0.56135   0.62027   0.00000  Uiso   1.00
N137   N     0.66995   0.62915   0.11660   0.00000  Uiso   1.00
N138   N     0.72684   0.83176   0.66547   0.00000  Uiso   1.00
C139   C     0.06550   0.22778   0.34193   0.00000  Uiso   1.00
C140   C     0.04950   0.18346   0.28201   0.00000  Uiso   1.00
C141   C     0.99933   0.17368   0.25274   0.00000  Uiso   1.00
C142   C     0.99274   0.13120   0.19835   0.00000  Uiso   1.00
C143   C     0.96148   0.06716   0.10903   0.00000  Uiso   1.00
C144   C     0.09223   0.20214   0.41880   0.00000  Uiso   1.00
C145   C     0.07798   0.20807   0.50454   0.00000  Uiso   1.00
C146   C     0.10737   0.18132   0.56531   0.00000  Uiso   1.00
C147   C     0.14247   0.14631   0.68837   0.00000  Uiso   1.00
C148   C     0.10790   0.25797   0.29446   0.00000  Uiso   1.00
C149   C     0.10684   0.31086   0.27567   0.00000  Uiso   1.00
C150   C     0.14943   0.33113   0.23176   0.00000  Uiso   1.00
C151   C     0.20887   0.38281   0.16176   0.00000  Uiso   1.00
C152   C     0.14302   0.16975   0.29740   0.00000  Uiso   1.00
C153   C     0.09161   0.15194   0.25783   0.00000  Uiso   1.00
C154   C     0.08509   0.10947   0.20347   0.00000  Uiso   1.00
C155   C     0.03492   0.09963   0.17412   0.00000  Uiso   1.00
C156   C     0.13433   0.17062   0.39462   0.00000  Uiso   1.00
C157   C     0.16375   0.14386   0.45528   0.00000  Uiso   1.00
C158   C     0.14955   0.14975   0.54108   0.00000  Uiso   1.00
C159   C     0.15001   0.22645   0.27027   0.00000  Uiso   1.00
C160   C     0.19261   0.24665   0.22640   0.00000  Uiso   1.00
C161   C     0.19161   0.29955   0.20754   0.00000  Uiso   1.00
H162   H     0.03273   0.25232   0.36076   0.00000  Uiso   1.00
H163   H     0.96675   0.19808   0.27147   0.00000  Uiso   1.00
H164   H     0.04540   0.23247   0.52324   0.00000  Uiso   1.00
H165   H     0.07426   0.33524   0.29439   0.00000  Uiso   1.00
H166   H     0.91217   0.12402   0.16184   0.00000  Uiso   1.00
H167   H     0.07802   0.19655   0.69270   0.00000  Uiso   1.00
H168   H     0.13887   0.41326   0.21014   0.00000  Uiso   1.00
H169   H     0.17580   0.14521   0.27858   0.00000  Uiso   1.00
H170   H     0.11768   0.08508   0.18477   0.00000  Uiso   1.00
H171   H     0.19633   0.11948   0.43654   0.00000  Uiso   1.00
H172   H     0.22518   0.22224   0.20770   0.00000  Uiso   1.00
H173   H     0.03467   0.03231   0.09147   0.00000  Uiso   1.00
H174   H     0.20052   0.10485   0.62234   0.00000  Uiso   1.00
H175   H     0.26136   0.32155   0.13978   0.00000  Uiso   1.00
O176   O     0.93260   0.04054   0.06646   0.00000  Uiso   1.00
O177   O     0.15020   0.13571   0.76292   0.00000  Uiso   1.00
O178   O     0.23002   0.42002   0.12982   0.00000  Uiso   1.00
N179   N     0.94898   0.11070   0.15814   0.00000  Uiso   1.00
N180   N     0.10404   0.17850   0.65446   0.00000  Uiso   1.00
N181   N     0.16092   0.38111   0.20333   0.00000  Uiso   1.00
N182   N     0.01490   0.06135   0.12027   0.00000  Uiso   1.00
N183   N     0.16995   0.12915   0.61660   0.00000  Uiso   1.00
N184   N     0.22684   0.33176   0.16547   0.00000  Uiso   1.00
C185   C     0.22778   0.43450   0.59193   0.00000  Uiso   1.00
C186   C     0.18346   0.45050   0.53201   0.00000  Uiso   1.00
C187   C     0.17368   0.50067   0.50274   0.00000  Uiso   1.00
C188   C     0.13120   0.50726   0.44835   0.00000  Uiso   1.00
C189   C     0.06716   0.53852   0.35903   0.00000  Uiso   1.00
C190   C     0.20214   0.40777   0.66880   0.00000  Uiso   1.00
C191   C     0.20807   0.42202   0.75454   0.00000  Uiso   1.00
C192   C     0.18132   0.39263   0.81531   0.00000  Uiso   1.00
C193   C     0.14631   0.35753   0.93837   0.00000  Uiso   1.00
C194   C     0.25797   0.39210   0.54446   0.00000  Uiso   1.00
C195   C     0.31086   0.39316   0.52567   0.00000  Uiso   1.00
C196   C     0.33113   0.35057   0.48176   0.00000  Uiso   1.00
C197   C     0.38281   0.29113   0.41176   0.00000  Uiso   1.00
C198   C     0.16975   0.35698   0.54740   0.00000  Uiso   1.00
C199   C     0.15194   0.40839   0.50783   0.00000  Uiso   1.00
C200   C     0.10947   0.41491   0.45347   0.00000  Uiso   1.00
C201   C     0.09963   0.46508   0.42412   0.00000  Uiso   1.00
C202   C     0.17062   0.36567   0.64462   0.00000  Uiso   1.00
C203   C     0.14386   0.33625   0.70528   0.00000  Uiso   1.00
C204   C     0.14975   0.35045   0.79108   0.00000  Uiso   1.00
C205   C     0.22645   0.34999   0.52027   0.00000  Uiso   1.00
C206   C     0.24665   0.30739   0.47640   0.00000  Uiso   1.00
C207   C     0.29955   0.30839   0.45754   0.00000  Uiso   1.00
H208   H     0.25232   0.46727   0.61076   0.00000  Uiso   1.00
H209   H     0.19808   0.53325   0.52147   0.00000  Uiso   1.00
H210   H     0.23247   0.45460   0.77324   0.00000  Uiso   1.00
H211   H     0.33524   0.42574   0.54439   0.00000  Uiso   1.00
H212   H     0.12402   0.58783   0.41184   0.00000  Uiso   1.00
H213   H     0.19655   0.42198   0.94270   0.00000  Uiso   1.00
H214   H     0.41326   0.36113   0.46014   0.00000  Uiso   1.00
H215   H     0.14521   0.32420   0.52858   0.00000  Uiso   1.00
H216   H     0.08508   0.38232   0.43477   0.00000  Uiso   1.00
H217   H     0.11948   0.30367   0.68654   0.00000  Uiso   1.00
H218   H     0.22224   0.27482   0.45770   0.00000  Uiso   1.00
H219   H     0.03231   0.46533   0.34147   0.00000  Uiso   1.00
H220   H     0.10485   0.29948   0.87234   0.00000  Uiso   1.00
H221   H     0.32155   0.23864   0.38978   0.00000  Uiso   1.00
O222   O     0.04054   0.56740   0.31646   0.00000  Uiso   1.00
O223   O     0.13571   0.34980   0.01292   0.00000  Uiso   1.00
O224   O     0.42002   0.26998   0.37982   0.00000  Uiso   1.00
N225   N     0.11070   0.55102   0.40814   0.00000  Uiso   1.00
N226   N     0.17850   0.39596   0.90446   0.00000  Uiso   1.00
N227   N     0.38111   0.33908   0.45333   0.00000  Uiso   1.00
N228   N     0.06135   0.48510   0.37027   0.00000  Uiso   1.00
N229   N     0.12915   0.33005   0.86660   0.00000  Uiso   1.00
N230   N     0.33176   0.27316   0.41547   0.00000  Uiso   1.00
C231   C     0.72778   0.93450   0.09193   0.00000  Uiso   1.00
C232   C     0.68346   0.95050   0.03201   0.00000  Uiso   1.00
C233   C     0.67368   0.00067   0.00274   0.00000  Uiso   1.00
C234   C     0.63120   0.00726   0.94835   0.00000  Uiso   1.00
C235   C     0.56716   0.03852   0.85903   0.00000  Uiso   1.00
C236   C     0.70214   0.90777   0.16880   0.00000  Uiso   1.00
C237   C     0.70807   0.92202   0.25454   0.00000  Uiso   1.00
C238   C     0.68132   0.89263   0.31531   0.00000  Uiso   1.00
C239   C     0.64631   0.85753   0.43837   0.00000  Uiso   1.00
C240   C     0.75797   0.89210   0.04446   0.00000  Uiso   1.00
C241   C     0.81086   0.89316   0.02567   0.00000  Uiso   1.00
C242   C     0.83113   0.85057   0.98176   0.00000  Uiso   1.00
C243   C     0.88281   0.79113   0.91176   0.00000  Uiso   1.00
C244   C     0.66975   0.85698   0.04740   0.00000  Uiso   1.00
C245   C     0.65194   0.90839   0.00783   0.00000  Uiso   1.00
C246   C     0.60947   0.91491   0.95347   0.00000  Uiso   1.00
C247   C     0.59963   0.96508   0.92412   0.00000  Uiso   1.00
C248   C     0.67062   0.86567   0.14462   0.00000  Uiso   1.00
C249   C     0.64386   0.83625   0.20528   0.00000  Uiso   1.00
C250   C     0.64975   0.85045   0.29108   0.00000  Uiso   1.00
C251   C     0.72645   0.84999   0.02027   0.00000  Uiso   1.00
C252   C     0.74665   0.80739   0.97640   0.00000  Uiso   1.00
C253   C     0.79955   0.80839   0.95754   0.00000  Uiso   1.00
H254   H     0.75232   0.96727   0.11076   0.00000  Uiso   1.00
H255   H     0.69808   0.03325   0.02147   0.00000  Uiso   1.00
H256   H     0.73247   0.95460   0.27324   0.00000  Uiso   1.00
H257   H     0.83524   0.92574   0.04439   0.00000  Uiso   1.00
H258   H     0.62402   0.08783   0.91184   0.00000  Uiso   1.00
H259   H     0.69655   0.92198   0.44270   0.00000  Uiso   1.00
H260   H     0.91326   0.86113   0.96014   0.00000  Uiso   1.00
H261   H     0.64521   0.82420   0.02858   0.00000  Uiso   1.00
H262   H     0.58508   0.88232   0.93477   0.00000  Uiso   1.00
H263   H     0.61948   0.80367   0.18654   0.00000  Uiso   1.00
H264   H     0.72224   0.77482   0.95770   0.00000  Uiso   1.00
H265   H     0.53231   0.96533   0.84147   0.00000  Uiso   1.00
H266   H     0.60485   0.79948   0.37234   0.00000  Uiso   1.00
H267   H     0.82155   0.73864   0.88978   0.00000  Uiso   1.00
O268   O     0.54054   0.06740   0.81646   0.00000  Uiso   1.00
O269   O     0.63571   0.84980   0.51292   0.00000  Uiso   1.00
O270   O     0.92002   0.76998   0.87982   0.00000  Uiso   1.00
N271   N     0.61070   0.05102   0.90814   0.00000  Uiso   1.00
N272   N     0.67850   0.89596   0.40446   0.00000  Uiso   1.00
N273   N     0.88111   0.83908   0.95333   0.00000  Uiso   1.00
N274   N     0.56135   0.98510   0.87027   0.00000  Uiso   1.00
N275   N     0.62915   0.83005   0.36660   0.00000  Uiso   1.00
N276   N     0.83176   0.77316   0.91547   0.00000  Uiso   1.00
C277   C     0.27222   0.06550   0.09193   0.00000  Uiso   1.00
C278   C     0.31654   0.04950   0.03201   0.00000  Uiso   1.00
C279   C     0.32632   0.99933   0.00274   0.00000  Uiso   1.00
C280   C     0.36880   0.99274   0.94835   0.00000  Uiso   1.00
C281   C     0.43284   0.96148   0.85903   0.00000  Uiso   1.00
C282   C     0.29786   0.09223   0.16880   0.00000  Uiso   1.00
C283   C     0.29193   0.07798   0.25454   0.00000  Uiso   1.00
C284   C     0.31868   0.10737   0.31531   0.00000  Uiso   1.00
C285   C     0.35369   0.14247   0.43837   0.00000  Uiso   1.00
C286   C     0.24203   0.10790   0.04446   0.00000  Uiso   1.00
C287   C     0.18914   0.10684   0.02567   0.00000  Uiso   1.00
C288   C     0.16887   0.14943   0.98176   0.00000  Uiso   1.00
C289   C     0.11719   0.20887   0.91176   0.00000  Uiso   1.00
C290   C     0.33025   0.14302   0.04740   0.00000  Uiso   1.00
C291   C     0.34806   0.09161   0.00783   0.00000  Uiso   1.00
C292   C     0.39053   0.08509   0.95347   0.00000  Uiso   1.00
C293   C     0.40037   0.03492   0.92412   0.00000  Uiso   1.00
C294   C     0.32938   0.13433   0.14462   0.00000  Uiso   1.00
C295   C     0.35614   0.16375   0.20528   0.00000  Uiso   1.00
C296   C     0.35025   0.14955   0.29108   0.00000  Uiso   1.00
C297   C     0.27355   0.15001   0.02027   0.00000  Uiso   1.00
C298   C     0.25335   0.19261   0.97640   0.00000  Uiso   1.00
C299   C     0.20045   0.19161   0.95754   0.00000  Uiso   1.00
H300   H     0.24768   0.03273   0.11076   0.00000  Uiso   1.00
H301   H     0.30192   0.96675   0.02147   0.00000  Uiso   1.00
H302   H     0.26753   0.04540   0.27324   0.00000  Uiso   1.00
H303   H     0.16476   0.07426   0.04439   0.00000  Uiso   1.00
H304   H     0.37598   0.91217   0.91184   0.00000  Uiso   1.00
H305   H     0.30345   0.07802   0.44270   0.00000  Uiso   1.00
H306   H     0.08674   0.13887   0.96014   0.00000  Uiso   1.00
H307   H     0.35479   0.17580   0.02858   0.00000  Uiso   1.00
H308   H     0.41492   0.11768   0.93477   0.00000  Uiso   1.00
H309   H     0.38052   0.19633   0.18654   0.00000  Uiso   1.00
H310   H     0.27776   0.22518   0.95770   0.00000  Uiso   1.00
H311   H     0.46769   0.03467   0.84147   0.00000  Uiso   1.00
H312   H     0.39515   0.20052   0.37234   0.00000  Uiso   1.00
H313   H     0.17845   0.26136   0.88978   0.00000  Uiso   1.00
O314   O     0.45946   0.93260   0.81646   0.00000  Uiso   1.00
O315   O     0.36429   0.15020   0.51292   0.00000  Uiso   1.00
O316   O     0.07998   0.23002   0.87982   0.00000  Uiso   1.00
N317   N     0.38930   0.94898   0.90814   0.00000  Uiso   1.00
N318   N     0.32150   0.10404   0.40446   0.00000  Uiso   1.00
N319   N     0.11889   0.16092   0.95333   0.00000  Uiso   1.00
N320   N     0.43865   0.01490   0.87027   0.00000  Uiso   1.00
N321   N     0.37085   0.16995   0.36660   0.00000  Uiso   1.00
N322   N     0.16824   0.22684   0.91547   0.00000  Uiso   1.00
C323   C     0.77222   0.56550   0.59193   0.00000  Uiso   1.00
C324   C     0.81654   0.54950   0.53201   0.00000  Uiso   1.00
C325   C     0.82632   0.49933   0.50274   0.00000  Uiso   1.00
C326   C     0.86880   0.49274   0.44835   0.00000  Uiso   1.00
C327   C     0.93284   0.46148   0.35903   0.00000  Uiso   1.00
C328   C     0.79786   0.59223   0.66880   0.00000  Uiso   1.00
C329   C     0.79193   0.57798   0.75454   0.00000  Uiso   1.00
C330   C     0.81868   0.60737   0.81531   0.00000  Uiso   1.00
C331   C     0.85369   0.64247   0.93837   0.00000  Uiso   1.00
C332   C     0.74203   0.60790   0.54446   0.00000  Uiso   1.00
C333   C     0.68914   0.60684   0.52567   0.00000  Uiso   1.00
C334   C     0.66887   0.64943   0.48176   0.00000  Uiso   1.00
C335   C     0.61719   0.70887   0.41176   0.00000  Uiso   1.00
C336   C     0.83025   0.64302   0.54740   0.00000  Uiso   1.00
C337   C     0.84806   0.59161   0.50783   0.00000  Uiso   1.00
C338   C     0.89053   0.58509   0.45347   0.00000  Uiso   1.00
C339   C     0.90037   0.53492   0.42412   0.00000  Uiso   1.00
C340   C     0.82938   0.63433   0.64462   0.00000  Uiso   1.00
C341   C     0.85614   0.66375   0.70528   0.00000  Uiso   1.00
C342   C     0.85025   0.64955   0.79108   0.00000  Uiso   1.00
C343   C     0.77355   0.65001   0.52027   0.00000  Uiso   1.00
C344   C     0.75335   0.69261   0.47640   0.00000  Uiso   1.00
C345   C     0.70045   0.69161   0.45754   0.00000  Uiso   1.00
H346   H     0.74768   0.53273   0.61076   0.00000  Uiso   1.00
H347   H     0.80192   0.46675   0.52147   0.00000  Uiso   1.00
H348   H     0.76753   0.54540   0.77324   0.00000  Uiso   1.00
H349   H     0.66476   0.57426   0.54439   0.00000  Uiso   1.00
H350   H     0.87598   0.41217   0.41184   0.00000  Uiso   1.00
H351   H     0.80345   0.57802   0.94270   0.00000  Uiso   1.00
H352   H     0.58674   0.63887   0.46014   0.00000  Uiso   1.00
H353   H     0.85479   0.67580   0.52858   0.00000  Uiso   1.00
H354   H     0.91492   0.61768   0.43477   0.00000  Uiso   1.00
H355   H     0.88052   0.69633   0.68654   0.00000  Uiso   1.00
H356   H     0.77776   0.72518   0.45770   0.00000  Uiso   1.00
H357   H     0.96769   0.53467   0.34147   0.00000  Uiso   1.00
H358   H     0.89515   0.70052   0.87234   0.00000  Uiso   1.00
H359   H     0.67845   0.76136   0.38978   0.00000  Uiso   1.00
O360   O     0.95946   0.43260   0.31646   0.00000  Uiso   1.00
O361   O     0.86429   0.65020   0.01292   0.00000  Uiso   1.00
O362   O     0.57998   0.73002   0.37982   0.00000  Uiso   1.00
N363   N     0.88930   0.44898   0.40814   0.00000  Uiso   1.00
N364   N     0.82150   0.60404   0.90446   0.00000  Uiso   1.00
N365   N     0.61889   0.66092   0.45333   0.00000  Uiso   1.00
N366   N     0.93865   0.51490   0.37027   0.00000  Uiso   1.00
N367   N     0.87085   0.66995   0.86660   0.00000  Uiso   1.00
N368   N     0.66824   0.72684   0.41547   0.00000  Uiso   1.00
C369   C     0.06550   0.72778   0.90807   0.00000  Uiso   1.00
C370   C     0.04950   0.68346   0.96799   0.00000  Uiso   1.00
C371   C     0.99933   0.67368   0.99726   0.00000  Uiso   1.00
C372   C     0.99274   0.63120   0.05165   0.00000  Uiso   1.00
C373   C     0.96148   0.56716   0.14097   0.00000  Uiso   1.00
C374   C     0.09223   0.70214   0.83120   0.00000  Uiso   1.00
C375   C     0.07798   0.70807   0.74546   0.00000  Uiso   1.00
C376   C     0.10737   0.68132   0.68469   0.00000  Uiso   1.00
C377   C     0.14247   0.64631   0.56163   0.00000  Uiso   1.00
C378   C     0.10790   0.75797   0.95554   0.00000  Uiso   1.00
C379   C     0.10684   0.81086   0.97433   0.00000  Uiso   1.00
C380   C     0.14943   0.83113   0.01824   0.00000  Uiso   1.00
C381   C     0.20887   0.88281   0.08824   0.00000  Uiso   1.00
C382   C     0.14302   0.66975   0.95260   0.00000  Uiso   1.00
C383   C     0.09161   0.65194   0.99217   0.00000  Uiso   1.00
C384   C     0.08509   0.60947   0.04653   0.00000  Uiso   1.00
C385   C     0.03492   0.59963   0.07588   0.00000  Uiso   1.00
C386   C     0.13433   0.67062   0.85538   0.00000  Uiso   1.00
C387   C     0.16375   0.64386   0.79472   0.00000  Uiso   1.00
C388   C     0.14955   0.64975   0.70892   0.00000  Uiso   1.00
C389   C     0.15001   0.72645   0.97973   0.00000  Uiso   1.00
C390   C     0.19261   0.74665   0.02360   0.00000  Uiso   1.00
C391   C     0.19161   0.79955   0.04246   0.00000  Uiso   1.00
H392   H     0.03273   0.75232   0.88924   0.00000  Uiso   1.00
H393   H     0.96675   0.69808   0.97853   0.00000  Uiso   1.00
H394   H     0.04540   0.73247   0.72676   0.00000  Uiso   1.00
H395   H     0.07426   0.83524   0.95561   0.00000  Uiso   1.00
H396   H     0.91217   0.62402   0.08816   0.00000  Uiso   1.00
H397   H     0.07802   0.69655   0.55730   0.00000  Uiso   1.00
H398   H     0.13887   0.91326   0.03986   0.00000  Uiso   1.00
H399   H     0.17580   0.64521   0.97142   0.00000  Uiso   1.00
H400   H     0.11768   0.58508   0.06523   0.00000  Uiso   1.00
H401   H     0.19633   0.61948   0.81346   0.00000  Uiso   1.00
H402   H     0.22518   0.72224   0.04230   0.00000  Uiso   1.00
H403   H     0.03467   0.53231   0.15853   0.00000  Uiso   1.00
H404   H     0.20052   0.60485   0.62766   0.00000  Uiso   1.00
H405   H     0.26136   0.82155   0.11022   0.00000  Uiso   1.00
O406   O     0.93260   0.54054   0.18354   0.00000  Uiso   1.00
O407   O     0.15020   0.63571   0.48708   0.00000  Uiso   1.00
O408   O     0.23002   0.92002   0.12018   0.00000  Uiso   1.00
N409   N     0.94898   0.61070   0.09186   0.00000  Uiso   1.00
N410   N     0.10404   0.67850   0.59554   0.00000  Uiso   1.00
N411   N     0.16092   0.88111   0.04667   0.00000  Uiso   1.00
N412   N     0.01490   0.56135   0.12973   0.00000  Uiso   1.00
N413   N     0.16995   0.62915   0.63340   0.00000  Uiso   1.00
N414   N     0.22684   0.83176   0.08453   0.00000  Uiso   1.00
C415   C     0.56550   0.22778   0.40807   0.00000  Uiso   1.00
C416   C     0.54950   0.18346   0.46799   0.00000  Uiso   1.00
C417   C     0.49933   0.17368   0.49726   0.00000  Uiso   1.00
C418   C     0.49274   0.13120   0.55165   0.00000  Uiso   1.00
C419   C     0.46148   0.06716   0.64097   0.00000  Uiso   1.00
C420   C     0.59223   0.20214   0.33120   0.00000  Uiso   1.00
C421   C     0.57798   0.20807   0.24546   0.00000  Uiso   1.00
C422   C     0.60737   0.18132   0.18469   0.00000  Uiso   1.00
C423   C     0.64247   0.14631   0.06163   0.00000  Uiso   1.00
C424   C     0.60790   0.25797   0.45554   0.00000  Uiso   1.00
C425   C     0.60684   0.31086   0.47433   0.00000  Uiso   1.00
C426   C     0.64943   0.33113   0.51824   0.00000  Uiso   1.00
C427   C     0.70887   0.38281   0.58824   0.00000  Uiso   1.00
C428   C     0.64302   0.16975   0.45260   0.00000  Uiso   1.00
C429   C     0.59161   0.15194   0.49217   0.00000  Uiso   1.00
C430   C     0.58509   0.10947   0.54653   0.00000  Uiso   1.00
C431   C     0.53492   0.09963   0.57588   0.00000  Uiso   1.00
C432   C     0.63433   0.17062   0.35538   0.00000  Uiso   1.00
C433   C     0.66375   0.14386   0.29472   0.00000  Uiso   1.00
C434   C     0.64955   0.14975   0.20892   0.00000  Uiso   1.00
C435   C     0.65001   0.22645   0.47973   0.00000  Uiso   1.00
C436   C     0.69261   0.24665   0.52360   0.00000  Uiso   1.00
C437   C     0.69161   0.29955   0.54246   0.00000  Uiso   1.00
H438   H     0.53273   0.25232   0.38924   0.00000  Uiso   1.00
H439   H     0.46675   0.19808   0.47853   0.00000  Uiso   1.00
H440   H     0.54540   0.23247   0.22676   0.00000  Uiso   1.00
H441   H     0.57426   0.33524   0.45561   0.00000  Uiso   1.00
H442   H     0.41217   0.12402   0.58816   0.00000  Uiso   1.00
H443   H     0.57802   0.19655   0.05730   0.00000  Uiso   1.00
H444   H     0.63887   0.41326   0.53986   0.00000  Uiso   1.00
H445   H     0.67580   0.14521   0.47142   0.00000  Uiso   1.00
H446   H     0.61768   0.08508   0.56523   0.00000  Uiso   1.00
H447   H     0.69633   0.11948   0.31346   0.00000  Uiso   1.00
H448   H     0.72518   0.22224   0.54230   0.00000  Uiso   1.00
H449   H     0.53467   0.03231   0.65853   0.00000  Uiso   1.00
H450   H     0.70052   0.10485   0.12766   0.00000  Uiso   1.00
H451   H     0.76136   0.32155   0.61022   0.00000  Uiso   1.00
O452   O     0.43260   0.04054   0.68354   0.00000  Uiso   1.00
O453   O     0.65020   0.13571   0.98708   0.00000  Uiso   1.00
O454   O     0.73002   0.42002   0.62018   0.00000  Uiso   1.00
N455   N     0.44898   0.11070   0.59186   0.00000  Uiso   1.00
N456   N     0.60404   0.17850   0.09554   0.00000  Uiso   1.00
N457   N     0.66092   0.38111   0.54667   0.00000  Uiso   1.00
N458   N     0.51490   0.06135   0.62973   0.00000  Uiso   1.00
N459   N     0.66995   0.12915   0.13340   0.00000  Uiso   1.00
N460   N     0.72684   0.33176   0.58453   0.00000  Uiso   1.00
C461   C     0.43450   0.77222   0.40807   0.00000  Uiso   1.00
C462   C     0.45050   0.81654   0.46799   0.00000  Uiso   1.00
C463   C     0.50067   0.82632   0.49726   0.00000  Uiso   1.00
C464   C     0.50726   0.86880   0.55165   0.00000  Uiso   1.00
C465   C     0.53852   0.93284   0.64097   0.00000  Uiso   1.00
C466   C     0.40777   0.79786   0.33120   0.00000  Uiso   1.00
C467   C     0.42202   0.79193   0.24546   0.00000  Uiso   1.00
C468   C     0.39263   0.81868   0.18469   0.00000  Uiso   1.00
C469   C     0.35753   0.85369   0.06163   0.00000  Uiso   1.00
C470   C     0.39210   0.74203   0.45554   0.00000  Uiso   1.00
C471   C     0.39316   0.68914   0.47433   0.00000  Uiso   1.00
C472   C     0.35057   0.66887   0.51824   0.00000  Uiso   1.00
C473   C     0.29113   0.61719   0.58824   0.00000  Uiso   1.00
C474   C     0.35698   0.83025   0.45260   0.00000  Uiso   1.00
C475   C     0.40839   0.84806   0.49217   0.00000  Uiso   1.00
C476   C     0.41491   0.89053   0.54653   0.00000  Uiso   1.00
C477   C     0.46508   0.90037   0.57588   0.00000  Uiso   1.00
C478   C     0.36567   0.82938   0.35538   0.00000  Uiso   1.00
C479   C     0.33625   0.85614   0.29472   0.00000  Uiso   1.00
C480   C     0.35045   0.85025   0.20892   0.00000  Uiso   1.00
C481   C     0.34999   0.77355   0.47973   0.00000  Uiso   1.00
C482   C     0.30739   0.75335   0.52360   0.00000  Uiso   1.00
C483   C     0.30839   0.70045   0.54246   0.00000  Uiso   1.00
H484   H     0.46727   0.74768   0.38924   0.00000  Uiso   1.00
H485   H     0.53325   0.80192   0.47853   0.00000  Uiso   1.00
H486   H     0.45460   0.76753   0.22676   0.00000  Uiso   1.00
H487   H     0.42574   0.66476   0.45561   0.00000  Uiso   1.00
H488   H     0.58783   0.87598   0.58816   0.00000  Uiso   1.00
H489   H     0.42198   0.80345   0.05730   0.00000  Uiso   1.00
H490   H     0.36113   0.58674   0.53986   0.00000  Uiso   1.00
H491   H     0.32420   0.85479   0.47142   0.00000  Uiso   1.00
H492   H     0.38232   0.91492   0.56523   0.00000  Uiso   1.00
H493   H     0.30367   0.88052   0.31346   0.00000  Uiso   1.00
H494   H     0.27482   0.77776   0.54230   0.00000  Uiso   1.00
H495   H     0.46533   0.96769   0.65853   0.00000  Uiso   1.00
H496   H     0.29948   0.89515   0.12766   0.00000  Uiso   1.00
H497   H     0.23864   0.67845   0.61022   0.00000  Uiso   1.00
O498   O     0.56740   0.95946   0.68354   0.00000  Uiso   1.00
O499   O     0.34980   0.86429   0.98708   0.00000  Uiso   1.00
O500   O     0.26998   0.57998   0.62018   0.00000  Uiso   1.00
N501   N     0.55102   0.88930   0.59186   0.00000  Uiso   1.00
N502   N     0.39596   0.82150   0.09554   0.00000  Uiso   1.00
N503   N     0.33908   0.61889   0.54667   0.00000  Uiso   1.00
N504   N     0.48510   0.93865   0.62973   0.00000  Uiso   1.00
N505   N     0.33005   0.87085   0.13340   0.00000  Uiso   1.00
N506   N     0.27316   0.66824   0.58453   0.00000  Uiso   1.00
C507   C     0.93450   0.27222   0.90807   0.00000  Uiso   1.00
C508   C     0.95050   0.31654   0.96799   0.00000  Uiso   1.00
C509   C     0.00067   0.32632   0.99726   0.00000  Uiso   1.00
C510   C     0.00726   0.36880   0.05165   0.00000  Uiso   1.00
C511   C     0.03852   0.43284   0.14097   0.00000  Uiso   1.00
C512   C     0.90777   0.29786   0.83120   0.00000  Uiso   1.00
C513   C     0.92202   0.29193   0.74546   0.00000  Uiso   1.00
C514   C     0.89263   0.31868   0.68469   0.00000  Uiso   1.00
C515   C     0.85753   0.35369   0.56163   0.00000  Uiso   1.00
C516   C     0.89210   0.24203   0.95554   0.00000  Uiso   1.00
C517   C     0.89316   0.18914   0.97433   0.00000  Uiso   1.00
C518   C     0.85057   0.16887   0.01824   0.00000  Uiso   1.00
C519   C     0.79113   0.11719   0.08824   0.00000  Uiso   1.00
C520   C     0.85698   0.33025   0.95260   0.00000  Uiso   1.00
C521   C     0.90839   0.34806   0.99217   0.00000  Uiso   1.00
C522   C     0.91491   0.39053   0.04653   0.00000  Uiso   1.00
C523   C     0.96508   0.40037   0.07588   0.00000  Uiso   1.00
C524   C     0.86567   0.32938   0.85538   0.00000  Uiso   1.00
C525   C     0.83625   0.35614   0.79472   0.00000  Uiso   1.00
C526   C     0.85045   0.35025   0.70892   0.00000  Uiso   1.00
C527   C     0.84999   0.27355   0.97973   0.00000  Uiso   1.00
C528   C     0.80739   0.25335   0.02360   0.00000  Uiso   1.00
C529   C     0.80839   0.20045   0.04246   0.00000  Uiso   1.00
H530   H     0.96727   0.24768   0.88924   0.00000  Uiso   1.00
H531   H     0.03325   0.30192   0.97853   0.00000  Uiso   1.00
H532   H     0.95460   0.26753   0.72676   0.00000  Uiso   1.00
H533   H     0.92574   0.16476   0.95561   0.00000  Uiso   1.00
H534   H     0.08783   0.37598   0.08816   0.00000  Uiso   1.00
H535   H     0.92198   0.30345   0.55730   0.00000  Uiso   1.00
H536   H     0.86113   0.08674   0.03986   0.00000  Uiso   1.00
H537   H     0.82420   0.35479   0.97142   0.00000  Uiso   1.00
H538   H     0.88232   0.41492   0.06523   0.00000  Uiso   1.00
H539   H     0.80367   0.38052   0.81346   0.00000  Uiso   1.00
H540   H     0.77482   0.27776   0.04230   0.00000  Uiso   1.00
H541   H     0.96533   0.46769   0.15853   0.00000  Uiso   1.00
H542   H     0.79948   0.39515   0.62766   0.00000  Uiso   1.00
H543   H     0.73864   0.17845   0.11022   0.00000  Uiso   1.00
O544   O     0.06740   0.45946   0.18354   0.00000  Uiso   1.00
O545   O     0.84980   0.36429   0.48708   0.00000  Uiso   1.00
O546   O     0.76998   0.07998   0.12018   0.00000  Uiso   1.00
N547   N     0.05102   0.38930   0.09186   0.00000  Uiso   1.00
N548   N     0.89596   0.32150   0.59554   0.00000  Uiso   1.00
N549   N     0.83908   0.11889   0.04667   0.00000  Uiso   1.00
N550   N     0.98510   0.43865   0.12973   0.00000  Uiso   1.00
N551   N     0.83005   0.37085   0.63340   0.00000  Uiso   1.00
N552   N     0.77316   0.16824   0.08453   0.00000  Uiso   1.00
C553   C     0.77222   0.06550   0.65807   0.00000  Uiso   1.00
C554   C     0.81654   0.04950   0.71799   0.00000  Uiso   1.00
C555   C     0.82632   0.99933   0.74726   0.00000  Uiso   1.00
C556   C     0.86880   0.99274   0.80165   0.00000  Uiso   1.00
C557   C     0.93284   0.96148   0.89097   0.00000  Uiso   1.00
C558   C     0.79786   0.09223   0.58120   0.00000  Uiso   1.00
C559   C     0.79193   0.07798   0.49546   0.00000  Uiso   1.00
C560   C     0.81868   0.10737   0.43469   0.00000  Uiso   1.00
C561   C     0.85369   0.14247   0.31163   0.00000  Uiso   1.00
C562   C     0.74203   0.10790   0.70554   0.00000  Uiso   1.00
C563   C     0.68914   0.10684   0.72433   0.00000  Uiso   1.00
C564   C     0.66887   0.14943   0.76824   0.00000  Uiso   1.00
C565   C     0.61719   0.20887   0.83824   0.00000  Uiso   1.00
C566   C     0.83025   0.14302   0.70260   0.00000  Uiso   1.00
C567   C     0.84806   0.09161   0.74217   0.00000  Uiso   1.00
C568   C     0.89053   0.08509   0.79653   0.00000  Uiso   1.00
C569   C     0.90037   0.03492   0.82588   0.00000  Uiso   1.00
C570   C     0.82938   0.13433   0.60538   0.00000  Uiso   1.00
C571   C     0.85614   0.16375   0.54472   0.00000  Uiso   1.00
C572   C     0.85025   0.14955   0.45892   0.00000  Uiso   1.00
C573   C     0.77355   0.15001   0.72973   0.00000  Uiso   1.00
C574   C     0.75335   0.19261   0.77360   0.00000  Uiso   1.00
C575   C     0.70045   0.19161   0.79246   0.00000  Uiso   1.00
H576   H     0.74768   0.03273   0.63924   0.00000  Uiso   1.00
H577   H     0.80192   0.96675   0.72853   0.00000  Uiso   1.00
H578   H     0.76753   0.04540   0.47676   0.00000  Uiso   1.00
H579   H     0.66476   0.07426   0.70561   0.00000  Uiso   1.00
H580   H     0.87598   0.91217   0.83816   0.00000  Uiso   1.00
H581   H     0.80345   0.07802   0.30730   0.00000  Uiso   1.00
H582   H     0.58674   0.13887   0.78986   0.00000  Uiso   1.00
H583   H     0.85479   0.17580   0.72142   0.00000  Uiso   1.00
H584   H     0.91492   0.11768   0.81523   0.00000  Uiso   1.00
H585   H     0.88052   0.19633   0.56346   0.00000  Uiso   1.00
H586   H     0.77776   0.22518   0.79230   0.00000  Uiso   1.00
H587   H     0.96769   0.03467   0.90853   0.00000  Uiso   1.00
H588   H     0.89515   0.20052   0.37766   0.00000  Uiso   1.00
H589   H     0.67845   0.26136   0.86022   0.00000  Uiso   1.00
O590   O     0.95946   0.93260   0.93354   0.00000  Uiso   1.00
O591   O     0.86429   0.15020   0.23708   0.00000  Uiso   1.00
O592   O     0.57998   0.23002   0.87018   0.00000  Uiso   1.00
N593   N     0.88930   0.94898   0.84186   0.00000  Uiso   1.00
N594   N     0.82150   0.10404   0.34554   0.00000  Uiso   1.00
N595   N     0.61889   0.16092   0.79667   0.00000  Uiso   1.00
N596   N     0.93865   0.01490   0.87973   0.00000  Uiso   1.00
N597   N     0.87085   0.16995   0.38340   0.00000  Uiso   1.00
N598   N     0.66824   0.22684   0.83453   0.00000  Uiso   1.00
C599   C     0.27222   0.56550   0.15807   0.00000  Uiso   1.00
C600   C     0.31654   0.54950   0.21799   0.00000  Uiso   1.00
C601   C     0.32632   0.49933   0.24726   0.00000  Uiso   1.00
C602   C     0.36880   0.49274   0.30165   0.00000  Uiso   1.00
C603   C     0.43284   0.46148   0.39097   0.00000  Uiso   1.00
C604   C     0.29786   0.59223   0.08120   0.00000  Uiso   1.00
C605   C     0.29193   0.57798   0.99546   0.00000  Uiso   1.00
C606   C     0.31868   0.60737   0.93469   0.00000  Uiso   1.00
C607   C     0.35369   0.64247   0.81163   0.00000  Uiso   1.00
C608   C     0.24203   0.60790   0.20554   0.00000  Uiso   1.00
C609   C     0.18914   0.60684   0.22433   0.00000  Uiso   1.00
C610   C     0.16887   0.64943   0.26824   0.00000  Uiso   1.00
C611   C     0.11719   0.70887   0.33824   0.00000  Uiso   1.00
C612   C     0.33025   0.64302   0.20260   0.00000  Uiso   1.00
C613   C     0.34806   0.59161   0.24217   0.00000  Uiso   1.00
C614   C     0.39053   0.58509   0.29653   0.00000  Uiso   1.00
C615   C     0.40037   0.53492   0.32588   0.00000  Uiso   1.00
C616   C     0.32938   0.63433   0.10538   0.00000  Uiso   1.00
C617   C     0.35614   0.66375   0.04472   0.00000  Uiso   1.00
C618   C     0.35025   0.64955   0.95892   0.00000  Uiso   1.00
C619   C     0.27355   0.65001   0.22973   0.00000  Uiso   1.00
C620   C     0.25335   0.69261   0.27360   0.00000  Uiso   1.00
C621   C     0.20045   0.69161   0.29246   0.00000  Uiso   1.00
H622   H     0.24768   0.53273   0.13924   0.00000  Uiso   1.00
H623   H     0.30192   0.46675   0.22853   0.00000  Uiso   1.00
H624   H     0.26753   0.54540   0.97676   0.00000  Uiso   1.00
H625   H     0.16476   0.57426   0.20561   0.00000  Uiso   1.00
H626   H     0.37598   0.41217   0.33816   0.00000  Uiso   1.00
H627   H     0.30345   0.57802   0.80730   0.00000  Uiso   1.00
H628   H     0.08674   0.63887   0.28986   0.00000  Uiso   1.00
H629   H     0.35479   0.67580   0.22142   0.00000  Uiso   1.00
H630   H     0.41492   0.61768   0.31523   0.00000  Uiso   1.00
H631   H     0.38052   0.69633   0.06346   0.00000  Uiso   1.00
H632   H     0.27776   0.72518   0.29230   0.00000  Uiso   1.00
H633   H     0.46769   0.53467   0.40853   0.00000  Uiso   1.00
H634   H     0.39515   0.70052   0.87766   0.00000  Uiso   1.00
H635   H     0.17845   0.76136   0.36022   0.00000  Uiso   1.00
O636   O     0.45946   0.43260   0.43354   0.00000  Uiso   1.00
O637   O     0.36429   0.65020   0.73708   0.00000  Uiso   1.00
O638   O     0.07998   0.73002   0.37018   0.00000  Uiso   1.00
N639   N     0.38930   0.44898   0.34186   0.00000  Uiso   1.00
N640   N     0.32150   0.60404   0.84554   0.00000  Uiso   1.00
N641   N     0.11889   0.66092   0.29667   0.00000  Uiso   1.00
N642   N     0.43865   0.51490   0.37973   0.00000  Uiso   1.00
N643   N     0.37085   0.66995   0.88340   0.00000  Uiso   1.00
N644   N     0.16824   0.72684   0.33453   0.00000  Uiso   1.00
C645   C     0.72778   0.43450   0.15807   0.00000  Uiso   1.00
C646   C     0.68346   0.45050   0.21799   0.00000  Uiso   1.00
C647   C     0.67368   0.50067   0.24726   0.00000  Uiso   1.00
C648   C     0.63120   0.50726   0.30165   0.00000  Uiso   1.00
C649   C     0.56716   0.53852   0.39097   0.00000  Uiso   1.00
C650   C     0.70214   0.40777   0.08120   0.00000  Uiso   1.00
C651   C     0.70807   0.42202   0.99546   0.00000  Uiso   1.00
C652   C     0.68132   0.39263   0.93469   0.00000  Uiso   1.00
C653   C     0.64631   0.35753   0.81163   0.00000  Uiso   1.00
C654   C     0.75797   0.39210   0.20554   0.00000  Uiso   1.00
C655   C     0.81086   0.39316   0.22433   0.00000  Uiso   1.00
C656   C     0.83113   0.35057   0.26824   0.00000  Uiso   1.00
C657   C     0.88281   0.29113   0.33824   0.00000  Uiso   1.00
C658   C     0.66975   0.35698   0.20260   0.00000  Uiso   1.00
C659   C     0.65194   0.40839   0.24217   0.00000  Uiso   1.00
C660   C     0.60947   0.41491   0.29653   0.00000  Uiso   1.00
C661   C     0.59963   0.46508   0.32588   0.00000  Uiso   1.00
C662   C     0.67062   0.36567   0.10538   0.00000  Uiso   1.00
C663   C     0.64386   0.33625   0.04472   0.00000  Uiso   1.00
C664   C     0.64975   0.35045   0.95892   0.00000  Uiso   1.00
C665   C     0.72645   0.34999   0.22973   0.00000  Uiso   1.00
C666   C     0.74665   0.30739   0.27360   0.00000  Uiso   1.00
C667   C     0.79955   0.30839   0.29246   0.00000  Uiso   1.00
H668   H     0.75232   0.46727   0.13924   0.00000  Uiso   1.00
H669   H     0.69808   0.53325   0.22853   0.00000  Uiso   1.00
H670   H     0.73247   0.45460   0.97676   0.00000  Uiso   1.00
H671   H     0.83524   0.42574   0.20561   0.00000  Uiso   1.00
H672   H     0.62402   0.58783   0.33816   0.00000  Uiso   1.00
H673   H     0.69655   0.42198   0.80730   0.00000  Uiso   1.00
H674   H     0.91326   0.36113   0.28986   0.00000  Uiso   1.00
H675   H     0.64521   0.32420   0.22142   0.00000  Uiso   1.00
H676   H     0.58508   0.38232   0.31523   0.00000  Uiso   1.00
H677   H     0.61948   0.30367   0.06346   0.00000  Uiso   1.00
H678   H     0.72224   0.27482   0.29230   0.00000  Uiso   1.00
H679   H     0.53231   0.46533   0.40853   0.00000  Uiso   1.00
H680   H     0.60485   0.29948   0.87766   0.00000  Uiso   1.00
H681   H     0.82155   0.23864   0.36022   0.00000  Uiso   1.00
O682   O     0.54054   0.56740   0.43354   0.00000  Uiso   1.00
O683   O     0.63571   0.34980   0.73708   0.00000  Uiso   1.00
O684   O     0.92002   0.26998   0.37018   0.00000  Uiso   1.00
N685   N     0.61070   0.55102   0.34186   0.00000  Uiso   1.00
N686   N     0.67850   0.39596   0.84554   0.00000  Uiso   1.00
N687   N     0.88111   0.33908   0.29667   0.00000  Uiso   1.00
N688   N     0.56135   0.48510   0.37973   0.00000  Uiso   1.00
N689   N     0.62915   0.33005   0.88340   0.00000  Uiso   1.00
N690   N     0.83176   0.27316   0.33453   0.00000  Uiso   1.00
C691   C     0.22778   0.93450   0.65807   0.00000  Uiso   1.00
C692   C     0.18346   0.95050   0.71799   0.00000  Uiso   1.00
C693   C     0.17368   0.00067   0.74726   0.00000  Uiso   1.00
C694   C     0.13120   0.00726   0.80165   0.00000  Uiso   1.00
C695   C     0.06716   0.03852   0.89097   0.00000  Uiso   1.00
C696   C     0.20214   0.90777   0.58120   0.00000  Uiso   1.00
C697   C     0.20807   0.92202   0.49546   0.00000  Uiso   1.00
C698   C     0.18132   0.89263   0.43469   0.00000  Uiso   1.00
C699   C     0.14631   0.85753   0.31163   0.00000  Uiso   1.00
C700   C     0.25797   0.89210   0.70554   0.00000  Uiso   1.00
C701   C     0.31086   0.89316   0.72433   0.00000  Uiso   1.00
C702   C     0.33113   0.85057   0.76824   0.00000  Uiso   1.00
C703   C     0.38281   0.79113   0.83824   0.00000  Uiso   1.00
C704   C     0.16975   0.85698   0.70260   0.00000  Uiso   1.00
C705   C     0.15194   0.90839   0.74217   0.00000  Uiso   1.00
C706   C     0.10947   0.91491   0.79653   0.00000  Uiso   1.00
C707   C     0.09963   0.96508   0.82588   0.00000  Uiso   1.00
C708   C     0.17062   0.86567   0.60538   0.00000  Uiso   1.00
C709   C     0.14386   0.83625   0.54472   0.00000  Uiso   1.00
C710   C     0.14975   0.85045   0.45892   0.00000  Uiso   1.00
C711   C     0.22645   0.84999   0.72973   0.00000  Uiso   1.00
C712   C     0.24665   0.80739   0.77360   0.00000  Uiso   1.00
C713   C     0.29955   0.80839   0.79246   0.00000  Uiso   1.00
H714   H     0.25232   0.96727   0.63924   0.00000  Uiso   1.00
H715   H     0.19808   0.03325   0.72853   0.00000  Uiso   1.00
H716   H     0.23247   0.95460   0.47676   0.00000  Uiso   1.00
H717   H     0.33524   0.92574   0.70561   0.00000  Uiso   1.00
H718   H     0.12402   0.08783   0.83816   0.00000  Uiso   1.00
H719   H     0.19655   0.92198   0.30730   0.00000  Uiso   1.00
H720   H     0.41326   0.86113   0.78986   0.00000  Uiso   1.00
H721   H     0.14521   0.82420   0.72142   0.00000  Uiso   1.00
H722   H     0.08508   0.88232   0.81523   0.00000  Uiso   1.00
H723   H     0.11948   0.80367   0.56346   0.00000  Uiso   1.00
H724   H     0.22224   0.77482   0.79230   0.00000  Uiso   1.00
H725   H     0.03231   0.96533   0.90853   0.00000  Uiso   1.00
H726   H     0.10485   0.79948   0.37766   0.00000  Uiso   1.00
H727   H     0.32155   0.73864   0.86022   0.00000  Uiso   1.00
O728   O     0.04054   0.06740   0.93354   0.00000  Uiso   1.00
O729   O     0.13571   0.84980   0.23708   0.00000  Uiso   1.00
O730   O     0.42002   0.76998   0.87018   0.00000  Uiso   1.00
N731   N     0.11070   0.05102   0.84186   0.00000  Uiso   1.00
N732   N     0.17850   0.89596   0.34554   0.00000  Uiso   1.00
N733   N     0.38111   0.83908   0.79667   0.00000  Uiso   1.00
N734   N     0.06135   0.98510   0.87973   0.00000  Uiso   1.00
N735   N     0.12915   0.83005   0.38340   0.00000  Uiso   1.00
N736   N     0.33176   0.77316   0.83453   0.00000  Uiso   1.00
