data_job_04795
_audit_creation_date              2018-12-19
_audit_creation_method            'Materials Studio'
_symmetry_space_group_name_H-M    'P1'
_symmetry_Int_Tables_number       1
_symmetry_cell_setting            triclinic
loop_
_symmetry_equiv_pos_as_xyz
  x,y,z
_cell_length_a                    21.0683
_cell_length_b                    22.8890
_cell_length_c                    25.3603
_cell_angle_alpha                 90.0000
_cell_angle_beta                  90.0000
_cell_angle_gamma                 90.0000
loop_
_atom_site_label
_atom_site_type_symbol
_atom_site_fract_x
_atom_site_fract_y
_atom_site_fract_z
_atom_site_U_iso_or_equiv
_atom_site_adp_type
_atom_site_occupancy
C1     C     0.19684   0.37759   0.33849   0.00000  Uiso   1.00
C2     C     0.21268   0.44006   0.35471   0.00000  Uiso   1.00
C3     C     0.18354   0.49016   0.33564   0.00000  Uiso   1.00
C4     C     0.20484   0.54321   0.35543   0.00000  Uiso   1.00
C5     C     0.22205   0.63980   0.37490   0.00000  Uiso   1.00
C6     C     0.25879   0.35094   0.31878   0.00000  Uiso   1.00
C7     C     0.26842   0.32610   0.26950   0.00000  Uiso   1.00
C8     C     0.32854   0.30413   0.25904   0.00000  Uiso   1.00
C9     C     0.41732   0.26231   0.22274   0.00000  Uiso   1.00
C10    C     0.18049   0.34527   0.38928   0.00000  Uiso   1.00
C11    C     0.12429   0.31565   0.39928   0.00000  Uiso   1.00
C12    C     0.11849   0.28889   0.44817   0.00000  Uiso   1.00
C13    C     0.08570   0.23827   0.52134   0.00000  Uiso   1.00
C14    C     0.28649   0.38271   0.40754   0.00000  Uiso   1.00
C15    C     0.26138   0.44284   0.39222   0.00000  Uiso   1.00
C16    C     0.28273   0.49583   0.41204   0.00000  Uiso   1.00
C17    C     0.25362   0.54600   0.39300   0.00000  Uiso   1.00
C18    C     0.30749   0.35372   0.35628   0.00000  Uiso   1.00
C19    C     0.36761   0.33177   0.34589   0.00000  Uiso   1.00
C20    C     0.37732   0.30691   0.29661   0.00000  Uiso   1.00
C21    C     0.22919   0.34805   0.42679   0.00000  Uiso   1.00
C22    C     0.22348   0.32132   0.47567   0.00000  Uiso   1.00
C23    C     0.16727   0.29167   0.48575   0.00000  Uiso   1.00
H24    H     0.15893   0.37542   0.30928   0.00000  Uiso   1.00
H25    H     0.14586   0.48799   0.30661   0.00000  Uiso   1.00
H26    H     0.23073   0.32395   0.24049   0.00000  Uiso   1.00
H27    H     0.08662   0.31351   0.37025   0.00000  Uiso   1.00
H28    H     0.15286   0.61403   0.32018   0.00000  Uiso   1.00
H29    H     0.33179   0.26813   0.18075   0.00000  Uiso   1.00
H30    H     0.02791   0.24610   0.45437   0.00000  Uiso   1.00
H31    H     0.32441   0.38487   0.43673   0.00000  Uiso   1.00
H32    H     0.32041   0.49797   0.44106   0.00000  Uiso   1.00
H33    H     0.40528   0.33393   0.37493   0.00000  Uiso   1.00
H34    H     0.26117   0.32348   0.50469   0.00000  Uiso   1.00
H35    H     0.29453   0.62212   0.42930   0.00000  Uiso   1.00
H36    H     0.47347   0.27622   0.28987   0.00000  Uiso   1.00
H37    H     0.16958   0.25419   0.56349   0.00000  Uiso   1.00
O38    O     0.21809   0.69230   0.37527   0.00000  Uiso   1.00
O39    O     0.45285   0.23848   0.19235   0.00000  Uiso   1.00
O40    O     0.05416   0.20959   0.55134   0.00000  Uiso   1.00
N41    N     0.18674   0.60041   0.34527   0.00000  Uiso   1.00
N42    N     0.35404   0.27702   0.21491   0.00000  Uiso   1.00
N43    N     0.06994   0.25642   0.47072   0.00000  Uiso   1.00
N44    N     0.26297   0.60477   0.40399   0.00000  Uiso   1.00
N45    N     0.43027   0.28138   0.27363   0.00000  Uiso   1.00
N46    N     0.14617   0.26077   0.52944   0.00000  Uiso   1.00
C47    C     0.69684   0.87759   0.33849   0.00000  Uiso   1.00
C48    C     0.71268   0.94006   0.35471   0.00000  Uiso   1.00
C49    C     0.68354   0.99016   0.33564   0.00000  Uiso   1.00
C50    C     0.70484   0.04321   0.35543   0.00000  Uiso   1.00
C51    C     0.72205   0.13980   0.37490   0.00000  Uiso   1.00
C52    C     0.75879   0.85094   0.31878   0.00000  Uiso   1.00
C53    C     0.76842   0.82610   0.26950   0.00000  Uiso   1.00
C54    C     0.82854   0.80413   0.25904   0.00000  Uiso   1.00
C55    C     0.91732   0.76231   0.22274   0.00000  Uiso   1.00
C56    C     0.68049   0.84527   0.38928   0.00000  Uiso   1.00
C57    C     0.62429   0.81565   0.39928   0.00000  Uiso   1.00
C58    C     0.61849   0.78889   0.44817   0.00000  Uiso   1.00
C59    C     0.58570   0.73827   0.52134   0.00000  Uiso   1.00
C60    C     0.78649   0.88271   0.40754   0.00000  Uiso   1.00
C61    C     0.76138   0.94284   0.39222   0.00000  Uiso   1.00
C62    C     0.78273   0.99583   0.41204   0.00000  Uiso   1.00
C63    C     0.75362   0.04600   0.39300   0.00000  Uiso   1.00
C64    C     0.80749   0.85372   0.35628   0.00000  Uiso   1.00
C65    C     0.86761   0.83177   0.34589   0.00000  Uiso   1.00
C66    C     0.87732   0.80691   0.29661   0.00000  Uiso   1.00
C67    C     0.72919   0.84805   0.42679   0.00000  Uiso   1.00
C68    C     0.72348   0.82132   0.47567   0.00000  Uiso   1.00
C69    C     0.66727   0.79167   0.48575   0.00000  Uiso   1.00
H70    H     0.65893   0.87542   0.30928   0.00000  Uiso   1.00
H71    H     0.64586   0.98799   0.30661   0.00000  Uiso   1.00
H72    H     0.73073   0.82395   0.24049   0.00000  Uiso   1.00
H73    H     0.58662   0.81351   0.37025   0.00000  Uiso   1.00
H74    H     0.65286   0.11403   0.32018   0.00000  Uiso   1.00
H75    H     0.83179   0.76813   0.18075   0.00000  Uiso   1.00
H76    H     0.52791   0.74610   0.45437   0.00000  Uiso   1.00
H77    H     0.82441   0.88487   0.43673   0.00000  Uiso   1.00
H78    H     0.82041   0.99797   0.44106   0.00000  Uiso   1.00
H79    H     0.90528   0.83393   0.37493   0.00000  Uiso   1.00
H80    H     0.76117   0.82348   0.50469   0.00000  Uiso   1.00
H81    H     0.79453   0.12212   0.42930   0.00000  Uiso   1.00
H82    H     0.97347   0.77622   0.28987   0.00000  Uiso   1.00
H83    H     0.66958   0.75419   0.56349   0.00000  Uiso   1.00
O84    O     0.71809   0.19230   0.37527   0.00000  Uiso   1.00
O85    O     0.95285   0.73848   0.19235   0.00000  Uiso   1.00
O86    O     0.55416   0.70959   0.55134   0.00000  Uiso   1.00
N87    N     0.68674   0.10041   0.34527   0.00000  Uiso   1.00
N88    N     0.85404   0.77702   0.21491   0.00000  Uiso   1.00
N89    N     0.56994   0.75642   0.47072   0.00000  Uiso   1.00
N90    N     0.76297   0.10477   0.40399   0.00000  Uiso   1.00
N91    N     0.93027   0.78138   0.27363   0.00000  Uiso   1.00
N92    N     0.64617   0.76077   0.52944   0.00000  Uiso   1.00
C93    C     0.30316   0.12241   0.33849   0.00000  Uiso   1.00
C94    C     0.28732   0.05994   0.35471   0.00000  Uiso   1.00
C95    C     0.31646   0.00984   0.33564   0.00000  Uiso   1.00
C96    C     0.29516   0.95679   0.35543   0.00000  Uiso   1.00
C97    C     0.27795   0.86020   0.37490   0.00000  Uiso   1.00
C98    C     0.24121   0.14906   0.31878   0.00000  Uiso   1.00
C99    C     0.23158   0.17390   0.26950   0.00000  Uiso   1.00
C100   C     0.17146   0.19587   0.25904   0.00000  Uiso   1.00
C101   C     0.08268   0.23769   0.22274   0.00000  Uiso   1.00
C102   C     0.31951   0.15473   0.38928   0.00000  Uiso   1.00
C103   C     0.37571   0.18435   0.39928   0.00000  Uiso   1.00
C104   C     0.38151   0.21111   0.44817   0.00000  Uiso   1.00
C105   C     0.41430   0.26173   0.52134   0.00000  Uiso   1.00
C106   C     0.21351   0.11729   0.40754   0.00000  Uiso   1.00
C107   C     0.23862   0.05716   0.39222   0.00000  Uiso   1.00
C108   C     0.21727   0.00417   0.41204   0.00000  Uiso   1.00
C109   C     0.24638   0.95400   0.39300   0.00000  Uiso   1.00
C110   C     0.19251   0.14628   0.35628   0.00000  Uiso   1.00
C111   C     0.13239   0.16823   0.34589   0.00000  Uiso   1.00
C112   C     0.12268   0.19309   0.29661   0.00000  Uiso   1.00
C113   C     0.27081   0.15195   0.42679   0.00000  Uiso   1.00
C114   C     0.27652   0.17868   0.47567   0.00000  Uiso   1.00
C115   C     0.33273   0.20833   0.48575   0.00000  Uiso   1.00
H116   H     0.34107   0.12458   0.30928   0.00000  Uiso   1.00
H117   H     0.35414   0.01201   0.30661   0.00000  Uiso   1.00
H118   H     0.26927   0.17605   0.24049   0.00000  Uiso   1.00
H119   H     0.41338   0.18649   0.37025   0.00000  Uiso   1.00
H120   H     0.34714   0.88597   0.32018   0.00000  Uiso   1.00
H121   H     0.16821   0.23187   0.18075   0.00000  Uiso   1.00
H122   H     0.47209   0.25390   0.45437   0.00000  Uiso   1.00
H123   H     0.17559   0.11513   0.43673   0.00000  Uiso   1.00
H124   H     0.17959   0.00203   0.44106   0.00000  Uiso   1.00
H125   H     0.09472   0.16607   0.37493   0.00000  Uiso   1.00
H126   H     0.23883   0.17652   0.50469   0.00000  Uiso   1.00
H127   H     0.20547   0.87788   0.42930   0.00000  Uiso   1.00
H128   H     0.02653   0.22378   0.28987   0.00000  Uiso   1.00
H129   H     0.33042   0.24581   0.56349   0.00000  Uiso   1.00
O130   O     0.28191   0.80770   0.37527   0.00000  Uiso   1.00
O131   O     0.04715   0.26152   0.19235   0.00000  Uiso   1.00
O132   O     0.44584   0.29041   0.55134   0.00000  Uiso   1.00
N133   N     0.31326   0.89959   0.34527   0.00000  Uiso   1.00
N134   N     0.14596   0.22298   0.21491   0.00000  Uiso   1.00
N135   N     0.43006   0.24358   0.47072   0.00000  Uiso   1.00
N136   N     0.23703   0.89523   0.40399   0.00000  Uiso   1.00
N137   N     0.06973   0.21862   0.27363   0.00000  Uiso   1.00
N138   N     0.35383   0.23923   0.52944   0.00000  Uiso   1.00
C139   C     0.80316   0.62241   0.33849   0.00000  Uiso   1.00
C140   C     0.78732   0.55994   0.35471   0.00000  Uiso   1.00
C141   C     0.81646   0.50984   0.33564   0.00000  Uiso   1.00
C142   C     0.79516   0.45679   0.35543   0.00000  Uiso   1.00
C143   C     0.77795   0.36020   0.37490   0.00000  Uiso   1.00
C144   C     0.74121   0.64906   0.31878   0.00000  Uiso   1.00
C145   C     0.73158   0.67390   0.26950   0.00000  Uiso   1.00
C146   C     0.67146   0.69587   0.25904   0.00000  Uiso   1.00
C147   C     0.58268   0.73769   0.22274   0.00000  Uiso   1.00
C148   C     0.81951   0.65473   0.38928   0.00000  Uiso   1.00
C149   C     0.87571   0.68435   0.39928   0.00000  Uiso   1.00
C150   C     0.88151   0.71111   0.44817   0.00000  Uiso   1.00
C151   C     0.91430   0.76173   0.52134   0.00000  Uiso   1.00
C152   C     0.71351   0.61729   0.40754   0.00000  Uiso   1.00
C153   C     0.73862   0.55716   0.39222   0.00000  Uiso   1.00
C154   C     0.71727   0.50417   0.41204   0.00000  Uiso   1.00
C155   C     0.74638   0.45400   0.39300   0.00000  Uiso   1.00
C156   C     0.69251   0.64628   0.35628   0.00000  Uiso   1.00
C157   C     0.63239   0.66823   0.34589   0.00000  Uiso   1.00
C158   C     0.62268   0.69309   0.29661   0.00000  Uiso   1.00
C159   C     0.77081   0.65195   0.42679   0.00000  Uiso   1.00
C160   C     0.77652   0.67868   0.47567   0.00000  Uiso   1.00
C161   C     0.83273   0.70833   0.48575   0.00000  Uiso   1.00
H162   H     0.84107   0.62458   0.30928   0.00000  Uiso   1.00
H163   H     0.85414   0.51201   0.30661   0.00000  Uiso   1.00
H164   H     0.76927   0.67605   0.24049   0.00000  Uiso   1.00
H165   H     0.91338   0.68649   0.37025   0.00000  Uiso   1.00
H166   H     0.84714   0.38597   0.32018   0.00000  Uiso   1.00
H167   H     0.66821   0.73187   0.18075   0.00000  Uiso   1.00
H168   H     0.97209   0.75390   0.45437   0.00000  Uiso   1.00
H169   H     0.67559   0.61513   0.43673   0.00000  Uiso   1.00
H170   H     0.67959   0.50203   0.44106   0.00000  Uiso   1.00
H171   H     0.59472   0.66607   0.37493   0.00000  Uiso   1.00
H172   H     0.73883   0.67652   0.50469   0.00000  Uiso   1.00
H173   H     0.70547   0.37788   0.42930   0.00000  Uiso   1.00
H174   H     0.52653   0.72378   0.28987   0.00000  Uiso   1.00
H175   H     0.83042   0.74581   0.56349   0.00000  Uiso   1.00
O176   O     0.78191   0.30770   0.37527   0.00000  Uiso   1.00
O177   O     0.54715   0.76152   0.19235   0.00000  Uiso   1.00
O178   O     0.94584   0.79041   0.55134   0.00000  Uiso   1.00
N179   N     0.81326   0.39959   0.34527   0.00000  Uiso   1.00
N180   N     0.64596   0.72298   0.21491   0.00000  Uiso   1.00
N181   N     0.93006   0.74358   0.47072   0.00000  Uiso   1.00
N182   N     0.73703   0.39523   0.40399   0.00000  Uiso   1.00
N183   N     0.56973   0.71862   0.27363   0.00000  Uiso   1.00
N184   N     0.85383   0.73923   0.52944   0.00000  Uiso   1.00
C185   C     0.80316   0.37759   0.66151   0.00000  Uiso   1.00
C186   C     0.78732   0.44006   0.64529   0.00000  Uiso   1.00
C187   C     0.81646   0.49016   0.66436   0.00000  Uiso   1.00
C188   C     0.79516   0.54321   0.64457   0.00000  Uiso   1.00
C189   C     0.77795   0.63980   0.62510   0.00000  Uiso   1.00
C190   C     0.74121   0.35094   0.68122   0.00000  Uiso   1.00
C191   C     0.73158   0.32610   0.73050   0.00000  Uiso   1.00
C192   C     0.67146   0.30413   0.74096   0.00000  Uiso   1.00
C193   C     0.58268   0.26231   0.77726   0.00000  Uiso   1.00
C194   C     0.81951   0.34527   0.61072   0.00000  Uiso   1.00
C195   C     0.87571   0.31565   0.60072   0.00000  Uiso   1.00
C196   C     0.88151   0.28889   0.55183   0.00000  Uiso   1.00
C197   C     0.91430   0.23827   0.47866   0.00000  Uiso   1.00
C198   C     0.71351   0.38271   0.59246   0.00000  Uiso   1.00
C199   C     0.73862   0.44284   0.60778   0.00000  Uiso   1.00
C200   C     0.71727   0.49583   0.58796   0.00000  Uiso   1.00
C201   C     0.74638   0.54600   0.60700   0.00000  Uiso   1.00
C202   C     0.69251   0.35372   0.64372   0.00000  Uiso   1.00
C203   C     0.63239   0.33177   0.65411   0.00000  Uiso   1.00
C204   C     0.62268   0.30691   0.70339   0.00000  Uiso   1.00
C205   C     0.77081   0.34805   0.57321   0.00000  Uiso   1.00
C206   C     0.77652   0.32132   0.52433   0.00000  Uiso   1.00
C207   C     0.83273   0.29167   0.51425   0.00000  Uiso   1.00
H208   H     0.84107   0.37542   0.69072   0.00000  Uiso   1.00
H209   H     0.85414   0.48799   0.69339   0.00000  Uiso   1.00
H210   H     0.76927   0.32395   0.75951   0.00000  Uiso   1.00
H211   H     0.91338   0.31351   0.62975   0.00000  Uiso   1.00
H212   H     0.84714   0.61403   0.67982   0.00000  Uiso   1.00
H213   H     0.66821   0.26813   0.81925   0.00000  Uiso   1.00
H214   H     0.97209   0.24610   0.54563   0.00000  Uiso   1.00
H215   H     0.67559   0.38487   0.56327   0.00000  Uiso   1.00
H216   H     0.67959   0.49797   0.55894   0.00000  Uiso   1.00
H217   H     0.59472   0.33393   0.62507   0.00000  Uiso   1.00
H218   H     0.73883   0.32348   0.49531   0.00000  Uiso   1.00
H219   H     0.70547   0.62212   0.57070   0.00000  Uiso   1.00
H220   H     0.52653   0.27622   0.71013   0.00000  Uiso   1.00
H221   H     0.83042   0.25419   0.43651   0.00000  Uiso   1.00
O222   O     0.78191   0.69230   0.62473   0.00000  Uiso   1.00
O223   O     0.54715   0.23848   0.80765   0.00000  Uiso   1.00
O224   O     0.94584   0.20959   0.44866   0.00000  Uiso   1.00
N225   N     0.81326   0.60041   0.65473   0.00000  Uiso   1.00
N226   N     0.64596   0.27702   0.78509   0.00000  Uiso   1.00
N227   N     0.93006   0.25642   0.52928   0.00000  Uiso   1.00
N228   N     0.73703   0.60477   0.59601   0.00000  Uiso   1.00
N229   N     0.56973   0.28138   0.72637   0.00000  Uiso   1.00
N230   N     0.85383   0.26077   0.47056   0.00000  Uiso   1.00
C231   C     0.30316   0.87759   0.66151   0.00000  Uiso   1.00
C232   C     0.28732   0.94006   0.64529   0.00000  Uiso   1.00
C233   C     0.31646   0.99016   0.66436   0.00000  Uiso   1.00
C234   C     0.29516   0.04321   0.64457   0.00000  Uiso   1.00
C235   C     0.27795   0.13980   0.62510   0.00000  Uiso   1.00
C236   C     0.24121   0.85094   0.68122   0.00000  Uiso   1.00
C237   C     0.23158   0.82610   0.73050   0.00000  Uiso   1.00
C238   C     0.17146   0.80413   0.74096   0.00000  Uiso   1.00
C239   C     0.08268   0.76231   0.77726   0.00000  Uiso   1.00
C240   C     0.31951   0.84527   0.61072   0.00000  Uiso   1.00
C241   C     0.37571   0.81565   0.60072   0.00000  Uiso   1.00
C242   C     0.38151   0.78889   0.55183   0.00000  Uiso   1.00
C243   C     0.41430   0.73827   0.47866   0.00000  Uiso   1.00
C244   C     0.21351   0.88271   0.59246   0.00000  Uiso   1.00
C245   C     0.23862   0.94284   0.60778   0.00000  Uiso   1.00
C246   C     0.21727   0.99583   0.58796   0.00000  Uiso   1.00
C247   C     0.24638   0.04600   0.60700   0.00000  Uiso   1.00
C248   C     0.19251   0.85372   0.64372   0.00000  Uiso   1.00
C249   C     0.13239   0.83177   0.65411   0.00000  Uiso   1.00
C250   C     0.12268   0.80691   0.70339   0.00000  Uiso   1.00
C251   C     0.27081   0.84805   0.57321   0.00000  Uiso   1.00
C252   C     0.27652   0.82132   0.52433   0.00000  Uiso   1.00
C253   C     0.33273   0.79167   0.51425   0.00000  Uiso   1.00
H254   H     0.34107   0.87542   0.69072   0.00000  Uiso   1.00
H255   H     0.35414   0.98799   0.69339   0.00000  Uiso   1.00
H256   H     0.26927   0.82395   0.75951   0.00000  Uiso   1.00
H257   H     0.41338   0.81351   0.62975   0.00000  Uiso   1.00
H258   H     0.34714   0.11403   0.67982   0.00000  Uiso   1.00
H259   H     0.16821   0.76813   0.81925   0.00000  Uiso   1.00
H260   H     0.47209   0.74610   0.54563   0.00000  Uiso   1.00
H261   H     0.17559   0.88487   0.56327   0.00000  Uiso   1.00
H262   H     0.17959   0.99797   0.55894   0.00000  Uiso   1.00
H263   H     0.09472   0.83393   0.62507   0.00000  Uiso   1.00
H264   H     0.23883   0.82348   0.49531   0.00000  Uiso   1.00
H265   H     0.20547   0.12212   0.57070   0.00000  Uiso   1.00
H266   H     0.02653   0.77622   0.71013   0.00000  Uiso   1.00
H267   H     0.33042   0.75419   0.43651   0.00000  Uiso   1.00
O268   O     0.28191   0.19230   0.62473   0.00000  Uiso   1.00
O269   O     0.04715   0.73848   0.80765   0.00000  Uiso   1.00
O270   O     0.44584   0.70959   0.44866   0.00000  Uiso   1.00
N271   N     0.31326   0.10041   0.65473   0.00000  Uiso   1.00
N272   N     0.14596   0.77702   0.78509   0.00000  Uiso   1.00
N273   N     0.43006   0.75642   0.52928   0.00000  Uiso   1.00
N274   N     0.23703   0.10477   0.59601   0.00000  Uiso   1.00
N275   N     0.06973   0.78138   0.72637   0.00000  Uiso   1.00
N276   N     0.35383   0.76077   0.47056   0.00000  Uiso   1.00
C277   C     0.69684   0.12241   0.66151   0.00000  Uiso   1.00
C278   C     0.71268   0.05994   0.64529   0.00000  Uiso   1.00
C279   C     0.68354   0.00984   0.66436   0.00000  Uiso   1.00
C280   C     0.70484   0.95679   0.64457   0.00000  Uiso   1.00
C281   C     0.72205   0.86020   0.62510   0.00000  Uiso   1.00
C282   C     0.75879   0.14906   0.68122   0.00000  Uiso   1.00
C283   C     0.76842   0.17390   0.73050   0.00000  Uiso   1.00
C284   C     0.82854   0.19587   0.74096   0.00000  Uiso   1.00
C285   C     0.91732   0.23769   0.77726   0.00000  Uiso   1.00
C286   C     0.68049   0.15473   0.61072   0.00000  Uiso   1.00
C287   C     0.62429   0.18435   0.60072   0.00000  Uiso   1.00
C288   C     0.61849   0.21111   0.55183   0.00000  Uiso   1.00
C289   C     0.58570   0.26173   0.47866   0.00000  Uiso   1.00
C290   C     0.78649   0.11729   0.59246   0.00000  Uiso   1.00
C291   C     0.76138   0.05716   0.60778   0.00000  Uiso   1.00
C292   C     0.78273   0.00417   0.58796   0.00000  Uiso   1.00
C293   C     0.75362   0.95400   0.60700   0.00000  Uiso   1.00
C294   C     0.80749   0.14628   0.64372   0.00000  Uiso   1.00
C295   C     0.86761   0.16823   0.65411   0.00000  Uiso   1.00
C296   C     0.87732   0.19309   0.70339   0.00000  Uiso   1.00
C297   C     0.72919   0.15195   0.57321   0.00000  Uiso   1.00
C298   C     0.72348   0.17868   0.52433   0.00000  Uiso   1.00
C299   C     0.66727   0.20833   0.51425   0.00000  Uiso   1.00
H300   H     0.65893   0.12458   0.69072   0.00000  Uiso   1.00
H301   H     0.64586   0.01201   0.69339   0.00000  Uiso   1.00
H302   H     0.73073   0.17605   0.75951   0.00000  Uiso   1.00
H303   H     0.58662   0.18649   0.62975   0.00000  Uiso   1.00
H304   H     0.65286   0.88597   0.67982   0.00000  Uiso   1.00
H305   H     0.83179   0.23187   0.81925   0.00000  Uiso   1.00
H306   H     0.52791   0.25390   0.54563   0.00000  Uiso   1.00
H307   H     0.82441   0.11513   0.56327   0.00000  Uiso   1.00
H308   H     0.82041   0.00203   0.55894   0.00000  Uiso   1.00
H309   H     0.90528   0.16607   0.62507   0.00000  Uiso   1.00
H310   H     0.76117   0.17652   0.49531   0.00000  Uiso   1.00
H311   H     0.79453   0.87788   0.57070   0.00000  Uiso   1.00
H312   H     0.97347   0.22378   0.71013   0.00000  Uiso   1.00
H313   H     0.66958   0.24581   0.43651   0.00000  Uiso   1.00
O314   O     0.71809   0.80770   0.62473   0.00000  Uiso   1.00
O315   O     0.95285   0.26152   0.80765   0.00000  Uiso   1.00
O316   O     0.55416   0.29041   0.44866   0.00000  Uiso   1.00
N317   N     0.68674   0.89959   0.65473   0.00000  Uiso   1.00
N318   N     0.85404   0.22298   0.78509   0.00000  Uiso   1.00
N319   N     0.56994   0.24358   0.52928   0.00000  Uiso   1.00
N320   N     0.76297   0.89523   0.59601   0.00000  Uiso   1.00
N321   N     0.93027   0.21862   0.72637   0.00000  Uiso   1.00
N322   N     0.64617   0.23923   0.47056   0.00000  Uiso   1.00
C323   C     0.19684   0.62241   0.66151   0.00000  Uiso   1.00
C324   C     0.21268   0.55994   0.64529   0.00000  Uiso   1.00
C325   C     0.18354   0.50984   0.66436   0.00000  Uiso   1.00
C326   C     0.20484   0.45679   0.64457   0.00000  Uiso   1.00
C327   C     0.22205   0.36020   0.62510   0.00000  Uiso   1.00
C328   C     0.25879   0.64906   0.68122   0.00000  Uiso   1.00
C329   C     0.26842   0.67390   0.73050   0.00000  Uiso   1.00
C330   C     0.32854   0.69587   0.74096   0.00000  Uiso   1.00
C331   C     0.41732   0.73769   0.77726   0.00000  Uiso   1.00
C332   C     0.18049   0.65473   0.61072   0.00000  Uiso   1.00
C333   C     0.12429   0.68435   0.60072   0.00000  Uiso   1.00
C334   C     0.11849   0.71111   0.55183   0.00000  Uiso   1.00
C335   C     0.08570   0.76173   0.47866   0.00000  Uiso   1.00
C336   C     0.28649   0.61729   0.59246   0.00000  Uiso   1.00
C337   C     0.26138   0.55716   0.60778   0.00000  Uiso   1.00
C338   C     0.28273   0.50417   0.58796   0.00000  Uiso   1.00
C339   C     0.25362   0.45400   0.60700   0.00000  Uiso   1.00
C340   C     0.30749   0.64628   0.64372   0.00000  Uiso   1.00
C341   C     0.36761   0.66823   0.65411   0.00000  Uiso   1.00
C342   C     0.37732   0.69309   0.70339   0.00000  Uiso   1.00
C343   C     0.22919   0.65195   0.57321   0.00000  Uiso   1.00
C344   C     0.22348   0.67868   0.52433   0.00000  Uiso   1.00
C345   C     0.16727   0.70833   0.51425   0.00000  Uiso   1.00
H346   H     0.15893   0.62458   0.69072   0.00000  Uiso   1.00
H347   H     0.14586   0.51201   0.69339   0.00000  Uiso   1.00
H348   H     0.23073   0.67605   0.75951   0.00000  Uiso   1.00
H349   H     0.08662   0.68649   0.62975   0.00000  Uiso   1.00
H350   H     0.15286   0.38597   0.67982   0.00000  Uiso   1.00
H351   H     0.33179   0.73187   0.81925   0.00000  Uiso   1.00
H352   H     0.02791   0.75390   0.54563   0.00000  Uiso   1.00
H353   H     0.32441   0.61513   0.56327   0.00000  Uiso   1.00
H354   H     0.32041   0.50203   0.55894   0.00000  Uiso   1.00
H355   H     0.40528   0.66607   0.62507   0.00000  Uiso   1.00
H356   H     0.26117   0.67652   0.49531   0.00000  Uiso   1.00
H357   H     0.29453   0.37788   0.57070   0.00000  Uiso   1.00
H358   H     0.47347   0.72378   0.71013   0.00000  Uiso   1.00
H359   H     0.16958   0.74581   0.43651   0.00000  Uiso   1.00
O360   O     0.21809   0.30770   0.62473   0.00000  Uiso   1.00
O361   O     0.45285   0.76152   0.80765   0.00000  Uiso   1.00
O362   O     0.05416   0.79041   0.44866   0.00000  Uiso   1.00
N363   N     0.18674   0.39959   0.65473   0.00000  Uiso   1.00
N364   N     0.35404   0.72298   0.78509   0.00000  Uiso   1.00
N365   N     0.06994   0.74358   0.52928   0.00000  Uiso   1.00
N366   N     0.26297   0.39523   0.59601   0.00000  Uiso   1.00
N367   N     0.43027   0.71862   0.72637   0.00000  Uiso   1.00
N368   N     0.14617   0.73923   0.47056   0.00000  Uiso   1.00
C369   C     0.80316   0.12241   0.16151   0.00000  Uiso   1.00
C370   C     0.78732   0.05994   0.14529   0.00000  Uiso   1.00
C371   C     0.81646   0.00984   0.16436   0.00000  Uiso   1.00
C372   C     0.79516   0.95679   0.14457   0.00000  Uiso   1.00
C373   C     0.77795   0.86020   0.12510   0.00000  Uiso   1.00
C374   C     0.74121   0.14906   0.18122   0.00000  Uiso   1.00
C375   C     0.73158   0.17390   0.23050   0.00000  Uiso   1.00
C376   C     0.67146   0.19587   0.24096   0.00000  Uiso   1.00
C377   C     0.58268   0.23769   0.27726   0.00000  Uiso   1.00
C378   C     0.81951   0.15473   0.11072   0.00000  Uiso   1.00
C379   C     0.87571   0.18435   0.10072   0.00000  Uiso   1.00
C380   C     0.88151   0.21111   0.05183   0.00000  Uiso   1.00
C381   C     0.91430   0.26173   0.97866   0.00000  Uiso   1.00
C382   C     0.71351   0.11729   0.09246   0.00000  Uiso   1.00
C383   C     0.73862   0.05716   0.10778   0.00000  Uiso   1.00
C384   C     0.71727   0.00417   0.08796   0.00000  Uiso   1.00
C385   C     0.74638   0.95400   0.10700   0.00000  Uiso   1.00
C386   C     0.69251   0.14628   0.14372   0.00000  Uiso   1.00
C387   C     0.63239   0.16823   0.15411   0.00000  Uiso   1.00
C388   C     0.62268   0.19309   0.20339   0.00000  Uiso   1.00
C389   C     0.77081   0.15195   0.07321   0.00000  Uiso   1.00
C390   C     0.77652   0.17868   0.02433   0.00000  Uiso   1.00
C391   C     0.83273   0.20833   0.01425   0.00000  Uiso   1.00
H392   H     0.84107   0.12458   0.19072   0.00000  Uiso   1.00
H393   H     0.85414   0.01201   0.19339   0.00000  Uiso   1.00
H394   H     0.76927   0.17605   0.25951   0.00000  Uiso   1.00
H395   H     0.91338   0.18649   0.12975   0.00000  Uiso   1.00
H396   H     0.84714   0.88597   0.17982   0.00000  Uiso   1.00
H397   H     0.66821   0.23187   0.31925   0.00000  Uiso   1.00
H398   H     0.97209   0.25390   0.04563   0.00000  Uiso   1.00
H399   H     0.67559   0.11513   0.06327   0.00000  Uiso   1.00
H400   H     0.67959   0.00203   0.05894   0.00000  Uiso   1.00
H401   H     0.59472   0.16607   0.12507   0.00000  Uiso   1.00
H402   H     0.73883   0.17652   0.99531   0.00000  Uiso   1.00
H403   H     0.70547   0.87788   0.07070   0.00000  Uiso   1.00
H404   H     0.52653   0.22378   0.21013   0.00000  Uiso   1.00
H405   H     0.83042   0.24581   0.93651   0.00000  Uiso   1.00
O406   O     0.78191   0.80770   0.12473   0.00000  Uiso   1.00
O407   O     0.54715   0.26152   0.30765   0.00000  Uiso   1.00
O408   O     0.94584   0.29041   0.94866   0.00000  Uiso   1.00
N409   N     0.81326   0.89959   0.15473   0.00000  Uiso   1.00
N410   N     0.64596   0.22298   0.28509   0.00000  Uiso   1.00
N411   N     0.93006   0.24358   0.02928   0.00000  Uiso   1.00
N412   N     0.73703   0.89523   0.09601   0.00000  Uiso   1.00
N413   N     0.56973   0.21862   0.22637   0.00000  Uiso   1.00
N414   N     0.85383   0.23923   0.97056   0.00000  Uiso   1.00
C415   C     0.30316   0.62241   0.16151   0.00000  Uiso   1.00
C416   C     0.28732   0.55994   0.14529   0.00000  Uiso   1.00
C417   C     0.31646   0.50984   0.16436   0.00000  Uiso   1.00
C418   C     0.29516   0.45679   0.14457   0.00000  Uiso   1.00
C419   C     0.27795   0.36020   0.12510   0.00000  Uiso   1.00
C420   C     0.24121   0.64906   0.18122   0.00000  Uiso   1.00
C421   C     0.23158   0.67390   0.23050   0.00000  Uiso   1.00
C422   C     0.17146   0.69587   0.24096   0.00000  Uiso   1.00
C423   C     0.08268   0.73769   0.27726   0.00000  Uiso   1.00
C424   C     0.31951   0.65473   0.11072   0.00000  Uiso   1.00
C425   C     0.37571   0.68435   0.10072   0.00000  Uiso   1.00
C426   C     0.38151   0.71111   0.05183   0.00000  Uiso   1.00
C427   C     0.41430   0.76173   0.97866   0.00000  Uiso   1.00
C428   C     0.21351   0.61729   0.09246   0.00000  Uiso   1.00
C429   C     0.23862   0.55716   0.10778   0.00000  Uiso   1.00
C430   C     0.21727   0.50417   0.08796   0.00000  Uiso   1.00
C431   C     0.24638   0.45400   0.10700   0.00000  Uiso   1.00
C432   C     0.19251   0.64628   0.14372   0.00000  Uiso   1.00
C433   C     0.13239   0.66823   0.15411   0.00000  Uiso   1.00
C434   C     0.12268   0.69309   0.20339   0.00000  Uiso   1.00
C435   C     0.27081   0.65195   0.07321   0.00000  Uiso   1.00
C436   C     0.27652   0.67868   0.02433   0.00000  Uiso   1.00
C437   C     0.33273   0.70833   0.01425   0.00000  Uiso   1.00
H438   H     0.34107   0.62458   0.19072   0.00000  Uiso   1.00
H439   H     0.35414   0.51201   0.19339   0.00000  Uiso   1.00
H440   H     0.26927   0.67605   0.25951   0.00000  Uiso   1.00
H441   H     0.41338   0.68649   0.12975   0.00000  Uiso   1.00
H442   H     0.34714   0.38597   0.17982   0.00000  Uiso   1.00
H443   H     0.16821   0.73187   0.31925   0.00000  Uiso   1.00
H444   H     0.47209   0.75390   0.04563   0.00000  Uiso   1.00
H445   H     0.17559   0.61513   0.06327   0.00000  Uiso   1.00
H446   H     0.17959   0.50203   0.05894   0.00000  Uiso   1.00
H447   H     0.09472   0.66607   0.12507   0.00000  Uiso   1.00
H448   H     0.23883   0.67652   0.99531   0.00000  Uiso   1.00
H449   H     0.20547   0.37788   0.07070   0.00000  Uiso   1.00
H450   H     0.02653   0.72378   0.21013   0.00000  Uiso   1.00
H451   H     0.33042   0.74581   0.93651   0.00000  Uiso   1.00
O452   O     0.28191   0.30770   0.12473   0.00000  Uiso   1.00
O453   O     0.04715   0.76152   0.30765   0.00000  Uiso   1.00
O454   O     0.44584   0.79041   0.94866   0.00000  Uiso   1.00
N455   N     0.31326   0.39959   0.15473   0.00000  Uiso   1.00
N456   N     0.14596   0.72298   0.28509   0.00000  Uiso   1.00
N457   N     0.43006   0.74358   0.02928   0.00000  Uiso   1.00
N458   N     0.23703   0.39523   0.09601   0.00000  Uiso   1.00
N459   N     0.06973   0.71862   0.22637   0.00000  Uiso   1.00
N460   N     0.35383   0.73923   0.97056   0.00000  Uiso   1.00
C461   C     0.69684   0.37759   0.16151   0.00000  Uiso   1.00
C462   C     0.71268   0.44006   0.14529   0.00000  Uiso   1.00
C463   C     0.68354   0.49016   0.16436   0.00000  Uiso   1.00
C464   C     0.70484   0.54321   0.14457   0.00000  Uiso   1.00
C465   C     0.72205   0.63980   0.12510   0.00000  Uiso   1.00
C466   C     0.75879   0.35094   0.18122   0.00000  Uiso   1.00
C467   C     0.76842   0.32610   0.23050   0.00000  Uiso   1.00
C468   C     0.82854   0.30413   0.24096   0.00000  Uiso   1.00
C469   C     0.91732   0.26231   0.27726   0.00000  Uiso   1.00
C470   C     0.68049   0.34527   0.11072   0.00000  Uiso   1.00
C471   C     0.62429   0.31565   0.10072   0.00000  Uiso   1.00
C472   C     0.61849   0.28889   0.05183   0.00000  Uiso   1.00
C473   C     0.58570   0.23827   0.97866   0.00000  Uiso   1.00
C474   C     0.78649   0.38271   0.09246   0.00000  Uiso   1.00
C475   C     0.76138   0.44284   0.10778   0.00000  Uiso   1.00
C476   C     0.78273   0.49583   0.08796   0.00000  Uiso   1.00
C477   C     0.75362   0.54600   0.10700   0.00000  Uiso   1.00
C478   C     0.80749   0.35372   0.14372   0.00000  Uiso   1.00
C479   C     0.86761   0.33177   0.15411   0.00000  Uiso   1.00
C480   C     0.87732   0.30691   0.20339   0.00000  Uiso   1.00
C481   C     0.72919   0.34805   0.07321   0.00000  Uiso   1.00
C482   C     0.72348   0.32132   0.02433   0.00000  Uiso   1.00
C483   C     0.66727   0.29167   0.01425   0.00000  Uiso   1.00
H484   H     0.65893   0.37542   0.19072   0.00000  Uiso   1.00
H485   H     0.64586   0.48799   0.19339   0.00000  Uiso   1.00
H486   H     0.73073   0.32395   0.25951   0.00000  Uiso   1.00
H487   H     0.58662   0.31351   0.12975   0.00000  Uiso   1.00
H488   H     0.65286   0.61403   0.17982   0.00000  Uiso   1.00
H489   H     0.83179   0.26813   0.31925   0.00000  Uiso   1.00
H490   H     0.52791   0.24610   0.04563   0.00000  Uiso   1.00
H491   H     0.82441   0.38487   0.06327   0.00000  Uiso   1.00
H492   H     0.82041   0.49797   0.05894   0.00000  Uiso   1.00
H493   H     0.90528   0.33393   0.12507   0.00000  Uiso   1.00
H494   H     0.76117   0.32348   0.99531   0.00000  Uiso   1.00
H495   H     0.79453   0.62212   0.07070   0.00000  Uiso   1.00
H496   H     0.97347   0.27622   0.21013   0.00000  Uiso   1.00
H497   H     0.66958   0.25419   0.93651   0.00000  Uiso   1.00
O498   O     0.71809   0.69230   0.12473   0.00000  Uiso   1.00
O499   O     0.95285   0.23848   0.30765   0.00000  Uiso   1.00
O500   O     0.55416   0.20959   0.94866   0.00000  Uiso   1.00
N501   N     0.68674   0.60041   0.15473   0.00000  Uiso   1.00
N502   N     0.85404   0.27702   0.28509   0.00000  Uiso   1.00
N503   N     0.56994   0.25642   0.02928   0.00000  Uiso   1.00
N504   N     0.76297   0.60477   0.09601   0.00000  Uiso   1.00
N505   N     0.93027   0.28138   0.22637   0.00000  Uiso   1.00
N506   N     0.64617   0.26077   0.97056   0.00000  Uiso   1.00
C507   C     0.19684   0.87759   0.16151   0.00000  Uiso   1.00
C508   C     0.21268   0.94006   0.14529   0.00000  Uiso   1.00
C509   C     0.18354   0.99016   0.16436   0.00000  Uiso   1.00
C510   C     0.20484   0.04321   0.14457   0.00000  Uiso   1.00
C511   C     0.22205   0.13980   0.12510   0.00000  Uiso   1.00
C512   C     0.25879   0.85094   0.18122   0.00000  Uiso   1.00
C513   C     0.26842   0.82610   0.23050   0.00000  Uiso   1.00
C514   C     0.32854   0.80413   0.24096   0.00000  Uiso   1.00
C515   C     0.41732   0.76231   0.27726   0.00000  Uiso   1.00
C516   C     0.18049   0.84527   0.11072   0.00000  Uiso   1.00
C517   C     0.12429   0.81565   0.10072   0.00000  Uiso   1.00
C518   C     0.11849   0.78889   0.05183   0.00000  Uiso   1.00
C519   C     0.08570   0.73827   0.97866   0.00000  Uiso   1.00
C520   C     0.28649   0.88271   0.09246   0.00000  Uiso   1.00
C521   C     0.26138   0.94284   0.10778   0.00000  Uiso   1.00
C522   C     0.28273   0.99583   0.08796   0.00000  Uiso   1.00
C523   C     0.25362   0.04600   0.10700   0.00000  Uiso   1.00
C524   C     0.30749   0.85372   0.14372   0.00000  Uiso   1.00
C525   C     0.36761   0.83177   0.15411   0.00000  Uiso   1.00
C526   C     0.37732   0.80691   0.20339   0.00000  Uiso   1.00
C527   C     0.22919   0.84805   0.07321   0.00000  Uiso   1.00
C528   C     0.22348   0.82132   0.02433   0.00000  Uiso   1.00
C529   C     0.16727   0.79167   0.01425   0.00000  Uiso   1.00
H530   H     0.15893   0.87542   0.19072   0.00000  Uiso   1.00
H531   H     0.14586   0.98799   0.19339   0.00000  Uiso   1.00
H532   H     0.23073   0.82395   0.25951   0.00000  Uiso   1.00
H533   H     0.08662   0.81351   0.12975   0.00000  Uiso   1.00
H534   H     0.15286   0.11403   0.17982   0.00000  Uiso   1.00
H535   H     0.33179   0.76813   0.31925   0.00000  Uiso   1.00
H536   H     0.02791   0.74610   0.04563   0.00000  Uiso   1.00
H537   H     0.32441   0.88487   0.06327   0.00000  Uiso   1.00
H538   H     0.32041   0.99797   0.05894   0.00000  Uiso   1.00
H539   H     0.40528   0.83393   0.12507   0.00000  Uiso   1.00
H540   H     0.26117   0.82348   0.99531   0.00000  Uiso   1.00
H541   H     0.29453   0.12212   0.07070   0.00000  Uiso   1.00
H542   H     0.47347   0.77622   0.21013   0.00000  Uiso   1.00
H543   H     0.16958   0.75419   0.93651   0.00000  Uiso   1.00
O544   O     0.21809   0.19230   0.12473   0.00000  Uiso   1.00
O545   O     0.45285   0.73848   0.30765   0.00000  Uiso   1.00
O546   O     0.05416   0.70959   0.94866   0.00000  Uiso   1.00
N547   N     0.18674   0.10041   0.15473   0.00000  Uiso   1.00
N548   N     0.35404   0.77702   0.28509   0.00000  Uiso   1.00
N549   N     0.06994   0.75642   0.02928   0.00000  Uiso   1.00
N550   N     0.26297   0.10477   0.09601   0.00000  Uiso   1.00
N551   N     0.43027   0.78138   0.22637   0.00000  Uiso   1.00
N552   N     0.14617   0.76077   0.97056   0.00000  Uiso   1.00
C553   C     0.19684   0.12241   0.83849   0.00000  Uiso   1.00
C554   C     0.21268   0.05994   0.85471   0.00000  Uiso   1.00
C555   C     0.18354   0.00984   0.83564   0.00000  Uiso   1.00
C556   C     0.20484   0.95679   0.85543   0.00000  Uiso   1.00
C557   C     0.22205   0.86020   0.87490   0.00000  Uiso   1.00
C558   C     0.25879   0.14906   0.81878   0.00000  Uiso   1.00
C559   C     0.26842   0.17390   0.76950   0.00000  Uiso   1.00
C560   C     0.32854   0.19587   0.75904   0.00000  Uiso   1.00
C561   C     0.41732   0.23769   0.72274   0.00000  Uiso   1.00
C562   C     0.18049   0.15473   0.88928   0.00000  Uiso   1.00
C563   C     0.12429   0.18435   0.89928   0.00000  Uiso   1.00
C564   C     0.11849   0.21111   0.94817   0.00000  Uiso   1.00
C565   C     0.08570   0.26173   0.02134   0.00000  Uiso   1.00
C566   C     0.28649   0.11729   0.90754   0.00000  Uiso   1.00
C567   C     0.26138   0.05716   0.89222   0.00000  Uiso   1.00
C568   C     0.28273   0.00417   0.91204   0.00000  Uiso   1.00
C569   C     0.25362   0.95400   0.89300   0.00000  Uiso   1.00
C570   C     0.30749   0.14628   0.85628   0.00000  Uiso   1.00
C571   C     0.36761   0.16823   0.84589   0.00000  Uiso   1.00
C572   C     0.37732   0.19309   0.79661   0.00000  Uiso   1.00
C573   C     0.22919   0.15195   0.92679   0.00000  Uiso   1.00
C574   C     0.22348   0.17868   0.97567   0.00000  Uiso   1.00
C575   C     0.16727   0.20833   0.98575   0.00000  Uiso   1.00
H576   H     0.15893   0.12458   0.80928   0.00000  Uiso   1.00
H577   H     0.14586   0.01201   0.80661   0.00000  Uiso   1.00
H578   H     0.23073   0.17605   0.74049   0.00000  Uiso   1.00
H579   H     0.08662   0.18649   0.87025   0.00000  Uiso   1.00
H580   H     0.15286   0.88597   0.82018   0.00000  Uiso   1.00
H581   H     0.33179   0.23187   0.68075   0.00000  Uiso   1.00
H582   H     0.02791   0.25390   0.95437   0.00000  Uiso   1.00
H583   H     0.32441   0.11513   0.93673   0.00000  Uiso   1.00
H584   H     0.32041   0.00203   0.94106   0.00000  Uiso   1.00
H585   H     0.40528   0.16607   0.87493   0.00000  Uiso   1.00
H586   H     0.26117   0.17652   0.00469   0.00000  Uiso   1.00
H587   H     0.29453   0.87788   0.92930   0.00000  Uiso   1.00
H588   H     0.47347   0.22378   0.78987   0.00000  Uiso   1.00
H589   H     0.16958   0.24581   0.06349   0.00000  Uiso   1.00
O590   O     0.21809   0.80770   0.87527   0.00000  Uiso   1.00
O591   O     0.45285   0.26152   0.69235   0.00000  Uiso   1.00
O592   O     0.05416   0.29041   0.05134   0.00000  Uiso   1.00
N593   N     0.18674   0.89959   0.84527   0.00000  Uiso   1.00
N594   N     0.35404   0.22298   0.71491   0.00000  Uiso   1.00
N595   N     0.06994   0.24358   0.97072   0.00000  Uiso   1.00
N596   N     0.26297   0.89523   0.90399   0.00000  Uiso   1.00
N597   N     0.43027   0.21862   0.77363   0.00000  Uiso   1.00
N598   N     0.14617   0.23923   0.02944   0.00000  Uiso   1.00
C599   C     0.69684   0.62241   0.83849   0.00000  Uiso   1.00
C600   C     0.71268   0.55994   0.85471   0.00000  Uiso   1.00
C601   C     0.68354   0.50984   0.83564   0.00000  Uiso   1.00
C602   C     0.70484   0.45679   0.85543   0.00000  Uiso   1.00
C603   C     0.72205   0.36020   0.87490   0.00000  Uiso   1.00
C604   C     0.75879   0.64906   0.81878   0.00000  Uiso   1.00
C605   C     0.76842   0.67390   0.76950   0.00000  Uiso   1.00
C606   C     0.82854   0.69587   0.75904   0.00000  Uiso   1.00
C607   C     0.91732   0.73769   0.72274   0.00000  Uiso   1.00
C608   C     0.68049   0.65473   0.88928   0.00000  Uiso   1.00
C609   C     0.62429   0.68435   0.89928   0.00000  Uiso   1.00
C610   C     0.61849   0.71111   0.94817   0.00000  Uiso   1.00
C611   C     0.58570   0.76173   0.02134   0.00000  Uiso   1.00
C612   C     0.78649   0.61729   0.90754   0.00000  Uiso   1.00
C613   C     0.76138   0.55716   0.89222   0.00000  Uiso   1.00
C614   C     0.78273   0.50417   0.91204   0.00000  Uiso   1.00
C615   C     0.75362   0.45400   0.89300   0.00000  Uiso   1.00
C616   C     0.80749   0.64628   0.85628   0.00000  Uiso   1.00
C617   C     0.86761   0.66823   0.84589   0.00000  Uiso   1.00
C618   C     0.87732   0.69309   0.79661   0.00000  Uiso   1.00
C619   C     0.72919   0.65195   0.92679   0.00000  Uiso   1.00
C620   C     0.72348   0.67868   0.97567   0.00000  Uiso   1.00
C621   C     0.66727   0.70833   0.98575   0.00000  Uiso   1.00
H622   H     0.65893   0.62458   0.80928   0.00000  Uiso   1.00
H623   H     0.64586   0.51201   0.80661   0.00000  Uiso   1.00
H624   H     0.73073   0.67605   0.74049   0.00000  Uiso   1.00
H625   H     0.58662   0.68649   0.87025   0.00000  Uiso   1.00
H626   H     0.65286   0.38597   0.82018   0.00000  Uiso   1.00
H627   H     0.83179   0.73187   0.68075   0.00000  Uiso   1.00
H628   H     0.52791   0.75390   0.95437   0.00000  Uiso   1.00
H629   H     0.82441   0.61513   0.93673   0.00000  Uiso   1.00
H630   H     0.82041   0.50203   0.94106   0.00000  Uiso   1.00
H631   H     0.90528   0.66607   0.87493   0.00000  Uiso   1.00
H632   H     0.76117   0.67652   0.00469   0.00000  Uiso   1.00
H633   H     0.79453   0.37788   0.92930   0.00000  Uiso   1.00
H634   H     0.97347   0.72378   0.78987   0.00000  Uiso   1.00
H635   H     0.66958   0.74581   0.06349   0.00000  Uiso   1.00
O636   O     0.71809   0.30770   0.87527   0.00000  Uiso   1.00
O637   O     0.95285   0.76152   0.69235   0.00000  Uiso   1.00
O638   O     0.55416   0.79041   0.05134   0.00000  Uiso   1.00
N639   N     0.68674   0.39959   0.84527   0.00000  Uiso   1.00
N640   N     0.85404   0.72298   0.71491   0.00000  Uiso   1.00
N641   N     0.56994   0.74358   0.97072   0.00000  Uiso   1.00
N642   N     0.76297   0.39523   0.90399   0.00000  Uiso   1.00
N643   N     0.93027   0.71862   0.77363   0.00000  Uiso   1.00
N644   N     0.64617   0.73923   0.02944   0.00000  Uiso   1.00
C645   C     0.30316   0.37759   0.83849   0.00000  Uiso   1.00
C646   C     0.28732   0.44006   0.85471   0.00000  Uiso   1.00
C647   C     0.31646   0.49016   0.83564   0.00000  Uiso   1.00
C648   C     0.29516   0.54321   0.85543   0.00000  Uiso   1.00
C649   C     0.27795   0.63980   0.87490   0.00000  Uiso   1.00
C650   C     0.24121   0.35094   0.81878   0.00000  Uiso   1.00
C651   C     0.23158   0.32610   0.76950   0.00000  Uiso   1.00
C652   C     0.17146   0.30413   0.75904   0.00000  Uiso   1.00
C653   C     0.08268   0.26231   0.72274   0.00000  Uiso   1.00
C654   C     0.31951   0.34527   0.88928   0.00000  Uiso   1.00
C655   C     0.37571   0.31565   0.89928   0.00000  Uiso   1.00
C656   C     0.38151   0.28889   0.94817   0.00000  Uiso   1.00
C657   C     0.41430   0.23827   0.02134   0.00000  Uiso   1.00
C658   C     0.21351   0.38271   0.90754   0.00000  Uiso   1.00
C659   C     0.23862   0.44284   0.89222   0.00000  Uiso   1.00
C660   C     0.21727   0.49583   0.91204   0.00000  Uiso   1.00
C661   C     0.24638   0.54600   0.89300   0.00000  Uiso   1.00
C662   C     0.19251   0.35372   0.85628   0.00000  Uiso   1.00
C663   C     0.13239   0.33177   0.84589   0.00000  Uiso   1.00
C664   C     0.12268   0.30691   0.79661   0.00000  Uiso   1.00
C665   C     0.27081   0.34805   0.92679   0.00000  Uiso   1.00
C666   C     0.27652   0.32132   0.97567   0.00000  Uiso   1.00
C667   C     0.33273   0.29167   0.98575   0.00000  Uiso   1.00
H668   H     0.34107   0.37542   0.80928   0.00000  Uiso   1.00
H669   H     0.35414   0.48799   0.80661   0.00000  Uiso   1.00
H670   H     0.26927   0.32395   0.74049   0.00000  Uiso   1.00
H671   H     0.41338   0.31351   0.87025   0.00000  Uiso   1.00
H672   H     0.34714   0.61403   0.82018   0.00000  Uiso   1.00
H673   H     0.16821   0.26813   0.68075   0.00000  Uiso   1.00
H674   H     0.47209   0.24610   0.95437   0.00000  Uiso   1.00
H675   H     0.17559   0.38487   0.93673   0.00000  Uiso   1.00
H676   H     0.17959   0.49797   0.94106   0.00000  Uiso   1.00
H677   H     0.09472   0.33393   0.87493   0.00000  Uiso   1.00
H678   H     0.23883   0.32348   0.00469   0.00000  Uiso   1.00
H679   H     0.20547   0.62212   0.92930   0.00000  Uiso   1.00
H680   H     0.02653   0.27622   0.78987   0.00000  Uiso   1.00
H681   H     0.33042   0.25419   0.06349   0.00000  Uiso   1.00
O682   O     0.28191   0.69230   0.87527   0.00000  Uiso   1.00
O683   O     0.04715   0.23848   0.69235   0.00000  Uiso   1.00
O684   O     0.44584   0.20959   0.05134   0.00000  Uiso   1.00
N685   N     0.31326   0.60041   0.84527   0.00000  Uiso   1.00
N686   N     0.14596   0.27702   0.71491   0.00000  Uiso   1.00
N687   N     0.43006   0.25642   0.97072   0.00000  Uiso   1.00
N688   N     0.23703   0.60477   0.90399   0.00000  Uiso   1.00
N689   N     0.06973   0.28138   0.77363   0.00000  Uiso   1.00
N690   N     0.35383   0.26077   0.02944   0.00000  Uiso   1.00
C691   C     0.80316   0.87759   0.83849   0.00000  Uiso   1.00
C692   C     0.78732   0.94006   0.85471   0.00000  Uiso   1.00
C693   C     0.81646   0.99016   0.83564   0.00000  Uiso   1.00
C694   C     0.79516   0.04321   0.85543   0.00000  Uiso   1.00
C695   C     0.77795   0.13980   0.87490   0.00000  Uiso   1.00
C696   C     0.74121   0.85094   0.81878   0.00000  Uiso   1.00
C697   C     0.73158   0.82610   0.76950   0.00000  Uiso   1.00
C698   C     0.67146   0.80413   0.75904   0.00000  Uiso   1.00
C699   C     0.58268   0.76231   0.72274   0.00000  Uiso   1.00
C700   C     0.81951   0.84527   0.88928   0.00000  Uiso   1.00
C701   C     0.87571   0.81565   0.89928   0.00000  Uiso   1.00
C702   C     0.88151   0.78889   0.94817   0.00000  Uiso   1.00
C703   C     0.91430   0.73827   0.02134   0.00000  Uiso   1.00
C704   C     0.71351   0.88271   0.90754   0.00000  Uiso   1.00
C705   C     0.73862   0.94284   0.89222   0.00000  Uiso   1.00
C706   C     0.71727   0.99583   0.91204   0.00000  Uiso   1.00
C707   C     0.74638   0.04600   0.89300   0.00000  Uiso   1.00
C708   C     0.69251   0.85372   0.85628   0.00000  Uiso   1.00
C709   C     0.63239   0.83177   0.84589   0.00000  Uiso   1.00
C710   C     0.62268   0.80691   0.79661   0.00000  Uiso   1.00
C711   C     0.77081   0.84805   0.92679   0.00000  Uiso   1.00
C712   C     0.77652   0.82132   0.97567   0.00000  Uiso   1.00
C713   C     0.83273   0.79167   0.98575   0.00000  Uiso   1.00
H714   H     0.84107   0.87542   0.80928   0.00000  Uiso   1.00
H715   H     0.85414   0.98799   0.80661   0.00000  Uiso   1.00
H716   H     0.76927   0.82395   0.74049   0.00000  Uiso   1.00
H717   H     0.91338   0.81351   0.87025   0.00000  Uiso   1.00
H718   H     0.84714   0.11403   0.82018   0.00000  Uiso   1.00
H719   H     0.66821   0.76813   0.68075   0.00000  Uiso   1.00
H720   H     0.97209   0.74610   0.95437   0.00000  Uiso   1.00
H721   H     0.67559   0.88487   0.93673   0.00000  Uiso   1.00
H722   H     0.67959   0.99797   0.94106   0.00000  Uiso   1.00
H723   H     0.59472   0.83393   0.87493   0.00000  Uiso   1.00
H724   H     0.73883   0.82348   0.00469   0.00000  Uiso   1.00
H725   H     0.70547   0.12212   0.92930   0.00000  Uiso   1.00
H726   H     0.52653   0.77622   0.78987   0.00000  Uiso   1.00
H727   H     0.83042   0.75419   0.06349   0.00000  Uiso   1.00
O728   O     0.78191   0.19230   0.87527   0.00000  Uiso   1.00
O729   O     0.54715   0.73848   0.69235   0.00000  Uiso   1.00
O730   O     0.94584   0.70959   0.05134   0.00000  Uiso   1.00
N731   N     0.81326   0.10041   0.84527   0.00000  Uiso   1.00
N732   N     0.64596   0.77702   0.71491   0.00000  Uiso   1.00
N733   N     0.93006   0.75642   0.97072   0.00000  Uiso   1.00
N734   N     0.73703   0.10477   0.90399   0.00000  Uiso   1.00
N735   N     0.56973   0.78138   0.77363   0.00000  Uiso   1.00
N736   N     0.85383   0.76077   0.02944   0.00000  Uiso   1.00
