data_job_02773
_audit_creation_date              2018-12-19
_audit_creation_method            'Materials Studio'
_symmetry_space_group_name_H-M    'P1'
_symmetry_Int_Tables_number       1
_symmetry_cell_setting            triclinic
loop_
_symmetry_equiv_pos_as_xyz
  x,y,z
_cell_length_a                    37.4694
_cell_length_b                    10.2355
_cell_length_c                    28.7951
_cell_angle_alpha                 90.0000
_cell_angle_beta                  90.0000
_cell_angle_gamma                 90.0000
loop_
_atom_site_label
_atom_site_type_symbol
_atom_site_fract_x
_atom_site_fract_y
_atom_site_fract_z
_atom_site_U_iso_or_equiv
_atom_site_adp_type
_atom_site_occupancy
C1     C     0.59266   0.43204   0.34212   0.00000  Uiso   1.00
C2     C     0.58332   0.57703   0.34273   0.00000  Uiso   1.00
C3     C     0.56161   0.64070   0.31091   0.00000  Uiso   1.00
C4     C     0.55634   0.77368   0.31748   0.00000  Uiso   1.00
C5     C     0.53942   0.98867   0.31277   0.00000  Uiso   1.00
C6     C     0.63331   0.42490   0.34109   0.00000  Uiso   1.00
C7     C     0.65363   0.36065   0.30790   0.00000  Uiso   1.00
C8     C     0.69045   0.36557   0.31309   0.00000  Uiso   1.00
C9     C     0.75114   0.34430   0.30586   0.00000  Uiso   1.00
C10    C     0.58141   0.37845   0.38932   0.00000  Uiso   1.00
C11    C     0.55811   0.27510   0.39667   0.00000  Uiso   1.00
C12    C     0.55124   0.24089   0.44246   0.00000  Uiso   1.00
C13    C     0.53136   0.14748   0.51010   0.00000  Uiso   1.00
C14    C     0.62191   0.55500   0.41038   0.00000  Uiso   1.00
C15    C     0.59920   0.64381   0.37981   0.00000  Uiso   1.00
C16    C     0.59397   0.77674   0.38643   0.00000  Uiso   1.00
C17    C     0.57225   0.84059   0.35462   0.00000  Uiso   1.00
C18    C     0.64919   0.49169   0.37817   0.00000  Uiso   1.00
C19    C     0.68599   0.49669   0.38341   0.00000  Uiso   1.00
C20    C     0.70636   0.43247   0.35023   0.00000  Uiso   1.00
C21    C     0.59730   0.44523   0.42639   0.00000  Uiso   1.00
C22    C     0.59047   0.41116   0.47218   0.00000  Uiso   1.00
C23    C     0.56716   0.30779   0.47960   0.00000  Uiso   1.00
H24    H     0.58030   0.38004   0.31326   0.00000  Uiso   1.00
H25    H     0.54932   0.58898   0.28222   0.00000  Uiso   1.00
H26    H     0.64133   0.30896   0.27921   0.00000  Uiso   1.00
H27    H     0.54582   0.22344   0.36797   0.00000  Uiso   1.00
H28    H     0.52199   0.85009   0.26415   0.00000  Uiso   1.00
H29    H     0.71600   0.25963   0.25781   0.00000  Uiso   1.00
H30    H     0.51460   0.07928   0.44498   0.00000  Uiso   1.00
H31    H     0.63428   0.60700   0.43924   0.00000  Uiso   1.00
H32    H     0.60626   0.82840   0.41512   0.00000  Uiso   1.00
H33    H     0.69827   0.54838   0.41211   0.00000  Uiso   1.00
H34    H     0.60276   0.46286   0.50086   0.00000  Uiso   1.00
H35    H     0.56821   0.04441   0.37201   0.00000  Uiso   1.00
H36    H     0.76221   0.45395   0.36568   0.00000  Uiso   1.00
H37    H     0.56082   0.27361   0.55284   0.00000  Uiso   1.00
O38    O     0.52571   0.08881   0.29993   0.00000  Uiso   1.00
O39    O     0.78023   0.31412   0.29162   0.00000  Uiso   1.00
O40    O     0.51601   0.07753   0.53717   0.00000  Uiso   1.00
N41    N     0.53671   0.86543   0.29285   0.00000  Uiso   1.00
N42    N     0.71809   0.31341   0.28692   0.00000  Uiso   1.00
N43    N     0.52981   0.14478   0.46190   0.00000  Uiso   1.00
N44    N     0.56158   0.97000   0.35089   0.00000  Uiso   1.00
N45    N     0.74296   0.41797   0.34496   0.00000  Uiso   1.00
N46    N     0.55468   0.24934   0.51994   0.00000  Uiso   1.00
C47    C     0.09266   0.93204   0.84212   0.00000  Uiso   1.00
C48    C     0.08332   0.07703   0.84273   0.00000  Uiso   1.00
C49    C     0.06161   0.14070   0.81091   0.00000  Uiso   1.00
C50    C     0.05634   0.27368   0.81748   0.00000  Uiso   1.00
C51    C     0.03942   0.48867   0.81277   0.00000  Uiso   1.00
C52    C     0.13331   0.92490   0.84109   0.00000  Uiso   1.00
C53    C     0.15363   0.86065   0.80790   0.00000  Uiso   1.00
C54    C     0.19045   0.86557   0.81309   0.00000  Uiso   1.00
C55    C     0.25114   0.84430   0.80586   0.00000  Uiso   1.00
C56    C     0.08141   0.87845   0.88932   0.00000  Uiso   1.00
C57    C     0.05811   0.77510   0.89667   0.00000  Uiso   1.00
C58    C     0.05124   0.74089   0.94246   0.00000  Uiso   1.00
C59    C     0.03136   0.64748   0.01010   0.00000  Uiso   1.00
C60    C     0.12191   0.05500   0.91038   0.00000  Uiso   1.00
C61    C     0.09920   0.14381   0.87981   0.00000  Uiso   1.00
C62    C     0.09397   0.27674   0.88643   0.00000  Uiso   1.00
C63    C     0.07225   0.34059   0.85462   0.00000  Uiso   1.00
C64    C     0.14919   0.99169   0.87817   0.00000  Uiso   1.00
C65    C     0.18599   0.99669   0.88341   0.00000  Uiso   1.00
C66    C     0.20636   0.93247   0.85023   0.00000  Uiso   1.00
C67    C     0.09730   0.94523   0.92639   0.00000  Uiso   1.00
C68    C     0.09047   0.91116   0.97218   0.00000  Uiso   1.00
C69    C     0.06716   0.80779   0.97960   0.00000  Uiso   1.00
H70    H     0.08030   0.88004   0.81326   0.00000  Uiso   1.00
H71    H     0.04932   0.08898   0.78222   0.00000  Uiso   1.00
H72    H     0.14133   0.80896   0.77921   0.00000  Uiso   1.00
H73    H     0.04582   0.72344   0.86797   0.00000  Uiso   1.00
H74    H     0.02199   0.35009   0.76415   0.00000  Uiso   1.00
H75    H     0.21600   0.75963   0.75781   0.00000  Uiso   1.00
H76    H     0.01460   0.57928   0.94498   0.00000  Uiso   1.00
H77    H     0.13428   0.10700   0.93924   0.00000  Uiso   1.00
H78    H     0.10626   0.32840   0.91512   0.00000  Uiso   1.00
H79    H     0.19827   0.04838   0.91211   0.00000  Uiso   1.00
H80    H     0.10276   0.96286   0.00086   0.00000  Uiso   1.00
H81    H     0.06821   0.54441   0.87201   0.00000  Uiso   1.00
H82    H     0.26221   0.95395   0.86568   0.00000  Uiso   1.00
H83    H     0.06082   0.77361   0.05284   0.00000  Uiso   1.00
O84    O     0.02571   0.58881   0.79993   0.00000  Uiso   1.00
O85    O     0.28023   0.81412   0.79162   0.00000  Uiso   1.00
O86    O     0.01601   0.57753   0.03717   0.00000  Uiso   1.00
N87    N     0.03671   0.36543   0.79285   0.00000  Uiso   1.00
N88    N     0.21809   0.81341   0.78692   0.00000  Uiso   1.00
N89    N     0.02981   0.64478   0.96190   0.00000  Uiso   1.00
N90    N     0.06158   0.47000   0.85089   0.00000  Uiso   1.00
N91    N     0.24296   0.91797   0.84496   0.00000  Uiso   1.00
N92    N     0.05468   0.74934   0.01994   0.00000  Uiso   1.00
C93    C     0.90734   0.56796   0.84212   0.00000  Uiso   1.00
C94    C     0.91668   0.42297   0.84273   0.00000  Uiso   1.00
C95    C     0.93839   0.35930   0.81091   0.00000  Uiso   1.00
C96    C     0.94366   0.22632   0.81748   0.00000  Uiso   1.00
C97    C     0.96058   0.01133   0.81277   0.00000  Uiso   1.00
C98    C     0.86669   0.57510   0.84109   0.00000  Uiso   1.00
C99    C     0.84637   0.63935   0.80790   0.00000  Uiso   1.00
C100   C     0.80955   0.63443   0.81309   0.00000  Uiso   1.00
C101   C     0.74886   0.65570   0.80586   0.00000  Uiso   1.00
C102   C     0.91859   0.62155   0.88932   0.00000  Uiso   1.00
C103   C     0.94189   0.72490   0.89667   0.00000  Uiso   1.00
C104   C     0.94876   0.75911   0.94246   0.00000  Uiso   1.00
C105   C     0.96864   0.85252   0.01010   0.00000  Uiso   1.00
C106   C     0.87809   0.44500   0.91038   0.00000  Uiso   1.00
C107   C     0.90080   0.35619   0.87981   0.00000  Uiso   1.00
C108   C     0.90603   0.22326   0.88643   0.00000  Uiso   1.00
C109   C     0.92775   0.15941   0.85462   0.00000  Uiso   1.00
C110   C     0.85081   0.50831   0.87817   0.00000  Uiso   1.00
C111   C     0.81401   0.50331   0.88341   0.00000  Uiso   1.00
C112   C     0.79364   0.56753   0.85023   0.00000  Uiso   1.00
C113   C     0.90270   0.55477   0.92639   0.00000  Uiso   1.00
C114   C     0.90953   0.58884   0.97218   0.00000  Uiso   1.00
C115   C     0.93284   0.69221   0.97960   0.00000  Uiso   1.00
H116   H     0.91970   0.61996   0.81326   0.00000  Uiso   1.00
H117   H     0.95068   0.41102   0.78222   0.00000  Uiso   1.00
H118   H     0.85867   0.69104   0.77921   0.00000  Uiso   1.00
H119   H     0.95418   0.77656   0.86797   0.00000  Uiso   1.00
H120   H     0.97801   0.14991   0.76415   0.00000  Uiso   1.00
H121   H     0.78400   0.74037   0.75781   0.00000  Uiso   1.00
H122   H     0.98540   0.92072   0.94498   0.00000  Uiso   1.00
H123   H     0.86572   0.39300   0.93924   0.00000  Uiso   1.00
H124   H     0.89374   0.17160   0.91512   0.00000  Uiso   1.00
H125   H     0.80173   0.45162   0.91211   0.00000  Uiso   1.00
H126   H     0.89724   0.53714   0.00086   0.00000  Uiso   1.00
H127   H     0.93179   0.95559   0.87201   0.00000  Uiso   1.00
H128   H     0.73779   0.54605   0.86568   0.00000  Uiso   1.00
H129   H     0.93918   0.72639   0.05284   0.00000  Uiso   1.00
O130   O     0.97429   0.91119   0.79993   0.00000  Uiso   1.00
O131   O     0.71977   0.68588   0.79162   0.00000  Uiso   1.00
O132   O     0.98399   0.92247   0.03717   0.00000  Uiso   1.00
N133   N     0.96329   0.13457   0.79285   0.00000  Uiso   1.00
N134   N     0.78191   0.68659   0.78692   0.00000  Uiso   1.00
N135   N     0.97019   0.85522   0.96190   0.00000  Uiso   1.00
N136   N     0.93842   0.03000   0.85089   0.00000  Uiso   1.00
N137   N     0.75704   0.58203   0.84496   0.00000  Uiso   1.00
N138   N     0.94532   0.75066   0.01994   0.00000  Uiso   1.00
C139   C     0.40734   0.06796   0.34212   0.00000  Uiso   1.00
C140   C     0.41668   0.92297   0.34273   0.00000  Uiso   1.00
C141   C     0.43839   0.85930   0.31091   0.00000  Uiso   1.00
C142   C     0.44366   0.72632   0.31748   0.00000  Uiso   1.00
C143   C     0.46058   0.51133   0.31277   0.00000  Uiso   1.00
C144   C     0.36669   0.07510   0.34109   0.00000  Uiso   1.00
C145   C     0.34637   0.13935   0.30790   0.00000  Uiso   1.00
C146   C     0.30955   0.13443   0.31309   0.00000  Uiso   1.00
C147   C     0.24886   0.15570   0.30586   0.00000  Uiso   1.00
C148   C     0.41859   0.12155   0.38932   0.00000  Uiso   1.00
C149   C     0.44189   0.22490   0.39667   0.00000  Uiso   1.00
C150   C     0.44876   0.25911   0.44246   0.00000  Uiso   1.00
C151   C     0.46864   0.35252   0.51010   0.00000  Uiso   1.00
C152   C     0.37809   0.94500   0.41038   0.00000  Uiso   1.00
C153   C     0.40080   0.85619   0.37981   0.00000  Uiso   1.00
C154   C     0.40603   0.72326   0.38643   0.00000  Uiso   1.00
C155   C     0.42775   0.65941   0.35462   0.00000  Uiso   1.00
C156   C     0.35081   0.00831   0.37817   0.00000  Uiso   1.00
C157   C     0.31401   0.00331   0.38341   0.00000  Uiso   1.00
C158   C     0.29364   0.06753   0.35023   0.00000  Uiso   1.00
C159   C     0.40270   0.05477   0.42639   0.00000  Uiso   1.00
C160   C     0.40953   0.08884   0.47218   0.00000  Uiso   1.00
C161   C     0.43284   0.19221   0.47960   0.00000  Uiso   1.00
H162   H     0.41970   0.11996   0.31326   0.00000  Uiso   1.00
H163   H     0.45068   0.91102   0.28222   0.00000  Uiso   1.00
H164   H     0.35867   0.19104   0.27921   0.00000  Uiso   1.00
H165   H     0.45418   0.27656   0.36797   0.00000  Uiso   1.00
H166   H     0.47801   0.64991   0.26415   0.00000  Uiso   1.00
H167   H     0.28400   0.24037   0.25781   0.00000  Uiso   1.00
H168   H     0.48540   0.42072   0.44498   0.00000  Uiso   1.00
H169   H     0.36572   0.89300   0.43924   0.00000  Uiso   1.00
H170   H     0.39374   0.67160   0.41512   0.00000  Uiso   1.00
H171   H     0.30173   0.95162   0.41211   0.00000  Uiso   1.00
H172   H     0.39724   0.03714   0.50086   0.00000  Uiso   1.00
H173   H     0.43179   0.45559   0.37201   0.00000  Uiso   1.00
H174   H     0.23779   0.04605   0.36568   0.00000  Uiso   1.00
H175   H     0.43918   0.22639   0.55284   0.00000  Uiso   1.00
O176   O     0.47429   0.41119   0.29993   0.00000  Uiso   1.00
O177   O     0.21977   0.18588   0.29162   0.00000  Uiso   1.00
O178   O     0.48399   0.42247   0.53717   0.00000  Uiso   1.00
N179   N     0.46329   0.63457   0.29285   0.00000  Uiso   1.00
N180   N     0.28191   0.18659   0.28692   0.00000  Uiso   1.00
N181   N     0.47019   0.35522   0.46190   0.00000  Uiso   1.00
N182   N     0.43842   0.53000   0.35089   0.00000  Uiso   1.00
N183   N     0.25704   0.08203   0.34496   0.00000  Uiso   1.00
N184   N     0.44532   0.25066   0.51994   0.00000  Uiso   1.00
C185   C     0.40734   0.93204   0.15788   0.00000  Uiso   1.00
C186   C     0.41668   0.07703   0.15727   0.00000  Uiso   1.00
C187   C     0.43839   0.14070   0.18909   0.00000  Uiso   1.00
C188   C     0.44366   0.27368   0.18252   0.00000  Uiso   1.00
C189   C     0.46058   0.48867   0.18723   0.00000  Uiso   1.00
C190   C     0.36669   0.92490   0.15891   0.00000  Uiso   1.00
C191   C     0.34637   0.86065   0.19210   0.00000  Uiso   1.00
C192   C     0.30955   0.86557   0.18691   0.00000  Uiso   1.00
C193   C     0.24886   0.84430   0.19414   0.00000  Uiso   1.00
C194   C     0.41859   0.87845   0.11068   0.00000  Uiso   1.00
C195   C     0.44189   0.77510   0.10333   0.00000  Uiso   1.00
C196   C     0.44876   0.74089   0.05754   0.00000  Uiso   1.00
C197   C     0.46864   0.64748   0.98990   0.00000  Uiso   1.00
C198   C     0.37809   0.05500   0.08962   0.00000  Uiso   1.00
C199   C     0.40080   0.14381   0.12019   0.00000  Uiso   1.00
C200   C     0.40603   0.27674   0.11357   0.00000  Uiso   1.00
C201   C     0.42775   0.34059   0.14538   0.00000  Uiso   1.00
C202   C     0.35081   0.99169   0.12183   0.00000  Uiso   1.00
C203   C     0.31401   0.99669   0.11659   0.00000  Uiso   1.00
C204   C     0.29364   0.93247   0.14977   0.00000  Uiso   1.00
C205   C     0.40270   0.94523   0.07361   0.00000  Uiso   1.00
C206   C     0.40953   0.91116   0.02782   0.00000  Uiso   1.00
C207   C     0.43284   0.80779   0.02040   0.00000  Uiso   1.00
H208   H     0.41970   0.88004   0.18674   0.00000  Uiso   1.00
H209   H     0.45068   0.08898   0.21778   0.00000  Uiso   1.00
H210   H     0.35867   0.80896   0.22079   0.00000  Uiso   1.00
H211   H     0.45418   0.72344   0.13203   0.00000  Uiso   1.00
H212   H     0.47801   0.35009   0.23585   0.00000  Uiso   1.00
H213   H     0.28400   0.75963   0.24219   0.00000  Uiso   1.00
H214   H     0.48540   0.57928   0.05502   0.00000  Uiso   1.00
H215   H     0.36572   0.10700   0.06076   0.00000  Uiso   1.00
H216   H     0.39374   0.32840   0.08488   0.00000  Uiso   1.00
H217   H     0.30173   0.04838   0.08789   0.00000  Uiso   1.00
H218   H     0.39724   0.96286   0.99914   0.00000  Uiso   1.00
H219   H     0.43179   0.54441   0.12799   0.00000  Uiso   1.00
H220   H     0.23779   0.95395   0.13432   0.00000  Uiso   1.00
H221   H     0.43918   0.77361   0.94716   0.00000  Uiso   1.00
O222   O     0.47429   0.58881   0.20007   0.00000  Uiso   1.00
O223   O     0.21977   0.81412   0.20838   0.00000  Uiso   1.00
O224   O     0.48399   0.57753   0.96283   0.00000  Uiso   1.00
N225   N     0.46329   0.36543   0.20715   0.00000  Uiso   1.00
N226   N     0.28191   0.81341   0.21308   0.00000  Uiso   1.00
N227   N     0.47019   0.64478   0.03810   0.00000  Uiso   1.00
N228   N     0.43842   0.47000   0.14911   0.00000  Uiso   1.00
N229   N     0.25704   0.91797   0.15504   0.00000  Uiso   1.00
N230   N     0.44532   0.74934   0.98006   0.00000  Uiso   1.00
C231   C     0.90734   0.43204   0.65788   0.00000  Uiso   1.00
C232   C     0.91668   0.57703   0.65727   0.00000  Uiso   1.00
C233   C     0.93839   0.64070   0.68909   0.00000  Uiso   1.00
C234   C     0.94366   0.77368   0.68252   0.00000  Uiso   1.00
C235   C     0.96058   0.98867   0.68723   0.00000  Uiso   1.00
C236   C     0.86669   0.42490   0.65891   0.00000  Uiso   1.00
C237   C     0.84637   0.36065   0.69210   0.00000  Uiso   1.00
C238   C     0.80955   0.36557   0.68691   0.00000  Uiso   1.00
C239   C     0.74886   0.34430   0.69414   0.00000  Uiso   1.00
C240   C     0.91859   0.37845   0.61068   0.00000  Uiso   1.00
C241   C     0.94189   0.27510   0.60333   0.00000  Uiso   1.00
C242   C     0.94876   0.24089   0.55754   0.00000  Uiso   1.00
C243   C     0.96864   0.14748   0.48990   0.00000  Uiso   1.00
C244   C     0.87809   0.55500   0.58962   0.00000  Uiso   1.00
C245   C     0.90080   0.64381   0.62019   0.00000  Uiso   1.00
C246   C     0.90603   0.77674   0.61357   0.00000  Uiso   1.00
C247   C     0.92775   0.84059   0.64538   0.00000  Uiso   1.00
C248   C     0.85081   0.49169   0.62183   0.00000  Uiso   1.00
C249   C     0.81401   0.49669   0.61659   0.00000  Uiso   1.00
C250   C     0.79364   0.43247   0.64977   0.00000  Uiso   1.00
C251   C     0.90270   0.44523   0.57361   0.00000  Uiso   1.00
C252   C     0.90953   0.41116   0.52782   0.00000  Uiso   1.00
C253   C     0.93284   0.30779   0.52040   0.00000  Uiso   1.00
H254   H     0.91970   0.38004   0.68674   0.00000  Uiso   1.00
H255   H     0.95068   0.58898   0.71778   0.00000  Uiso   1.00
H256   H     0.85867   0.30896   0.72079   0.00000  Uiso   1.00
H257   H     0.95418   0.22344   0.63203   0.00000  Uiso   1.00
H258   H     0.97801   0.85009   0.73585   0.00000  Uiso   1.00
H259   H     0.78400   0.25963   0.74219   0.00000  Uiso   1.00
H260   H     0.98540   0.07928   0.55502   0.00000  Uiso   1.00
H261   H     0.86572   0.60700   0.56076   0.00000  Uiso   1.00
H262   H     0.89374   0.82840   0.58488   0.00000  Uiso   1.00
H263   H     0.80173   0.54838   0.58789   0.00000  Uiso   1.00
H264   H     0.89724   0.46286   0.49914   0.00000  Uiso   1.00
H265   H     0.93179   0.04441   0.62799   0.00000  Uiso   1.00
H266   H     0.73779   0.45395   0.63432   0.00000  Uiso   1.00
H267   H     0.93918   0.27361   0.44716   0.00000  Uiso   1.00
O268   O     0.97429   0.08881   0.70007   0.00000  Uiso   1.00
O269   O     0.71977   0.31412   0.70838   0.00000  Uiso   1.00
O270   O     0.98399   0.07753   0.46283   0.00000  Uiso   1.00
N271   N     0.96329   0.86543   0.70715   0.00000  Uiso   1.00
N272   N     0.78191   0.31341   0.71308   0.00000  Uiso   1.00
N273   N     0.97019   0.14478   0.53810   0.00000  Uiso   1.00
N274   N     0.93842   0.97000   0.64911   0.00000  Uiso   1.00
N275   N     0.75704   0.41797   0.65504   0.00000  Uiso   1.00
N276   N     0.94532   0.24934   0.48006   0.00000  Uiso   1.00
C277   C     0.09266   0.06796   0.65788   0.00000  Uiso   1.00
C278   C     0.08332   0.92297   0.65727   0.00000  Uiso   1.00
C279   C     0.06161   0.85930   0.68909   0.00000  Uiso   1.00
C280   C     0.05634   0.72632   0.68252   0.00000  Uiso   1.00
C281   C     0.03942   0.51133   0.68723   0.00000  Uiso   1.00
C282   C     0.13331   0.07510   0.65891   0.00000  Uiso   1.00
C283   C     0.15363   0.13935   0.69210   0.00000  Uiso   1.00
C284   C     0.19045   0.13443   0.68691   0.00000  Uiso   1.00
C285   C     0.25114   0.15570   0.69414   0.00000  Uiso   1.00
C286   C     0.08141   0.12155   0.61068   0.00000  Uiso   1.00
C287   C     0.05811   0.22490   0.60333   0.00000  Uiso   1.00
C288   C     0.05124   0.25911   0.55754   0.00000  Uiso   1.00
C289   C     0.03136   0.35252   0.48990   0.00000  Uiso   1.00
C290   C     0.12191   0.94500   0.58962   0.00000  Uiso   1.00
C291   C     0.09920   0.85619   0.62019   0.00000  Uiso   1.00
C292   C     0.09397   0.72326   0.61357   0.00000  Uiso   1.00
C293   C     0.07225   0.65941   0.64538   0.00000  Uiso   1.00
C294   C     0.14919   0.00831   0.62183   0.00000  Uiso   1.00
C295   C     0.18599   0.00331   0.61659   0.00000  Uiso   1.00
C296   C     0.20636   0.06753   0.64977   0.00000  Uiso   1.00
C297   C     0.09730   0.05477   0.57361   0.00000  Uiso   1.00
C298   C     0.09047   0.08884   0.52782   0.00000  Uiso   1.00
C299   C     0.06716   0.19221   0.52040   0.00000  Uiso   1.00
H300   H     0.08030   0.11996   0.68674   0.00000  Uiso   1.00
H301   H     0.04932   0.91102   0.71778   0.00000  Uiso   1.00
H302   H     0.14133   0.19104   0.72079   0.00000  Uiso   1.00
H303   H     0.04582   0.27656   0.63203   0.00000  Uiso   1.00
H304   H     0.02199   0.64991   0.73585   0.00000  Uiso   1.00
H305   H     0.21600   0.24037   0.74219   0.00000  Uiso   1.00
H306   H     0.01460   0.42072   0.55502   0.00000  Uiso   1.00
H307   H     0.13428   0.89300   0.56076   0.00000  Uiso   1.00
H308   H     0.10626   0.67160   0.58488   0.00000  Uiso   1.00
H309   H     0.19827   0.95162   0.58789   0.00000  Uiso   1.00
H310   H     0.10276   0.03714   0.49914   0.00000  Uiso   1.00
H311   H     0.06821   0.45559   0.62799   0.00000  Uiso   1.00
H312   H     0.26221   0.04605   0.63432   0.00000  Uiso   1.00
H313   H     0.06082   0.22639   0.44716   0.00000  Uiso   1.00
O314   O     0.02571   0.41119   0.70007   0.00000  Uiso   1.00
O315   O     0.28023   0.18588   0.70838   0.00000  Uiso   1.00
O316   O     0.01601   0.42247   0.46283   0.00000  Uiso   1.00
N317   N     0.03671   0.63457   0.70715   0.00000  Uiso   1.00
N318   N     0.21809   0.18659   0.71308   0.00000  Uiso   1.00
N319   N     0.02981   0.35522   0.53810   0.00000  Uiso   1.00
N320   N     0.06158   0.53000   0.64911   0.00000  Uiso   1.00
N321   N     0.24296   0.08203   0.65504   0.00000  Uiso   1.00
N322   N     0.05468   0.25066   0.48006   0.00000  Uiso   1.00
C323   C     0.59266   0.56796   0.15788   0.00000  Uiso   1.00
C324   C     0.58332   0.42297   0.15727   0.00000  Uiso   1.00
C325   C     0.56161   0.35930   0.18909   0.00000  Uiso   1.00
C326   C     0.55634   0.22632   0.18252   0.00000  Uiso   1.00
C327   C     0.53942   0.01133   0.18723   0.00000  Uiso   1.00
C328   C     0.63331   0.57510   0.15891   0.00000  Uiso   1.00
C329   C     0.65363   0.63935   0.19210   0.00000  Uiso   1.00
C330   C     0.69045   0.63443   0.18691   0.00000  Uiso   1.00
C331   C     0.75114   0.65570   0.19414   0.00000  Uiso   1.00
C332   C     0.58141   0.62155   0.11068   0.00000  Uiso   1.00
C333   C     0.55811   0.72490   0.10333   0.00000  Uiso   1.00
C334   C     0.55124   0.75911   0.05754   0.00000  Uiso   1.00
C335   C     0.53136   0.85252   0.98990   0.00000  Uiso   1.00
C336   C     0.62191   0.44500   0.08962   0.00000  Uiso   1.00
C337   C     0.59920   0.35619   0.12019   0.00000  Uiso   1.00
C338   C     0.59397   0.22326   0.11357   0.00000  Uiso   1.00
C339   C     0.57225   0.15941   0.14538   0.00000  Uiso   1.00
C340   C     0.64919   0.50831   0.12183   0.00000  Uiso   1.00
C341   C     0.68599   0.50331   0.11659   0.00000  Uiso   1.00
C342   C     0.70636   0.56753   0.14977   0.00000  Uiso   1.00
C343   C     0.59730   0.55477   0.07361   0.00000  Uiso   1.00
C344   C     0.59047   0.58884   0.02782   0.00000  Uiso   1.00
C345   C     0.56716   0.69221   0.02040   0.00000  Uiso   1.00
H346   H     0.58030   0.61996   0.18674   0.00000  Uiso   1.00
H347   H     0.54932   0.41102   0.21778   0.00000  Uiso   1.00
H348   H     0.64133   0.69104   0.22079   0.00000  Uiso   1.00
H349   H     0.54582   0.77656   0.13203   0.00000  Uiso   1.00
H350   H     0.52199   0.14991   0.23585   0.00000  Uiso   1.00
H351   H     0.71600   0.74037   0.24219   0.00000  Uiso   1.00
H352   H     0.51460   0.92072   0.05502   0.00000  Uiso   1.00
H353   H     0.63428   0.39300   0.06076   0.00000  Uiso   1.00
H354   H     0.60626   0.17160   0.08488   0.00000  Uiso   1.00
H355   H     0.69827   0.45162   0.08789   0.00000  Uiso   1.00
H356   H     0.60276   0.53714   0.99914   0.00000  Uiso   1.00
H357   H     0.56821   0.95559   0.12799   0.00000  Uiso   1.00
H358   H     0.76221   0.54605   0.13432   0.00000  Uiso   1.00
H359   H     0.56082   0.72639   0.94716   0.00000  Uiso   1.00
O360   O     0.52571   0.91119   0.20007   0.00000  Uiso   1.00
O361   O     0.78023   0.68588   0.20838   0.00000  Uiso   1.00
O362   O     0.51601   0.92247   0.96283   0.00000  Uiso   1.00
N363   N     0.53671   0.13457   0.20715   0.00000  Uiso   1.00
N364   N     0.71809   0.68659   0.21308   0.00000  Uiso   1.00
N365   N     0.52981   0.85522   0.03810   0.00000  Uiso   1.00
N366   N     0.56158   0.03000   0.14911   0.00000  Uiso   1.00
N367   N     0.74296   0.58203   0.15504   0.00000  Uiso   1.00
N368   N     0.55468   0.75066   0.98006   0.00000  Uiso   1.00
C369   C     0.40734   0.56796   0.65788   0.00000  Uiso   1.00
C370   C     0.41668   0.42297   0.65727   0.00000  Uiso   1.00
C371   C     0.43839   0.35930   0.68909   0.00000  Uiso   1.00
C372   C     0.44366   0.22632   0.68252   0.00000  Uiso   1.00
C373   C     0.46058   0.01133   0.68723   0.00000  Uiso   1.00
C374   C     0.36669   0.57510   0.65891   0.00000  Uiso   1.00
C375   C     0.34637   0.63935   0.69210   0.00000  Uiso   1.00
C376   C     0.30955   0.63443   0.68691   0.00000  Uiso   1.00
C377   C     0.24886   0.65570   0.69414   0.00000  Uiso   1.00
C378   C     0.41859   0.62155   0.61068   0.00000  Uiso   1.00
C379   C     0.44189   0.72490   0.60333   0.00000  Uiso   1.00
C380   C     0.44876   0.75911   0.55754   0.00000  Uiso   1.00
C381   C     0.46864   0.85252   0.48990   0.00000  Uiso   1.00
C382   C     0.37809   0.44500   0.58962   0.00000  Uiso   1.00
C383   C     0.40080   0.35619   0.62019   0.00000  Uiso   1.00
C384   C     0.40603   0.22326   0.61357   0.00000  Uiso   1.00
C385   C     0.42775   0.15941   0.64538   0.00000  Uiso   1.00
C386   C     0.35081   0.50831   0.62183   0.00000  Uiso   1.00
C387   C     0.31401   0.50331   0.61659   0.00000  Uiso   1.00
C388   C     0.29364   0.56753   0.64977   0.00000  Uiso   1.00
C389   C     0.40270   0.55477   0.57361   0.00000  Uiso   1.00
C390   C     0.40953   0.58884   0.52782   0.00000  Uiso   1.00
C391   C     0.43284   0.69221   0.52040   0.00000  Uiso   1.00
H392   H     0.41970   0.61996   0.68674   0.00000  Uiso   1.00
H393   H     0.45068   0.41102   0.71778   0.00000  Uiso   1.00
H394   H     0.35867   0.69104   0.72079   0.00000  Uiso   1.00
H395   H     0.45418   0.77656   0.63203   0.00000  Uiso   1.00
H396   H     0.47801   0.14991   0.73585   0.00000  Uiso   1.00
H397   H     0.28400   0.74037   0.74219   0.00000  Uiso   1.00
H398   H     0.48540   0.92072   0.55502   0.00000  Uiso   1.00
H399   H     0.36572   0.39300   0.56076   0.00000  Uiso   1.00
H400   H     0.39374   0.17160   0.58488   0.00000  Uiso   1.00
H401   H     0.30173   0.45162   0.58789   0.00000  Uiso   1.00
H402   H     0.39724   0.53714   0.49914   0.00000  Uiso   1.00
H403   H     0.43179   0.95559   0.62799   0.00000  Uiso   1.00
H404   H     0.23779   0.54605   0.63432   0.00000  Uiso   1.00
H405   H     0.43918   0.72639   0.44716   0.00000  Uiso   1.00
O406   O     0.47429   0.91119   0.70007   0.00000  Uiso   1.00
O407   O     0.21977   0.68588   0.70838   0.00000  Uiso   1.00
O408   O     0.48399   0.92247   0.46283   0.00000  Uiso   1.00
N409   N     0.46329   0.13457   0.70715   0.00000  Uiso   1.00
N410   N     0.28191   0.68659   0.71308   0.00000  Uiso   1.00
N411   N     0.47019   0.85522   0.53810   0.00000  Uiso   1.00
N412   N     0.43842   0.03000   0.64911   0.00000  Uiso   1.00
N413   N     0.25704   0.58203   0.65504   0.00000  Uiso   1.00
N414   N     0.44532   0.75066   0.48006   0.00000  Uiso   1.00
C415   C     0.90734   0.06796   0.15788   0.00000  Uiso   1.00
C416   C     0.91668   0.92297   0.15727   0.00000  Uiso   1.00
C417   C     0.93839   0.85930   0.18909   0.00000  Uiso   1.00
C418   C     0.94366   0.72632   0.18252   0.00000  Uiso   1.00
C419   C     0.96058   0.51133   0.18723   0.00000  Uiso   1.00
C420   C     0.86669   0.07510   0.15891   0.00000  Uiso   1.00
C421   C     0.84637   0.13935   0.19210   0.00000  Uiso   1.00
C422   C     0.80955   0.13443   0.18691   0.00000  Uiso   1.00
C423   C     0.74886   0.15570   0.19414   0.00000  Uiso   1.00
C424   C     0.91859   0.12155   0.11068   0.00000  Uiso   1.00
C425   C     0.94189   0.22490   0.10333   0.00000  Uiso   1.00
C426   C     0.94876   0.25911   0.05754   0.00000  Uiso   1.00
C427   C     0.96864   0.35252   0.98990   0.00000  Uiso   1.00
C428   C     0.87809   0.94500   0.08962   0.00000  Uiso   1.00
C429   C     0.90080   0.85619   0.12019   0.00000  Uiso   1.00
C430   C     0.90603   0.72326   0.11357   0.00000  Uiso   1.00
C431   C     0.92775   0.65941   0.14538   0.00000  Uiso   1.00
C432   C     0.85081   0.00831   0.12183   0.00000  Uiso   1.00
C433   C     0.81401   0.00331   0.11659   0.00000  Uiso   1.00
C434   C     0.79364   0.06753   0.14977   0.00000  Uiso   1.00
C435   C     0.90270   0.05477   0.07361   0.00000  Uiso   1.00
C436   C     0.90953   0.08884   0.02782   0.00000  Uiso   1.00
C437   C     0.93284   0.19221   0.02040   0.00000  Uiso   1.00
H438   H     0.91970   0.11996   0.18674   0.00000  Uiso   1.00
H439   H     0.95068   0.91102   0.21778   0.00000  Uiso   1.00
H440   H     0.85867   0.19104   0.22079   0.00000  Uiso   1.00
H441   H     0.95418   0.27656   0.13203   0.00000  Uiso   1.00
H442   H     0.97801   0.64991   0.23585   0.00000  Uiso   1.00
H443   H     0.78400   0.24037   0.24219   0.00000  Uiso   1.00
H444   H     0.98540   0.42072   0.05502   0.00000  Uiso   1.00
H445   H     0.86572   0.89300   0.06076   0.00000  Uiso   1.00
H446   H     0.89374   0.67160   0.08488   0.00000  Uiso   1.00
H447   H     0.80173   0.95162   0.08789   0.00000  Uiso   1.00
H448   H     0.89724   0.03714   0.99914   0.00000  Uiso   1.00
H449   H     0.93179   0.45559   0.12799   0.00000  Uiso   1.00
H450   H     0.73779   0.04605   0.13432   0.00000  Uiso   1.00
H451   H     0.93918   0.22639   0.94716   0.00000  Uiso   1.00
O452   O     0.97429   0.41119   0.20007   0.00000  Uiso   1.00
O453   O     0.71977   0.18588   0.20838   0.00000  Uiso   1.00
O454   O     0.98399   0.42247   0.96283   0.00000  Uiso   1.00
N455   N     0.96329   0.63457   0.20715   0.00000  Uiso   1.00
N456   N     0.78191   0.18659   0.21308   0.00000  Uiso   1.00
N457   N     0.97019   0.35522   0.03810   0.00000  Uiso   1.00
N458   N     0.93842   0.53000   0.14911   0.00000  Uiso   1.00
N459   N     0.75704   0.08203   0.15504   0.00000  Uiso   1.00
N460   N     0.94532   0.25066   0.98006   0.00000  Uiso   1.00
C461   C     0.09266   0.43204   0.15788   0.00000  Uiso   1.00
C462   C     0.08332   0.57703   0.15727   0.00000  Uiso   1.00
C463   C     0.06161   0.64070   0.18909   0.00000  Uiso   1.00
C464   C     0.05634   0.77368   0.18252   0.00000  Uiso   1.00
C465   C     0.03942   0.98867   0.18723   0.00000  Uiso   1.00
C466   C     0.13331   0.42490   0.15891   0.00000  Uiso   1.00
C467   C     0.15363   0.36065   0.19210   0.00000  Uiso   1.00
C468   C     0.19045   0.36557   0.18691   0.00000  Uiso   1.00
C469   C     0.25114   0.34430   0.19414   0.00000  Uiso   1.00
C470   C     0.08141   0.37845   0.11068   0.00000  Uiso   1.00
C471   C     0.05811   0.27510   0.10333   0.00000  Uiso   1.00
C472   C     0.05124   0.24089   0.05754   0.00000  Uiso   1.00
C473   C     0.03136   0.14748   0.98990   0.00000  Uiso   1.00
C474   C     0.12191   0.55500   0.08962   0.00000  Uiso   1.00
C475   C     0.09920   0.64381   0.12019   0.00000  Uiso   1.00
C476   C     0.09397   0.77674   0.11357   0.00000  Uiso   1.00
C477   C     0.07225   0.84059   0.14538   0.00000  Uiso   1.00
C478   C     0.14919   0.49169   0.12183   0.00000  Uiso   1.00
C479   C     0.18599   0.49669   0.11659   0.00000  Uiso   1.00
C480   C     0.20636   0.43247   0.14977   0.00000  Uiso   1.00
C481   C     0.09730   0.44523   0.07361   0.00000  Uiso   1.00
C482   C     0.09047   0.41116   0.02782   0.00000  Uiso   1.00
C483   C     0.06716   0.30779   0.02040   0.00000  Uiso   1.00
H484   H     0.08030   0.38004   0.18674   0.00000  Uiso   1.00
H485   H     0.04932   0.58898   0.21778   0.00000  Uiso   1.00
H486   H     0.14133   0.30896   0.22079   0.00000  Uiso   1.00
H487   H     0.04582   0.22344   0.13203   0.00000  Uiso   1.00
H488   H     0.02199   0.85009   0.23585   0.00000  Uiso   1.00
H489   H     0.21600   0.25963   0.24219   0.00000  Uiso   1.00
H490   H     0.01460   0.07928   0.05502   0.00000  Uiso   1.00
H491   H     0.13428   0.60700   0.06076   0.00000  Uiso   1.00
H492   H     0.10626   0.82840   0.08488   0.00000  Uiso   1.00
H493   H     0.19827   0.54838   0.08789   0.00000  Uiso   1.00
H494   H     0.10276   0.46286   0.99914   0.00000  Uiso   1.00
H495   H     0.06821   0.04441   0.12799   0.00000  Uiso   1.00
H496   H     0.26221   0.45395   0.13432   0.00000  Uiso   1.00
H497   H     0.06082   0.27361   0.94716   0.00000  Uiso   1.00
O498   O     0.02571   0.08881   0.20007   0.00000  Uiso   1.00
O499   O     0.28023   0.31412   0.20838   0.00000  Uiso   1.00
O500   O     0.01601   0.07753   0.96283   0.00000  Uiso   1.00
N501   N     0.03671   0.86543   0.20715   0.00000  Uiso   1.00
N502   N     0.21809   0.31341   0.21308   0.00000  Uiso   1.00
N503   N     0.02981   0.14478   0.03810   0.00000  Uiso   1.00
N504   N     0.06158   0.97000   0.14911   0.00000  Uiso   1.00
N505   N     0.24296   0.41797   0.15504   0.00000  Uiso   1.00
N506   N     0.05468   0.24934   0.98006   0.00000  Uiso   1.00
C507   C     0.59266   0.93204   0.65788   0.00000  Uiso   1.00
C508   C     0.58332   0.07703   0.65727   0.00000  Uiso   1.00
C509   C     0.56161   0.14070   0.68909   0.00000  Uiso   1.00
C510   C     0.55634   0.27368   0.68252   0.00000  Uiso   1.00
C511   C     0.53942   0.48867   0.68723   0.00000  Uiso   1.00
C512   C     0.63331   0.92490   0.65891   0.00000  Uiso   1.00
C513   C     0.65363   0.86065   0.69210   0.00000  Uiso   1.00
C514   C     0.69045   0.86557   0.68691   0.00000  Uiso   1.00
C515   C     0.75114   0.84430   0.69414   0.00000  Uiso   1.00
C516   C     0.58141   0.87845   0.61068   0.00000  Uiso   1.00
C517   C     0.55811   0.77510   0.60333   0.00000  Uiso   1.00
C518   C     0.55124   0.74089   0.55754   0.00000  Uiso   1.00
C519   C     0.53136   0.64748   0.48990   0.00000  Uiso   1.00
C520   C     0.62191   0.05500   0.58962   0.00000  Uiso   1.00
C521   C     0.59920   0.14381   0.62019   0.00000  Uiso   1.00
C522   C     0.59397   0.27674   0.61357   0.00000  Uiso   1.00
C523   C     0.57225   0.34059   0.64538   0.00000  Uiso   1.00
C524   C     0.64919   0.99169   0.62183   0.00000  Uiso   1.00
C525   C     0.68599   0.99669   0.61659   0.00000  Uiso   1.00
C526   C     0.70636   0.93247   0.64977   0.00000  Uiso   1.00
C527   C     0.59730   0.94523   0.57361   0.00000  Uiso   1.00
C528   C     0.59047   0.91116   0.52782   0.00000  Uiso   1.00
C529   C     0.56716   0.80779   0.52040   0.00000  Uiso   1.00
H530   H     0.58030   0.88004   0.68674   0.00000  Uiso   1.00
H531   H     0.54932   0.08898   0.71778   0.00000  Uiso   1.00
H532   H     0.64133   0.80896   0.72079   0.00000  Uiso   1.00
H533   H     0.54582   0.72344   0.63203   0.00000  Uiso   1.00
H534   H     0.52199   0.35009   0.73585   0.00000  Uiso   1.00
H535   H     0.71600   0.75963   0.74219   0.00000  Uiso   1.00
H536   H     0.51460   0.57928   0.55502   0.00000  Uiso   1.00
H537   H     0.63428   0.10700   0.56076   0.00000  Uiso   1.00
H538   H     0.60626   0.32840   0.58488   0.00000  Uiso   1.00
H539   H     0.69827   0.04838   0.58789   0.00000  Uiso   1.00
H540   H     0.60276   0.96286   0.49914   0.00000  Uiso   1.00
H541   H     0.56821   0.54441   0.62799   0.00000  Uiso   1.00
H542   H     0.76221   0.95395   0.63432   0.00000  Uiso   1.00
H543   H     0.56082   0.77361   0.44716   0.00000  Uiso   1.00
O544   O     0.52571   0.58881   0.70007   0.00000  Uiso   1.00
O545   O     0.78023   0.81412   0.70838   0.00000  Uiso   1.00
O546   O     0.51601   0.57753   0.46283   0.00000  Uiso   1.00
N547   N     0.53671   0.36543   0.70715   0.00000  Uiso   1.00
N548   N     0.71809   0.81341   0.71308   0.00000  Uiso   1.00
N549   N     0.52981   0.64478   0.53810   0.00000  Uiso   1.00
N550   N     0.56158   0.47000   0.64911   0.00000  Uiso   1.00
N551   N     0.74296   0.91797   0.65504   0.00000  Uiso   1.00
N552   N     0.55468   0.74934   0.48006   0.00000  Uiso   1.00
C553   C     0.59266   0.06796   0.84212   0.00000  Uiso   1.00
C554   C     0.58332   0.92297   0.84273   0.00000  Uiso   1.00
C555   C     0.56161   0.85930   0.81091   0.00000  Uiso   1.00
C556   C     0.55634   0.72632   0.81748   0.00000  Uiso   1.00
C557   C     0.53942   0.51133   0.81277   0.00000  Uiso   1.00
C558   C     0.63331   0.07510   0.84109   0.00000  Uiso   1.00
C559   C     0.65363   0.13935   0.80790   0.00000  Uiso   1.00
C560   C     0.69045   0.13443   0.81309   0.00000  Uiso   1.00
C561   C     0.75114   0.15570   0.80586   0.00000  Uiso   1.00
C562   C     0.58141   0.12155   0.88932   0.00000  Uiso   1.00
C563   C     0.55811   0.22490   0.89667   0.00000  Uiso   1.00
C564   C     0.55124   0.25911   0.94246   0.00000  Uiso   1.00
C565   C     0.53136   0.35252   0.01010   0.00000  Uiso   1.00
C566   C     0.62191   0.94500   0.91038   0.00000  Uiso   1.00
C567   C     0.59920   0.85619   0.87981   0.00000  Uiso   1.00
C568   C     0.59397   0.72326   0.88643   0.00000  Uiso   1.00
C569   C     0.57225   0.65941   0.85462   0.00000  Uiso   1.00
C570   C     0.64919   0.00831   0.87817   0.00000  Uiso   1.00
C571   C     0.68599   0.00331   0.88341   0.00000  Uiso   1.00
C572   C     0.70636   0.06753   0.85023   0.00000  Uiso   1.00
C573   C     0.59730   0.05477   0.92639   0.00000  Uiso   1.00
C574   C     0.59047   0.08884   0.97218   0.00000  Uiso   1.00
C575   C     0.56716   0.19221   0.97960   0.00000  Uiso   1.00
H576   H     0.58030   0.11996   0.81326   0.00000  Uiso   1.00
H577   H     0.54932   0.91102   0.78222   0.00000  Uiso   1.00
H578   H     0.64133   0.19104   0.77921   0.00000  Uiso   1.00
H579   H     0.54582   0.27656   0.86797   0.00000  Uiso   1.00
H580   H     0.52199   0.64991   0.76415   0.00000  Uiso   1.00
H581   H     0.71600   0.24037   0.75781   0.00000  Uiso   1.00
H582   H     0.51460   0.42072   0.94498   0.00000  Uiso   1.00
H583   H     0.63428   0.89300   0.93924   0.00000  Uiso   1.00
H584   H     0.60626   0.67160   0.91512   0.00000  Uiso   1.00
H585   H     0.69827   0.95162   0.91211   0.00000  Uiso   1.00
H586   H     0.60276   0.03714   0.00086   0.00000  Uiso   1.00
H587   H     0.56821   0.45559   0.87201   0.00000  Uiso   1.00
H588   H     0.76221   0.04605   0.86568   0.00000  Uiso   1.00
H589   H     0.56082   0.22639   0.05284   0.00000  Uiso   1.00
O590   O     0.52571   0.41119   0.79993   0.00000  Uiso   1.00
O591   O     0.78023   0.18588   0.79162   0.00000  Uiso   1.00
O592   O     0.51601   0.42247   0.03717   0.00000  Uiso   1.00
N593   N     0.53671   0.63457   0.79285   0.00000  Uiso   1.00
N594   N     0.71809   0.18659   0.78692   0.00000  Uiso   1.00
N595   N     0.52981   0.35522   0.96190   0.00000  Uiso   1.00
N596   N     0.56158   0.53000   0.85089   0.00000  Uiso   1.00
N597   N     0.74296   0.08203   0.84496   0.00000  Uiso   1.00
N598   N     0.55468   0.25066   0.01994   0.00000  Uiso   1.00
C599   C     0.09266   0.56796   0.34212   0.00000  Uiso   1.00
C600   C     0.08332   0.42297   0.34273   0.00000  Uiso   1.00
C601   C     0.06161   0.35930   0.31091   0.00000  Uiso   1.00
C602   C     0.05634   0.22632   0.31748   0.00000  Uiso   1.00
C603   C     0.03942   0.01133   0.31277   0.00000  Uiso   1.00
C604   C     0.13331   0.57510   0.34109   0.00000  Uiso   1.00
C605   C     0.15363   0.63935   0.30790   0.00000  Uiso   1.00
C606   C     0.19045   0.63443   0.31309   0.00000  Uiso   1.00
C607   C     0.25114   0.65570   0.30586   0.00000  Uiso   1.00
C608   C     0.08141   0.62155   0.38932   0.00000  Uiso   1.00
C609   C     0.05811   0.72490   0.39667   0.00000  Uiso   1.00
C610   C     0.05124   0.75911   0.44246   0.00000  Uiso   1.00
C611   C     0.03136   0.85252   0.51010   0.00000  Uiso   1.00
C612   C     0.12191   0.44500   0.41038   0.00000  Uiso   1.00
C613   C     0.09920   0.35619   0.37981   0.00000  Uiso   1.00
C614   C     0.09397   0.22326   0.38643   0.00000  Uiso   1.00
C615   C     0.07225   0.15941   0.35462   0.00000  Uiso   1.00
C616   C     0.14919   0.50831   0.37817   0.00000  Uiso   1.00
C617   C     0.18599   0.50331   0.38341   0.00000  Uiso   1.00
C618   C     0.20636   0.56753   0.35023   0.00000  Uiso   1.00
C619   C     0.09730   0.55477   0.42639   0.00000  Uiso   1.00
C620   C     0.09047   0.58884   0.47218   0.00000  Uiso   1.00
C621   C     0.06716   0.69221   0.47960   0.00000  Uiso   1.00
H622   H     0.08030   0.61996   0.31326   0.00000  Uiso   1.00
H623   H     0.04932   0.41102   0.28222   0.00000  Uiso   1.00
H624   H     0.14133   0.69104   0.27921   0.00000  Uiso   1.00
H625   H     0.04582   0.77656   0.36797   0.00000  Uiso   1.00
H626   H     0.02199   0.14991   0.26415   0.00000  Uiso   1.00
H627   H     0.21600   0.74037   0.25781   0.00000  Uiso   1.00
H628   H     0.01460   0.92072   0.44498   0.00000  Uiso   1.00
H629   H     0.13428   0.39300   0.43924   0.00000  Uiso   1.00
H630   H     0.10626   0.17160   0.41512   0.00000  Uiso   1.00
H631   H     0.19827   0.45162   0.41211   0.00000  Uiso   1.00
H632   H     0.10276   0.53714   0.50086   0.00000  Uiso   1.00
H633   H     0.06821   0.95559   0.37201   0.00000  Uiso   1.00
H634   H     0.26221   0.54605   0.36568   0.00000  Uiso   1.00
H635   H     0.06082   0.72639   0.55284   0.00000  Uiso   1.00
O636   O     0.02571   0.91119   0.29993   0.00000  Uiso   1.00
O637   O     0.28023   0.68588   0.29162   0.00000  Uiso   1.00
O638   O     0.01601   0.92247   0.53717   0.00000  Uiso   1.00
N639   N     0.03671   0.13457   0.29285   0.00000  Uiso   1.00
N640   N     0.21809   0.68659   0.28692   0.00000  Uiso   1.00
N641   N     0.02981   0.85522   0.46190   0.00000  Uiso   1.00
N642   N     0.06158   0.03000   0.35089   0.00000  Uiso   1.00
N643   N     0.24296   0.58203   0.34496   0.00000  Uiso   1.00
N644   N     0.05468   0.75066   0.51994   0.00000  Uiso   1.00
C645   C     0.90734   0.93204   0.34212   0.00000  Uiso   1.00
C646   C     0.91668   0.07703   0.34273   0.00000  Uiso   1.00
C647   C     0.93839   0.14070   0.31091   0.00000  Uiso   1.00
C648   C     0.94366   0.27368   0.31748   0.00000  Uiso   1.00
C649   C     0.96058   0.48867   0.31277   0.00000  Uiso   1.00
C650   C     0.86669   0.92490   0.34109   0.00000  Uiso   1.00
C651   C     0.84637   0.86065   0.30790   0.00000  Uiso   1.00
C652   C     0.80955   0.86557   0.31309   0.00000  Uiso   1.00
C653   C     0.74886   0.84430   0.30586   0.00000  Uiso   1.00
C654   C     0.91859   0.87845   0.38932   0.00000  Uiso   1.00
C655   C     0.94189   0.77510   0.39667   0.00000  Uiso   1.00
C656   C     0.94876   0.74089   0.44246   0.00000  Uiso   1.00
C657   C     0.96864   0.64748   0.51010   0.00000  Uiso   1.00
C658   C     0.87809   0.05500   0.41038   0.00000  Uiso   1.00
C659   C     0.90080   0.14381   0.37981   0.00000  Uiso   1.00
C660   C     0.90603   0.27674   0.38643   0.00000  Uiso   1.00
C661   C     0.92775   0.34059   0.35462   0.00000  Uiso   1.00
C662   C     0.85081   0.99169   0.37817   0.00000  Uiso   1.00
C663   C     0.81401   0.99669   0.38341   0.00000  Uiso   1.00
C664   C     0.79364   0.93247   0.35023   0.00000  Uiso   1.00
C665   C     0.90270   0.94523   0.42639   0.00000  Uiso   1.00
C666   C     0.90953   0.91116   0.47218   0.00000  Uiso   1.00
C667   C     0.93284   0.80779   0.47960   0.00000  Uiso   1.00
H668   H     0.91970   0.88004   0.31326   0.00000  Uiso   1.00
H669   H     0.95068   0.08898   0.28222   0.00000  Uiso   1.00
H670   H     0.85867   0.80896   0.27921   0.00000  Uiso   1.00
H671   H     0.95418   0.72344   0.36797   0.00000  Uiso   1.00
H672   H     0.97801   0.35009   0.26415   0.00000  Uiso   1.00
H673   H     0.78400   0.75963   0.25781   0.00000  Uiso   1.00
H674   H     0.98540   0.57928   0.44498   0.00000  Uiso   1.00
H675   H     0.86572   0.10700   0.43924   0.00000  Uiso   1.00
H676   H     0.89374   0.32840   0.41512   0.00000  Uiso   1.00
H677   H     0.80173   0.04838   0.41211   0.00000  Uiso   1.00
H678   H     0.89724   0.96286   0.50086   0.00000  Uiso   1.00
H679   H     0.93179   0.54441   0.37201   0.00000  Uiso   1.00
H680   H     0.73779   0.95395   0.36568   0.00000  Uiso   1.00
H681   H     0.93918   0.77361   0.55284   0.00000  Uiso   1.00
O682   O     0.97429   0.58881   0.29993   0.00000  Uiso   1.00
O683   O     0.71977   0.81412   0.29162   0.00000  Uiso   1.00
O684   O     0.98399   0.57753   0.53717   0.00000  Uiso   1.00
N685   N     0.96329   0.36543   0.29285   0.00000  Uiso   1.00
N686   N     0.78191   0.81341   0.28692   0.00000  Uiso   1.00
N687   N     0.97019   0.64478   0.46190   0.00000  Uiso   1.00
N688   N     0.93842   0.47000   0.35089   0.00000  Uiso   1.00
N689   N     0.75704   0.91797   0.34496   0.00000  Uiso   1.00
N690   N     0.94532   0.74934   0.51994   0.00000  Uiso   1.00
C691   C     0.40734   0.43204   0.84212   0.00000  Uiso   1.00
C692   C     0.41668   0.57703   0.84273   0.00000  Uiso   1.00
C693   C     0.43839   0.64070   0.81091   0.00000  Uiso   1.00
C694   C     0.44366   0.77368   0.81748   0.00000  Uiso   1.00
C695   C     0.46058   0.98867   0.81277   0.00000  Uiso   1.00
C696   C     0.36669   0.42490   0.84109   0.00000  Uiso   1.00
C697   C     0.34637   0.36065   0.80790   0.00000  Uiso   1.00
C698   C     0.30955   0.36557   0.81309   0.00000  Uiso   1.00
C699   C     0.24886   0.34430   0.80586   0.00000  Uiso   1.00
C700   C     0.41859   0.37845   0.88932   0.00000  Uiso   1.00
C701   C     0.44189   0.27510   0.89667   0.00000  Uiso   1.00
C702   C     0.44876   0.24089   0.94246   0.00000  Uiso   1.00
C703   C     0.46864   0.14748   0.01010   0.00000  Uiso   1.00
C704   C     0.37809   0.55500   0.91038   0.00000  Uiso   1.00
C705   C     0.40080   0.64381   0.87981   0.00000  Uiso   1.00
C706   C     0.40603   0.77674   0.88643   0.00000  Uiso   1.00
C707   C     0.42775   0.84059   0.85462   0.00000  Uiso   1.00
C708   C     0.35081   0.49169   0.87817   0.00000  Uiso   1.00
C709   C     0.31401   0.49669   0.88341   0.00000  Uiso   1.00
C710   C     0.29364   0.43247   0.85023   0.00000  Uiso   1.00
C711   C     0.40270   0.44523   0.92639   0.00000  Uiso   1.00
C712   C     0.40953   0.41116   0.97218   0.00000  Uiso   1.00
C713   C     0.43284   0.30779   0.97960   0.00000  Uiso   1.00
H714   H     0.41970   0.38004   0.81326   0.00000  Uiso   1.00
H715   H     0.45068   0.58898   0.78222   0.00000  Uiso   1.00
H716   H     0.35867   0.30896   0.77921   0.00000  Uiso   1.00
H717   H     0.45418   0.22344   0.86797   0.00000  Uiso   1.00
H718   H     0.47801   0.85009   0.76415   0.00000  Uiso   1.00
H719   H     0.28400   0.25963   0.75781   0.00000  Uiso   1.00
H720   H     0.48540   0.07928   0.94498   0.00000  Uiso   1.00
H721   H     0.36572   0.60700   0.93924   0.00000  Uiso   1.00
H722   H     0.39374   0.82840   0.91512   0.00000  Uiso   1.00
H723   H     0.30173   0.54838   0.91211   0.00000  Uiso   1.00
H724   H     0.39724   0.46286   0.00086   0.00000  Uiso   1.00
H725   H     0.43179   0.04441   0.87201   0.00000  Uiso   1.00
H726   H     0.23779   0.45395   0.86568   0.00000  Uiso   1.00
H727   H     0.43918   0.27361   0.05284   0.00000  Uiso   1.00
O728   O     0.47429   0.08881   0.79993   0.00000  Uiso   1.00
O729   O     0.21977   0.31412   0.79162   0.00000  Uiso   1.00
O730   O     0.48399   0.07753   0.03717   0.00000  Uiso   1.00
N731   N     0.46329   0.86543   0.79285   0.00000  Uiso   1.00
N732   N     0.28191   0.31341   0.78692   0.00000  Uiso   1.00
N733   N     0.47019   0.14478   0.96190   0.00000  Uiso   1.00
N734   N     0.43842   0.97000   0.85089   0.00000  Uiso   1.00
N735   N     0.25704   0.41797   0.84496   0.00000  Uiso   1.00
N736   N     0.44532   0.24934   0.01994   0.00000  Uiso   1.00
