data_job_01710
_audit_creation_date              2018-12-19
_audit_creation_method            'Materials Studio'
_symmetry_space_group_name_H-M    'P1'
_symmetry_Int_Tables_number       1
_symmetry_cell_setting            triclinic
loop_
_symmetry_equiv_pos_as_xyz
  x,y,z
_cell_length_a                    22.0761
_cell_length_b                    21.9550
_cell_length_c                    30.3153
_cell_angle_alpha                 90.0000
_cell_angle_beta                  136.3826
_cell_angle_gamma                 90.0000
loop_
_atom_site_label
_atom_site_type_symbol
_atom_site_fract_x
_atom_site_fract_y
_atom_site_fract_z
_atom_site_U_iso_or_equiv
_atom_site_adp_type
_atom_site_occupancy
C1     C     0.64883   0.67716   0.69589   0.00000  Uiso   1.00
C2     C     0.67721   0.69211   0.66384   0.00000  Uiso   1.00
C3     C     0.67117   0.74876   0.64058   0.00000  Uiso   1.00
C4     C     0.70066   0.75307   0.61289   0.00000  Uiso   1.00
C5     C     0.73947   0.78396   0.56375   0.00000  Uiso   1.00
C6     C     0.58303   0.62508   0.65735   0.00000  Uiso   1.00
C7     C     0.49781   0.62537   0.62864   0.00000  Uiso   1.00
C8     C     0.94801   0.07325   0.59551   0.00000  Uiso   1.00
C9     C     0.84062   0.00006   0.53633   0.00000  Uiso   1.00
C10    C     0.72949   0.65052   0.76113   0.00000  Uiso   1.00
C11    C     0.76740   0.67219   0.81968   0.00000  Uiso   1.00
C12    C     0.84090   0.64148   0.87391   0.00000  Uiso   1.00
C13    C     0.96091   0.60779   0.97586   0.00000  Uiso   1.00
C14    C     0.71193   0.58409   0.68810   0.00000  Uiso   1.00
C15    C     0.71148   0.64155   0.65961   0.00000  Uiso   1.00
C16    C     0.74099   0.64578   0.63196   0.00000  Uiso   1.00
C17    C     0.73500   0.70243   0.60866   0.00000  Uiso   1.00
C18    C     0.61730   0.57453   0.65312   0.00000  Uiso   1.00
C19    C     0.06762   0.02240   0.62003   0.00000  Uiso   1.00
C20    C     0.98235   0.02261   0.59127   0.00000  Uiso   1.00
C21    C     0.76376   0.59997   0.75690   0.00000  Uiso   1.00
C22    C     0.83722   0.56922   0.81106   0.00000  Uiso   1.00
C23    C     0.87523   0.59084   0.86968   0.00000  Uiso   1.00
H24    H     0.62214   0.71652   0.69918   0.00000  Uiso   1.00
H25    H     0.64464   0.78787   0.64385   0.00000  Uiso   1.00
H26    H     0.47130   0.66449   0.63193   0.00000  Uiso   1.00
H27    H     0.74086   0.71131   0.82293   0.00000  Uiso   1.00
H28    H     0.68466   0.84467   0.58063   0.00000  Uiso   1.00
H29    H     0.81919   0.08452   0.55550   0.00000  Uiso   1.00
H30    H     0.88759   0.68324   0.95826   0.00000  Uiso   1.00
H31    H     0.73862   0.54473   0.68481   0.00000  Uiso   1.00
H32    H     0.26751   0.10666   0.62870   0.00000  Uiso   1.00
H33    H     0.09417   0.98328   0.61677   0.00000  Uiso   1.00
H34    H     0.36372   0.03010   0.80777   0.00000  Uiso   1.00
H35    H     0.78438   0.69759   0.56832   0.00000  Uiso   1.00
H36    H     0.91891   0.93745   0.54320   0.00000  Uiso   1.00
H37    H     0.98731   0.53617   0.94596   0.00000  Uiso   1.00
O38    O     0.75140   0.81496   0.53780   0.00000  Uiso   1.00
O39    O     0.77192   0.97366   0.50485   0.00000  Uiso   1.00
O40    O     0.01765   0.60318   0.03326   0.00000  Uiso   1.00
N41    N     0.70418   0.80156   0.58544   0.00000  Uiso   1.00
N42    N     0.86248   0.05834   0.56195   0.00000  Uiso   1.00
N43    N     0.89388   0.65063   0.93849   0.00000  Uiso   1.00
N44    N     0.75784   0.72242   0.57882   0.00000  Uiso   1.00
N45    N     0.91614   0.97920   0.55532   0.00000  Uiso   1.00
N46    N     0.94754   0.57149   0.93187   0.00000  Uiso   1.00
C47    C     0.78093   0.27038   0.74352   0.00000  Uiso   1.00
C48    C     0.68373   0.26253   0.70295   0.00000  Uiso   1.00
C49    C     0.63990   0.20738   0.68382   0.00000  Uiso   1.00
C50    C     0.55096   0.20987   0.64684   0.00000  Uiso   1.00
C51    C     0.40663   0.18920   0.58642   0.00000  Uiso   1.00
C52    C     0.78485   0.31060   0.70463   0.00000  Uiso   1.00
C53    C     0.82606   0.29589   0.68694   0.00000  Uiso   1.00
C54    C     0.32226   0.83885   0.65138   0.00000  Uiso   1.00
C55    C     0.33499   0.89285   0.59362   0.00000  Uiso   1.00
C56    C     0.81937   0.30824   0.80128   0.00000  Uiso   1.00
C57    C     0.88962   0.29155   0.86485   0.00000  Uiso   1.00
C58    C     0.91489   0.33253   0.91067   0.00000  Uiso   1.00
C59    C     0.98122   0.38285   0.00297   0.00000  Uiso   1.00
C60    C     0.70092   0.37286   0.71185   0.00000  Uiso   1.00
C61    C     0.64027   0.31819   0.68574   0.00000  Uiso   1.00
C62    C     0.55138   0.32076   0.64878   0.00000  Uiso   1.00
C63    C     0.50742   0.26563   0.62960   0.00000  Uiso   1.00
C64    C     0.74140   0.36626   0.68742   0.00000  Uiso   1.00
C65    C     0.23754   0.90926   0.65189   0.00000  Uiso   1.00
C66    C     0.27872   0.89461   0.63414   0.00000  Uiso   1.00
C67    C     0.77591   0.36390   0.78407   0.00000  Uiso   1.00
C68    C     0.80109   0.40492   0.82980   0.00000  Uiso   1.00
C69    C     0.87136   0.38829   0.89343   0.00000  Uiso   1.00
H70    H     0.81476   0.22705   0.75692   0.00000  Uiso   1.00
H71    H     0.67355   0.16432   0.69715   0.00000  Uiso   1.00
H72    H     0.85969   0.25281   0.70027   0.00000  Uiso   1.00
H73    H     0.92323   0.24847   0.87815   0.00000  Uiso   1.00
H74    H     0.49782   0.11931   0.62327   0.00000  Uiso   1.00
H75    H     0.39033   0.80592   0.62987   0.00000  Uiso   1.00
H76    H     0.02432   0.29676   0.00497   0.00000  Uiso   1.00
H77    H     0.66709   0.41619   0.69845   0.00000  Uiso   1.00
H78    H     0.01776   0.86384   0.63547   0.00000  Uiso   1.00
H79    H     0.20391   0.95233   0.63859   0.00000  Uiso   1.00
H80    H     0.26745   0.94799   0.81647   0.00000  Uiso   1.00
H81    H     0.87138   0.78125   0.57320   0.00000  Uiso   1.00
H82    H     0.26389   0.96786   0.57980   0.00000  Uiso   1.00
H83    H     0.39788   0.95870   0.95491   0.00000  Uiso   1.00
O84    O     0.33903   0.16243   0.55784   0.00000  Uiso   1.00
O85    O     0.35401   0.90725   0.56651   0.00000  Uiso   1.00
O86    O     0.02979   0.39523   0.05863   0.00000  Uiso   1.00
N87    N     0.48856   0.16461   0.62014   0.00000  Uiso   1.00
N88    N     0.35552   0.83907   0.62630   0.00000  Uiso   1.00
N89    N     0.98081   0.33051   0.97699   0.00000  Uiso   1.00
N90    N     0.42052   0.25175   0.59320   0.00000  Uiso   1.00
N91    N     0.28748   0.92621   0.59936   0.00000  Uiso   1.00
N92    N     0.91277   0.41765   0.95005   0.00000  Uiso   1.00
C93    C     0.99938   0.95044   0.78351   0.00000  Uiso   1.00
C94    C     0.04814   0.00647   0.82607   0.00000  Uiso   1.00
C95    C     0.12196   0.03235   0.84576   0.00000  Uiso   1.00
C96    C     0.15687   0.08349   0.88461   0.00000  Uiso   1.00
C97    C     0.23833   0.16677   0.94791   0.00000  Uiso   1.00
C98    C     0.99817   0.90527   0.82108   0.00000  Uiso   1.00
C99    C     0.02995   0.84605   0.83656   0.00000  Uiso   1.00
C100   C     0.02278   0.81199   0.87120   0.00000  Uiso   1.00
C101   C     0.02659   0.73813   0.92671   0.00000  Uiso   1.00
C102   C     0.90437   0.97030   0.72669   0.00000  Uiso   1.00
C103   C     0.85728   0.96575   0.66280   0.00000  Uiso   1.00
C104   C     0.77113   0.98643   0.61797   0.00000  Uiso   1.00
C105   C     0.62932   0.01354   0.52692   0.00000  Uiso   1.00
C106   C     0.93012   0.99526   0.81749   0.00000  Uiso   1.00
C107   C     0.01052   0.03081   0.84452   0.00000  Uiso   1.00
C108   C     0.04532   0.08193   0.88335   0.00000  Uiso   1.00
C109   C     0.11918   0.10788   0.90310   0.00000  Uiso   1.00
C110   C     0.96055   0.92961   0.83953   0.00000  Uiso   1.00
C111   C     0.95332   0.89563   0.87415   0.00000  Uiso   1.00
C112   C     0.98509   0.83638   0.88969   0.00000  Uiso   1.00
C113   C     0.86675   0.99464   0.74514   0.00000  Uiso   1.00
C114   C     0.78065   0.01533   0.70040   0.00000  Uiso   1.00
C115   C     0.73344   0.01082   0.63646   0.00000  Uiso   1.00
H116   H     0.02867   0.93149   0.76915   0.00000  Uiso   1.00
H117   H     0.15106   0.01349   0.83147   0.00000  Uiso   1.00
H118   H     0.05905   0.82722   0.82227   0.00000  Uiso   1.00
H119   H     0.88642   0.94691   0.64854   0.00000  Uiso   1.00
H120   H     0.77017   0.61513   0.90873   0.00000  Uiso   1.00
H121   H     0.07615   0.72236   0.88931   0.00000  Uiso   1.00
H122   H     0.71211   0.97474   0.52296   0.00000  Uiso   1.00
H123   H     0.90082   0.01421   0.83186   0.00000  Uiso   1.00
H124   H     0.01620   0.10075   0.89763   0.00000  Uiso   1.00
H125   H     0.92420   0.91448   0.88842   0.00000  Uiso   1.00
H126   H     0.75156   0.03417   0.71470   0.00000  Uiso   1.00
H127   H     0.16072   0.18595   0.96243   0.00000  Uiso   1.00
H128   H     0.96670   0.79318   0.94300   0.00000  Uiso   1.00
H129   H     0.60266   0.04556   0.57666   0.00000  Uiso   1.00
O130   O     0.79366   0.70597   0.97773   0.00000  Uiso   1.00
O131   O     0.03910   0.69067   0.95223   0.00000  Uiso   1.00
O132   O     0.56149   0.02178   0.47160   0.00000  Uiso   1.00
N133   N     0.22857   0.11993   0.91233   0.00000  Uiso   1.00
N134   N     0.04719   0.75272   0.89418   0.00000  Uiso   1.00
N135   N     0.70683   0.98865   0.55168   0.00000  Uiso   1.00
N136   N     0.16967   0.15804   0.94123   0.00000  Uiso   1.00
N137   N     0.98829   0.79082   0.92307   0.00000  Uiso   1.00
N138   N     0.64793   0.02676   0.58057   0.00000  Uiso   1.00
C139   C     0.63899   0.03441   0.83408   0.00000  Uiso   1.00
C140   C     0.65360   0.97400   0.86551   0.00000  Uiso   1.00
C141   C     0.61897   0.95802   0.88797   0.00000  Uiso   1.00
C142   C     0.64008   0.90064   0.91518   0.00000  Uiso   1.00
C143   C     0.65461   0.81293   0.96331   0.00000  Uiso   1.00
C144   C     0.73013   0.06056   0.87343   0.00000  Uiso   1.00
C145   C     0.75982   0.11736   0.90255   0.00000  Uiso   1.00
C146   C     0.84535   0.13286   0.93643   0.00000  Uiso   1.00
C147   C     0.97866   0.17955   0.99682   0.00000  Uiso   1.00
C148   C     0.60116   0.01831   0.76905   0.00000  Uiso   1.00
C149   C     0.52243   0.03960   0.71040   0.00000  Uiso   1.00
C150   C     0.49938   0.01954   0.65639   0.00000  Uiso   1.00
C151   C     0.43245   0.00063   0.55471   0.00000  Uiso   1.00
C152   C     0.73808   0.96094   0.84245   0.00000  Uiso   1.00
C153   C     0.70743   0.93410   0.87005   0.00000  Uiso   1.00
C154   C     0.72859   0.87673   0.89723   0.00000  Uiso   1.00
C155   C     0.69399   0.86066   0.91973   0.00000  Uiso   1.00
C156   C     0.78395   0.02066   0.87798   0.00000  Uiso   1.00
C157   C     0.86945   0.03608   0.91181   0.00000  Uiso   1.00
C158   C     0.89926   0.09288   0.94098   0.00000  Uiso   1.00
C159   C     0.65498   0.97841   0.77359   0.00000  Uiso   1.00
C160   C     0.63205   0.95831   0.71966   0.00000  Uiso   1.00
C161   C     0.55330   0.97956   0.66094   0.00000  Uiso   1.00
H162   H     0.59710   0.06548   0.83055   0.00000  Uiso   1.00
H163   H     0.57733   0.98891   0.88445   0.00000  Uiso   1.00
H164   H     0.71815   0.14823   0.89903   0.00000  Uiso   1.00
H165   H     0.48080   0.07048   0.70690   0.00000  Uiso   1.00
H166   H     0.57916   0.88644   0.94624   0.00000  Uiso   1.00
H167   H     0.87610   0.22238   0.97695   0.00000  Uiso   1.00
H168   H     0.37558   0.05843   0.57182   0.00000  Uiso   1.00
H169   H     0.77998   0.92987   0.84598   0.00000  Uiso   1.00
H170   H     0.77024   0.84586   0.90074   0.00000  Uiso   1.00
H171   H     0.91107   0.00519   0.91531   0.00000  Uiso   1.00
H172   H     0.67372   0.92743   0.72319   0.00000  Uiso   1.00
H173   H     0.73575   0.77033   0.95946   0.00000  Uiso   1.00
H174   H     0.03268   0.10628   0.99017   0.00000  Uiso   1.00
H175   H     0.53217   0.94232   0.58504   0.00000  Uiso   1.00
O176   O     0.14778   0.27558   0.98861   0.00000  Uiso   1.00
O177   O     0.03733   0.21633   0.02889   0.00000  Uiso   1.00
O178   O     0.38067   0.00122   0.49737   0.00000  Uiso   1.00
N179   N     0.61734   0.87064   0.94183   0.00000  Uiso   1.00
N180   N     0.89496   0.18472   0.97055   0.00000  Uiso   1.00
N181   N     0.42703   0.03145   0.59179   0.00000  Uiso   1.00
N182   N     0.70159   0.80816   0.94894   0.00000  Uiso   1.00
N183   N     0.97921   0.12225   0.97766   0.00000  Uiso   1.00
N184   N     0.51129   0.96898   0.59890   0.00000  Uiso   1.00
C185   C     0.14883   0.17716   0.69589   0.00000  Uiso   1.00
C186   C     0.17721   0.19211   0.66384   0.00000  Uiso   1.00
C187   C     0.17117   0.24876   0.64058   0.00000  Uiso   1.00
C188   C     0.20066   0.25307   0.61289   0.00000  Uiso   1.00
C189   C     0.23947   0.28396   0.56375   0.00000  Uiso   1.00
C190   C     0.08303   0.12508   0.65735   0.00000  Uiso   1.00
C191   C     0.99781   0.12537   0.62864   0.00000  Uiso   1.00
C192   C     0.44801   0.57325   0.59551   0.00000  Uiso   1.00
C193   C     0.34062   0.50006   0.53633   0.00000  Uiso   1.00
C194   C     0.22949   0.15052   0.76113   0.00000  Uiso   1.00
C195   C     0.26740   0.17219   0.81968   0.00000  Uiso   1.00
C196   C     0.34090   0.14148   0.87391   0.00000  Uiso   1.00
C197   C     0.46091   0.10779   0.97586   0.00000  Uiso   1.00
C198   C     0.21193   0.08409   0.68810   0.00000  Uiso   1.00
C199   C     0.21148   0.14155   0.65961   0.00000  Uiso   1.00
C200   C     0.24099   0.14578   0.63196   0.00000  Uiso   1.00
C201   C     0.23500   0.20243   0.60866   0.00000  Uiso   1.00
C202   C     0.11730   0.07453   0.65312   0.00000  Uiso   1.00
C203   C     0.56762   0.52240   0.62003   0.00000  Uiso   1.00
C204   C     0.48235   0.52261   0.59127   0.00000  Uiso   1.00
C205   C     0.26376   0.09997   0.75690   0.00000  Uiso   1.00
C206   C     0.33722   0.06922   0.81106   0.00000  Uiso   1.00
C207   C     0.37523   0.09084   0.86968   0.00000  Uiso   1.00
H208   H     0.12214   0.21652   0.69918   0.00000  Uiso   1.00
H209   H     0.14464   0.28787   0.64385   0.00000  Uiso   1.00
H210   H     0.97130   0.16449   0.63193   0.00000  Uiso   1.00
H211   H     0.24086   0.21131   0.82293   0.00000  Uiso   1.00
H212   H     0.18466   0.34467   0.58063   0.00000  Uiso   1.00
H213   H     0.31919   0.58452   0.55550   0.00000  Uiso   1.00
H214   H     0.38759   0.18324   0.95826   0.00000  Uiso   1.00
H215   H     0.23862   0.04473   0.68481   0.00000  Uiso   1.00
H216   H     0.76751   0.60666   0.62870   0.00000  Uiso   1.00
H217   H     0.59417   0.48328   0.61677   0.00000  Uiso   1.00
H218   H     0.86372   0.53010   0.80777   0.00000  Uiso   1.00
H219   H     0.28438   0.19759   0.56832   0.00000  Uiso   1.00
H220   H     0.41891   0.43745   0.54320   0.00000  Uiso   1.00
H221   H     0.48731   0.03617   0.94596   0.00000  Uiso   1.00
O222   O     0.25140   0.31496   0.53780   0.00000  Uiso   1.00
O223   O     0.27192   0.47366   0.50485   0.00000  Uiso   1.00
O224   O     0.51765   0.10318   0.03326   0.00000  Uiso   1.00
N225   N     0.20418   0.30156   0.58544   0.00000  Uiso   1.00
N226   N     0.36248   0.55834   0.56195   0.00000  Uiso   1.00
N227   N     0.39388   0.15063   0.93849   0.00000  Uiso   1.00
N228   N     0.25784   0.22242   0.57882   0.00000  Uiso   1.00
N229   N     0.41614   0.47920   0.55532   0.00000  Uiso   1.00
N230   N     0.44754   0.07149   0.93187   0.00000  Uiso   1.00
C231   C     0.28093   0.77038   0.74352   0.00000  Uiso   1.00
C232   C     0.18373   0.76253   0.70295   0.00000  Uiso   1.00
C233   C     0.13990   0.70738   0.68382   0.00000  Uiso   1.00
C234   C     0.05096   0.70987   0.64684   0.00000  Uiso   1.00
C235   C     0.90663   0.68920   0.58642   0.00000  Uiso   1.00
C236   C     0.28485   0.81060   0.70463   0.00000  Uiso   1.00
C237   C     0.32606   0.79589   0.68694   0.00000  Uiso   1.00
C238   C     0.82226   0.33885   0.65138   0.00000  Uiso   1.00
C239   C     0.83499   0.39285   0.59362   0.00000  Uiso   1.00
C240   C     0.31937   0.80824   0.80128   0.00000  Uiso   1.00
C241   C     0.38962   0.79155   0.86485   0.00000  Uiso   1.00
C242   C     0.41489   0.83253   0.91067   0.00000  Uiso   1.00
C243   C     0.48122   0.88285   0.00297   0.00000  Uiso   1.00
C244   C     0.20092   0.87286   0.71185   0.00000  Uiso   1.00
C245   C     0.14027   0.81819   0.68574   0.00000  Uiso   1.00
C246   C     0.05138   0.82076   0.64878   0.00000  Uiso   1.00
C247   C     0.00742   0.76563   0.62960   0.00000  Uiso   1.00
C248   C     0.24140   0.86626   0.68742   0.00000  Uiso   1.00
C249   C     0.73754   0.40926   0.65189   0.00000  Uiso   1.00
C250   C     0.77872   0.39461   0.63414   0.00000  Uiso   1.00
C251   C     0.27591   0.86390   0.78407   0.00000  Uiso   1.00
C252   C     0.30109   0.90492   0.82980   0.00000  Uiso   1.00
C253   C     0.37136   0.88829   0.89343   0.00000  Uiso   1.00
H254   H     0.31476   0.72705   0.75692   0.00000  Uiso   1.00
H255   H     0.17355   0.66432   0.69715   0.00000  Uiso   1.00
H256   H     0.35969   0.75281   0.70027   0.00000  Uiso   1.00
H257   H     0.42323   0.74847   0.87815   0.00000  Uiso   1.00
H258   H     0.99782   0.61931   0.62327   0.00000  Uiso   1.00
H259   H     0.89033   0.30592   0.62987   0.00000  Uiso   1.00
H260   H     0.52432   0.79676   0.00497   0.00000  Uiso   1.00
H261   H     0.16709   0.91619   0.69845   0.00000  Uiso   1.00
H262   H     0.51776   0.36384   0.63547   0.00000  Uiso   1.00
H263   H     0.70391   0.45233   0.63859   0.00000  Uiso   1.00
H264   H     0.76745   0.44799   0.81647   0.00000  Uiso   1.00
H265   H     0.37138   0.28125   0.57320   0.00000  Uiso   1.00
H266   H     0.76389   0.46786   0.57980   0.00000  Uiso   1.00
H267   H     0.89788   0.45870   0.95491   0.00000  Uiso   1.00
O268   O     0.83903   0.66243   0.55784   0.00000  Uiso   1.00
O269   O     0.85401   0.40725   0.56651   0.00000  Uiso   1.00
O270   O     0.52979   0.89523   0.05863   0.00000  Uiso   1.00
N271   N     0.98856   0.66461   0.62014   0.00000  Uiso   1.00
N272   N     0.85552   0.33907   0.62630   0.00000  Uiso   1.00
N273   N     0.48081   0.83051   0.97699   0.00000  Uiso   1.00
N274   N     0.92052   0.75175   0.59320   0.00000  Uiso   1.00
N275   N     0.78748   0.42621   0.59936   0.00000  Uiso   1.00
N276   N     0.41277   0.91765   0.95005   0.00000  Uiso   1.00
C277   C     0.49938   0.45044   0.78351   0.00000  Uiso   1.00
C278   C     0.54814   0.50647   0.82607   0.00000  Uiso   1.00
C279   C     0.62196   0.53235   0.84576   0.00000  Uiso   1.00
C280   C     0.65687   0.58349   0.88461   0.00000  Uiso   1.00
C281   C     0.73833   0.66677   0.94791   0.00000  Uiso   1.00
C282   C     0.49817   0.40527   0.82108   0.00000  Uiso   1.00
C283   C     0.52995   0.34605   0.83656   0.00000  Uiso   1.00
C284   C     0.52278   0.31199   0.87120   0.00000  Uiso   1.00
C285   C     0.52659   0.23813   0.92671   0.00000  Uiso   1.00
C286   C     0.40437   0.47030   0.72669   0.00000  Uiso   1.00
C287   C     0.35728   0.46575   0.66280   0.00000  Uiso   1.00
C288   C     0.27113   0.48643   0.61797   0.00000  Uiso   1.00
C289   C     0.12932   0.51354   0.52692   0.00000  Uiso   1.00
C290   C     0.43012   0.49526   0.81749   0.00000  Uiso   1.00
C291   C     0.51052   0.53081   0.84452   0.00000  Uiso   1.00
C292   C     0.54532   0.58193   0.88335   0.00000  Uiso   1.00
C293   C     0.61918   0.60788   0.90310   0.00000  Uiso   1.00
C294   C     0.46055   0.42961   0.83953   0.00000  Uiso   1.00
C295   C     0.45332   0.39563   0.87415   0.00000  Uiso   1.00
C296   C     0.48509   0.33638   0.88969   0.00000  Uiso   1.00
C297   C     0.36675   0.49464   0.74514   0.00000  Uiso   1.00
C298   C     0.28065   0.51533   0.70040   0.00000  Uiso   1.00
C299   C     0.23344   0.51082   0.63646   0.00000  Uiso   1.00
H300   H     0.52867   0.43149   0.76915   0.00000  Uiso   1.00
H301   H     0.65106   0.51349   0.83147   0.00000  Uiso   1.00
H302   H     0.55905   0.32722   0.82227   0.00000  Uiso   1.00
H303   H     0.38642   0.44691   0.64854   0.00000  Uiso   1.00
H304   H     0.27017   0.11513   0.90873   0.00000  Uiso   1.00
H305   H     0.57615   0.22236   0.88931   0.00000  Uiso   1.00
H306   H     0.21211   0.47474   0.52296   0.00000  Uiso   1.00
H307   H     0.40082   0.51421   0.83186   0.00000  Uiso   1.00
H308   H     0.51620   0.60075   0.89763   0.00000  Uiso   1.00
H309   H     0.42420   0.41448   0.88842   0.00000  Uiso   1.00
H310   H     0.25156   0.53417   0.71470   0.00000  Uiso   1.00
H311   H     0.66072   0.68595   0.96243   0.00000  Uiso   1.00
H312   H     0.46670   0.29318   0.94300   0.00000  Uiso   1.00
H313   H     0.10266   0.54556   0.57666   0.00000  Uiso   1.00
O314   O     0.29366   0.20597   0.97773   0.00000  Uiso   1.00
O315   O     0.53910   0.19067   0.95223   0.00000  Uiso   1.00
O316   O     0.06149   0.52178   0.47160   0.00000  Uiso   1.00
N317   N     0.72857   0.61993   0.91233   0.00000  Uiso   1.00
N318   N     0.54719   0.25272   0.89418   0.00000  Uiso   1.00
N319   N     0.20683   0.48865   0.55168   0.00000  Uiso   1.00
N320   N     0.66967   0.65804   0.94123   0.00000  Uiso   1.00
N321   N     0.48829   0.29082   0.92307   0.00000  Uiso   1.00
N322   N     0.14793   0.52676   0.58057   0.00000  Uiso   1.00
C323   C     0.13899   0.53441   0.83408   0.00000  Uiso   1.00
C324   C     0.15360   0.47400   0.86551   0.00000  Uiso   1.00
C325   C     0.11897   0.45802   0.88797   0.00000  Uiso   1.00
C326   C     0.14008   0.40064   0.91518   0.00000  Uiso   1.00
C327   C     0.15461   0.31293   0.96331   0.00000  Uiso   1.00
C328   C     0.23013   0.56056   0.87343   0.00000  Uiso   1.00
C329   C     0.25982   0.61736   0.90255   0.00000  Uiso   1.00
C330   C     0.34535   0.63286   0.93643   0.00000  Uiso   1.00
C331   C     0.47866   0.67955   0.99682   0.00000  Uiso   1.00
C332   C     0.10116   0.51831   0.76905   0.00000  Uiso   1.00
C333   C     0.02243   0.53960   0.71040   0.00000  Uiso   1.00
C334   C     0.99938   0.51954   0.65639   0.00000  Uiso   1.00
C335   C     0.93245   0.50063   0.55471   0.00000  Uiso   1.00
C336   C     0.23808   0.46094   0.84245   0.00000  Uiso   1.00
C337   C     0.20743   0.43410   0.87005   0.00000  Uiso   1.00
C338   C     0.22859   0.37673   0.89723   0.00000  Uiso   1.00
C339   C     0.19399   0.36066   0.91973   0.00000  Uiso   1.00
C340   C     0.28395   0.52066   0.87798   0.00000  Uiso   1.00
C341   C     0.36945   0.53608   0.91181   0.00000  Uiso   1.00
C342   C     0.39926   0.59288   0.94098   0.00000  Uiso   1.00
C343   C     0.15498   0.47841   0.77359   0.00000  Uiso   1.00
C344   C     0.13205   0.45831   0.71966   0.00000  Uiso   1.00
C345   C     0.05330   0.47956   0.66094   0.00000  Uiso   1.00
H346   H     0.09710   0.56548   0.83055   0.00000  Uiso   1.00
H347   H     0.07733   0.48891   0.88445   0.00000  Uiso   1.00
H348   H     0.21815   0.64823   0.89903   0.00000  Uiso   1.00
H349   H     0.98080   0.57048   0.70690   0.00000  Uiso   1.00
H350   H     0.07916   0.38644   0.94624   0.00000  Uiso   1.00
H351   H     0.37610   0.72238   0.97695   0.00000  Uiso   1.00
H352   H     0.87558   0.55843   0.57182   0.00000  Uiso   1.00
H353   H     0.27998   0.42987   0.84598   0.00000  Uiso   1.00
H354   H     0.27024   0.34586   0.90074   0.00000  Uiso   1.00
H355   H     0.41107   0.50519   0.91531   0.00000  Uiso   1.00
H356   H     0.17372   0.42743   0.72319   0.00000  Uiso   1.00
H357   H     0.23575   0.27033   0.95946   0.00000  Uiso   1.00
H358   H     0.53268   0.60628   0.99017   0.00000  Uiso   1.00
H359   H     0.03217   0.44232   0.58504   0.00000  Uiso   1.00
O360   O     0.64778   0.77558   0.98861   0.00000  Uiso   1.00
O361   O     0.53733   0.71633   0.02889   0.00000  Uiso   1.00
O362   O     0.88067   0.50122   0.49737   0.00000  Uiso   1.00
N363   N     0.11734   0.37064   0.94183   0.00000  Uiso   1.00
N364   N     0.39496   0.68472   0.97055   0.00000  Uiso   1.00
N365   N     0.92703   0.53145   0.59179   0.00000  Uiso   1.00
N366   N     0.20159   0.30816   0.94894   0.00000  Uiso   1.00
N367   N     0.47921   0.62225   0.97766   0.00000  Uiso   1.00
N368   N     0.01129   0.46898   0.59890   0.00000  Uiso   1.00
C369   C     0.64883   0.32284   0.19589   0.00000  Uiso   1.00
C370   C     0.67721   0.30789   0.16384   0.00000  Uiso   1.00
C371   C     0.67117   0.25124   0.14058   0.00000  Uiso   1.00
C372   C     0.70066   0.24693   0.11289   0.00000  Uiso   1.00
C373   C     0.73947   0.21604   0.06375   0.00000  Uiso   1.00
C374   C     0.58303   0.37492   0.15735   0.00000  Uiso   1.00
C375   C     0.49781   0.37463   0.12864   0.00000  Uiso   1.00
C376   C     0.94801   0.92675   0.09551   0.00000  Uiso   1.00
C377   C     0.84062   0.99994   0.03633   0.00000  Uiso   1.00
C378   C     0.72949   0.34948   0.26113   0.00000  Uiso   1.00
C379   C     0.76740   0.32781   0.31968   0.00000  Uiso   1.00
C380   C     0.84090   0.35852   0.37391   0.00000  Uiso   1.00
C381   C     0.96091   0.39221   0.47586   0.00000  Uiso   1.00
C382   C     0.71193   0.41591   0.18810   0.00000  Uiso   1.00
C383   C     0.71148   0.35845   0.15961   0.00000  Uiso   1.00
C384   C     0.74099   0.35422   0.13196   0.00000  Uiso   1.00
C385   C     0.73500   0.29757   0.10866   0.00000  Uiso   1.00
C386   C     0.61730   0.42547   0.15312   0.00000  Uiso   1.00
C387   C     0.06762   0.97760   0.12003   0.00000  Uiso   1.00
C388   C     0.98235   0.97739   0.09127   0.00000  Uiso   1.00
C389   C     0.76376   0.40003   0.25690   0.00000  Uiso   1.00
C390   C     0.83722   0.43078   0.31106   0.00000  Uiso   1.00
C391   C     0.87523   0.40916   0.36968   0.00000  Uiso   1.00
H392   H     0.62214   0.28348   0.19918   0.00000  Uiso   1.00
H393   H     0.64464   0.21213   0.14385   0.00000  Uiso   1.00
H394   H     0.47130   0.33551   0.13193   0.00000  Uiso   1.00
H395   H     0.74086   0.28869   0.32293   0.00000  Uiso   1.00
H396   H     0.68466   0.15533   0.08063   0.00000  Uiso   1.00
H397   H     0.81919   0.91548   0.05550   0.00000  Uiso   1.00
H398   H     0.88759   0.31676   0.45826   0.00000  Uiso   1.00
H399   H     0.73862   0.45527   0.18481   0.00000  Uiso   1.00
H400   H     0.26751   0.89334   0.12870   0.00000  Uiso   1.00
H401   H     0.09417   0.01672   0.11677   0.00000  Uiso   1.00
H402   H     0.36372   0.96990   0.30777   0.00000  Uiso   1.00
H403   H     0.78438   0.30241   0.06832   0.00000  Uiso   1.00
H404   H     0.91891   0.06255   0.04320   0.00000  Uiso   1.00
H405   H     0.98731   0.46383   0.44596   0.00000  Uiso   1.00
O406   O     0.75140   0.18504   0.03780   0.00000  Uiso   1.00
O407   O     0.77192   0.02634   0.00485   0.00000  Uiso   1.00
O408   O     0.01765   0.39682   0.53326   0.00000  Uiso   1.00
N409   N     0.70418   0.19844   0.08544   0.00000  Uiso   1.00
N410   N     0.86248   0.94166   0.06195   0.00000  Uiso   1.00
N411   N     0.89388   0.34937   0.43849   0.00000  Uiso   1.00
N412   N     0.75784   0.27758   0.07882   0.00000  Uiso   1.00
N413   N     0.91614   0.02080   0.05532   0.00000  Uiso   1.00
N414   N     0.94754   0.42851   0.43187   0.00000  Uiso   1.00
C415   C     0.78093   0.72962   0.24352   0.00000  Uiso   1.00
C416   C     0.68373   0.73747   0.20295   0.00000  Uiso   1.00
C417   C     0.63990   0.79262   0.18382   0.00000  Uiso   1.00
C418   C     0.55096   0.79013   0.14684   0.00000  Uiso   1.00
C419   C     0.40663   0.81080   0.08642   0.00000  Uiso   1.00
C420   C     0.78485   0.68940   0.20463   0.00000  Uiso   1.00
C421   C     0.82606   0.70411   0.18694   0.00000  Uiso   1.00
C422   C     0.32226   0.16115   0.15138   0.00000  Uiso   1.00
C423   C     0.33499   0.10715   0.09362   0.00000  Uiso   1.00
C424   C     0.81937   0.69176   0.30128   0.00000  Uiso   1.00
C425   C     0.88962   0.70845   0.36485   0.00000  Uiso   1.00
C426   C     0.91489   0.66747   0.41067   0.00000  Uiso   1.00
C427   C     0.98122   0.61715   0.50297   0.00000  Uiso   1.00
C428   C     0.70092   0.62714   0.21185   0.00000  Uiso   1.00
C429   C     0.64027   0.68181   0.18574   0.00000  Uiso   1.00
C430   C     0.55138   0.67924   0.14878   0.00000  Uiso   1.00
C431   C     0.50742   0.73437   0.12960   0.00000  Uiso   1.00
C432   C     0.74140   0.63374   0.18742   0.00000  Uiso   1.00
C433   C     0.23754   0.09074   0.15189   0.00000  Uiso   1.00
C434   C     0.27872   0.10539   0.13414   0.00000  Uiso   1.00
C435   C     0.77591   0.63610   0.28407   0.00000  Uiso   1.00
C436   C     0.80109   0.59508   0.32980   0.00000  Uiso   1.00
C437   C     0.87136   0.61171   0.39343   0.00000  Uiso   1.00
H438   H     0.81476   0.77295   0.25692   0.00000  Uiso   1.00
H439   H     0.67355   0.83568   0.19715   0.00000  Uiso   1.00
H440   H     0.85969   0.74719   0.20027   0.00000  Uiso   1.00
H441   H     0.92323   0.75153   0.37815   0.00000  Uiso   1.00
H442   H     0.49782   0.88069   0.12327   0.00000  Uiso   1.00
H443   H     0.39033   0.19408   0.12987   0.00000  Uiso   1.00
H444   H     0.02432   0.70324   0.50497   0.00000  Uiso   1.00
H445   H     0.66709   0.58381   0.19845   0.00000  Uiso   1.00
H446   H     0.01776   0.13616   0.13547   0.00000  Uiso   1.00
H447   H     0.20391   0.04767   0.13859   0.00000  Uiso   1.00
H448   H     0.26745   0.05201   0.31647   0.00000  Uiso   1.00
H449   H     0.87138   0.21875   0.07320   0.00000  Uiso   1.00
H450   H     0.26389   0.03214   0.07980   0.00000  Uiso   1.00
H451   H     0.39788   0.04130   0.45491   0.00000  Uiso   1.00
O452   O     0.33903   0.83757   0.05784   0.00000  Uiso   1.00
O453   O     0.35401   0.09275   0.06651   0.00000  Uiso   1.00
O454   O     0.02979   0.60477   0.55863   0.00000  Uiso   1.00
N455   N     0.48856   0.83539   0.12014   0.00000  Uiso   1.00
N456   N     0.35552   0.16093   0.12630   0.00000  Uiso   1.00
N457   N     0.98081   0.66949   0.47699   0.00000  Uiso   1.00
N458   N     0.42052   0.74825   0.09320   0.00000  Uiso   1.00
N459   N     0.28748   0.07379   0.09936   0.00000  Uiso   1.00
N460   N     0.91277   0.58235   0.45005   0.00000  Uiso   1.00
C461   C     0.99938   0.04956   0.28351   0.00000  Uiso   1.00
C462   C     0.04814   0.99353   0.32607   0.00000  Uiso   1.00
C463   C     0.12196   0.96765   0.34576   0.00000  Uiso   1.00
C464   C     0.15687   0.91651   0.38461   0.00000  Uiso   1.00
C465   C     0.23833   0.83323   0.44791   0.00000  Uiso   1.00
C466   C     0.99817   0.09473   0.32108   0.00000  Uiso   1.00
C467   C     0.02995   0.15395   0.33656   0.00000  Uiso   1.00
C468   C     0.02278   0.18801   0.37120   0.00000  Uiso   1.00
C469   C     0.02659   0.26187   0.42671   0.00000  Uiso   1.00
C470   C     0.90437   0.02970   0.22669   0.00000  Uiso   1.00
C471   C     0.85728   0.03425   0.16280   0.00000  Uiso   1.00
C472   C     0.77113   0.01357   0.11797   0.00000  Uiso   1.00
C473   C     0.62932   0.98646   0.02692   0.00000  Uiso   1.00
C474   C     0.93012   0.00474   0.31749   0.00000  Uiso   1.00
C475   C     0.01052   0.96919   0.34452   0.00000  Uiso   1.00
C476   C     0.04532   0.91807   0.38335   0.00000  Uiso   1.00
C477   C     0.11918   0.89212   0.40310   0.00000  Uiso   1.00
C478   C     0.96055   0.07039   0.33953   0.00000  Uiso   1.00
C479   C     0.95332   0.10437   0.37415   0.00000  Uiso   1.00
C480   C     0.98509   0.16362   0.38969   0.00000  Uiso   1.00
C481   C     0.86675   0.00536   0.24514   0.00000  Uiso   1.00
C482   C     0.78065   0.98467   0.20040   0.00000  Uiso   1.00
C483   C     0.73344   0.98918   0.13646   0.00000  Uiso   1.00
H484   H     0.02867   0.06851   0.26915   0.00000  Uiso   1.00
H485   H     0.15106   0.98651   0.33147   0.00000  Uiso   1.00
H486   H     0.05905   0.17278   0.32227   0.00000  Uiso   1.00
H487   H     0.88642   0.05309   0.14854   0.00000  Uiso   1.00
H488   H     0.77017   0.38487   0.40873   0.00000  Uiso   1.00
H489   H     0.07615   0.27764   0.38931   0.00000  Uiso   1.00
H490   H     0.71211   0.02526   0.02296   0.00000  Uiso   1.00
H491   H     0.90082   0.98579   0.33186   0.00000  Uiso   1.00
H492   H     0.01620   0.89925   0.39763   0.00000  Uiso   1.00
H493   H     0.92420   0.08552   0.38842   0.00000  Uiso   1.00
H494   H     0.75156   0.96583   0.21470   0.00000  Uiso   1.00
H495   H     0.16072   0.81405   0.46243   0.00000  Uiso   1.00
H496   H     0.96670   0.20682   0.44300   0.00000  Uiso   1.00
H497   H     0.60266   0.95444   0.07666   0.00000  Uiso   1.00
O498   O     0.79366   0.29403   0.47773   0.00000  Uiso   1.00
O499   O     0.03910   0.30933   0.45223   0.00000  Uiso   1.00
O500   O     0.56149   0.97822   0.97160   0.00000  Uiso   1.00
N501   N     0.22857   0.88007   0.41233   0.00000  Uiso   1.00
N502   N     0.04719   0.24728   0.39418   0.00000  Uiso   1.00
N503   N     0.70683   0.01135   0.05168   0.00000  Uiso   1.00
N504   N     0.16967   0.84196   0.44123   0.00000  Uiso   1.00
N505   N     0.98829   0.20918   0.42307   0.00000  Uiso   1.00
N506   N     0.64793   0.97324   0.08057   0.00000  Uiso   1.00
C507   C     0.63899   0.96559   0.33408   0.00000  Uiso   1.00
C508   C     0.65360   0.02600   0.36551   0.00000  Uiso   1.00
C509   C     0.61897   0.04198   0.38797   0.00000  Uiso   1.00
C510   C     0.64008   0.09936   0.41518   0.00000  Uiso   1.00
C511   C     0.65461   0.18707   0.46331   0.00000  Uiso   1.00
C512   C     0.73013   0.93944   0.37343   0.00000  Uiso   1.00
C513   C     0.75982   0.88264   0.40255   0.00000  Uiso   1.00
C514   C     0.84535   0.86714   0.43643   0.00000  Uiso   1.00
C515   C     0.97866   0.82045   0.49682   0.00000  Uiso   1.00
C516   C     0.60116   0.98169   0.26905   0.00000  Uiso   1.00
C517   C     0.52243   0.96040   0.21040   0.00000  Uiso   1.00
C518   C     0.49938   0.98046   0.15639   0.00000  Uiso   1.00
C519   C     0.43245   0.99937   0.05471   0.00000  Uiso   1.00
C520   C     0.73808   0.03906   0.34245   0.00000  Uiso   1.00
C521   C     0.70743   0.06590   0.37005   0.00000  Uiso   1.00
C522   C     0.72859   0.12327   0.39723   0.00000  Uiso   1.00
C523   C     0.69399   0.13934   0.41973   0.00000  Uiso   1.00
C524   C     0.78395   0.97934   0.37798   0.00000  Uiso   1.00
C525   C     0.86945   0.96392   0.41181   0.00000  Uiso   1.00
C526   C     0.89926   0.90712   0.44098   0.00000  Uiso   1.00
C527   C     0.65498   0.02159   0.27359   0.00000  Uiso   1.00
C528   C     0.63205   0.04169   0.21966   0.00000  Uiso   1.00
C529   C     0.55330   0.02044   0.16094   0.00000  Uiso   1.00
H530   H     0.59710   0.93452   0.33055   0.00000  Uiso   1.00
H531   H     0.57733   0.01109   0.38445   0.00000  Uiso   1.00
H532   H     0.71815   0.85177   0.39903   0.00000  Uiso   1.00
H533   H     0.48080   0.92952   0.20690   0.00000  Uiso   1.00
H534   H     0.57916   0.11356   0.44624   0.00000  Uiso   1.00
H535   H     0.87610   0.77762   0.47695   0.00000  Uiso   1.00
H536   H     0.37558   0.94157   0.07182   0.00000  Uiso   1.00
H537   H     0.77998   0.07013   0.34598   0.00000  Uiso   1.00
H538   H     0.77024   0.15414   0.40074   0.00000  Uiso   1.00
H539   H     0.91107   0.99481   0.41531   0.00000  Uiso   1.00
H540   H     0.67372   0.07257   0.22319   0.00000  Uiso   1.00
H541   H     0.73575   0.22967   0.45946   0.00000  Uiso   1.00
H542   H     0.03268   0.89372   0.49017   0.00000  Uiso   1.00
H543   H     0.53217   0.05768   0.08504   0.00000  Uiso   1.00
O544   O     0.14778   0.72442   0.48861   0.00000  Uiso   1.00
O545   O     0.03733   0.78367   0.52889   0.00000  Uiso   1.00
O546   O     0.38067   0.99878   0.99737   0.00000  Uiso   1.00
N547   N     0.61734   0.12936   0.44183   0.00000  Uiso   1.00
N548   N     0.89496   0.81528   0.47055   0.00000  Uiso   1.00
N549   N     0.42703   0.96855   0.09179   0.00000  Uiso   1.00
N550   N     0.70159   0.19184   0.44894   0.00000  Uiso   1.00
N551   N     0.97921   0.87775   0.47766   0.00000  Uiso   1.00
N552   N     0.51129   0.03102   0.09890   0.00000  Uiso   1.00
C553   C     0.14883   0.82284   0.19589   0.00000  Uiso   1.00
C554   C     0.17721   0.80789   0.16384   0.00000  Uiso   1.00
C555   C     0.17117   0.75124   0.14058   0.00000  Uiso   1.00
C556   C     0.20066   0.74693   0.11289   0.00000  Uiso   1.00
C557   C     0.23947   0.71604   0.06375   0.00000  Uiso   1.00
C558   C     0.08303   0.87492   0.15735   0.00000  Uiso   1.00
C559   C     0.99781   0.87463   0.12864   0.00000  Uiso   1.00
C560   C     0.44801   0.42675   0.09551   0.00000  Uiso   1.00
C561   C     0.34062   0.49994   0.03633   0.00000  Uiso   1.00
C562   C     0.22949   0.84948   0.26113   0.00000  Uiso   1.00
C563   C     0.26740   0.82781   0.31968   0.00000  Uiso   1.00
C564   C     0.34090   0.85852   0.37391   0.00000  Uiso   1.00
C565   C     0.46091   0.89221   0.47586   0.00000  Uiso   1.00
C566   C     0.21193   0.91591   0.18810   0.00000  Uiso   1.00
C567   C     0.21148   0.85845   0.15961   0.00000  Uiso   1.00
C568   C     0.24099   0.85422   0.13196   0.00000  Uiso   1.00
C569   C     0.23500   0.79757   0.10866   0.00000  Uiso   1.00
C570   C     0.11730   0.92547   0.15312   0.00000  Uiso   1.00
C571   C     0.56762   0.47760   0.12003   0.00000  Uiso   1.00
C572   C     0.48235   0.47739   0.09127   0.00000  Uiso   1.00
C573   C     0.26376   0.90003   0.25690   0.00000  Uiso   1.00
C574   C     0.33722   0.93078   0.31106   0.00000  Uiso   1.00
C575   C     0.37523   0.90916   0.36968   0.00000  Uiso   1.00
H576   H     0.12214   0.78348   0.19918   0.00000  Uiso   1.00
H577   H     0.14464   0.71213   0.14385   0.00000  Uiso   1.00
H578   H     0.97130   0.83551   0.13193   0.00000  Uiso   1.00
H579   H     0.24086   0.78869   0.32293   0.00000  Uiso   1.00
H580   H     0.18466   0.65533   0.08063   0.00000  Uiso   1.00
H581   H     0.31919   0.41548   0.05550   0.00000  Uiso   1.00
H582   H     0.38759   0.81676   0.45826   0.00000  Uiso   1.00
H583   H     0.23862   0.95527   0.18481   0.00000  Uiso   1.00
H584   H     0.76751   0.39334   0.12870   0.00000  Uiso   1.00
H585   H     0.59417   0.51672   0.11677   0.00000  Uiso   1.00
H586   H     0.86372   0.46990   0.30777   0.00000  Uiso   1.00
H587   H     0.28438   0.80241   0.06832   0.00000  Uiso   1.00
H588   H     0.41891   0.56255   0.04320   0.00000  Uiso   1.00
H589   H     0.48731   0.96383   0.44596   0.00000  Uiso   1.00
O590   O     0.25140   0.68504   0.03780   0.00000  Uiso   1.00
O591   O     0.27192   0.52634   0.00485   0.00000  Uiso   1.00
O592   O     0.51765   0.89682   0.53326   0.00000  Uiso   1.00
N593   N     0.20418   0.69844   0.08544   0.00000  Uiso   1.00
N594   N     0.36248   0.44166   0.06195   0.00000  Uiso   1.00
N595   N     0.39388   0.84937   0.43849   0.00000  Uiso   1.00
N596   N     0.25784   0.77758   0.07882   0.00000  Uiso   1.00
N597   N     0.41614   0.52080   0.05532   0.00000  Uiso   1.00
N598   N     0.44754   0.92851   0.43187   0.00000  Uiso   1.00
C599   C     0.28093   0.22962   0.24352   0.00000  Uiso   1.00
C600   C     0.18373   0.23747   0.20295   0.00000  Uiso   1.00
C601   C     0.13990   0.29262   0.18382   0.00000  Uiso   1.00
C602   C     0.05096   0.29013   0.14684   0.00000  Uiso   1.00
C603   C     0.90663   0.31080   0.08642   0.00000  Uiso   1.00
C604   C     0.28485   0.18940   0.20463   0.00000  Uiso   1.00
C605   C     0.32606   0.20411   0.18694   0.00000  Uiso   1.00
C606   C     0.82226   0.66115   0.15138   0.00000  Uiso   1.00
C607   C     0.83499   0.60715   0.09362   0.00000  Uiso   1.00
C608   C     0.31937   0.19176   0.30128   0.00000  Uiso   1.00
C609   C     0.38962   0.20845   0.36485   0.00000  Uiso   1.00
C610   C     0.41489   0.16747   0.41067   0.00000  Uiso   1.00
C611   C     0.48122   0.11715   0.50297   0.00000  Uiso   1.00
C612   C     0.20092   0.12714   0.21185   0.00000  Uiso   1.00
C613   C     0.14027   0.18181   0.18574   0.00000  Uiso   1.00
C614   C     0.05138   0.17924   0.14878   0.00000  Uiso   1.00
C615   C     0.00742   0.23437   0.12960   0.00000  Uiso   1.00
C616   C     0.24140   0.13374   0.18742   0.00000  Uiso   1.00
C617   C     0.73754   0.59074   0.15189   0.00000  Uiso   1.00
C618   C     0.77872   0.60539   0.13414   0.00000  Uiso   1.00
C619   C     0.27591   0.13610   0.28407   0.00000  Uiso   1.00
C620   C     0.30109   0.09508   0.32980   0.00000  Uiso   1.00
C621   C     0.37136   0.11171   0.39343   0.00000  Uiso   1.00
H622   H     0.31476   0.27295   0.25692   0.00000  Uiso   1.00
H623   H     0.17355   0.33568   0.19715   0.00000  Uiso   1.00
H624   H     0.35969   0.24719   0.20027   0.00000  Uiso   1.00
H625   H     0.42323   0.25153   0.37815   0.00000  Uiso   1.00
H626   H     0.99782   0.38069   0.12327   0.00000  Uiso   1.00
H627   H     0.89033   0.69408   0.12987   0.00000  Uiso   1.00
H628   H     0.52432   0.20324   0.50497   0.00000  Uiso   1.00
H629   H     0.16709   0.08381   0.19845   0.00000  Uiso   1.00
H630   H     0.51776   0.63616   0.13547   0.00000  Uiso   1.00
H631   H     0.70391   0.54767   0.13859   0.00000  Uiso   1.00
H632   H     0.76745   0.55201   0.31647   0.00000  Uiso   1.00
H633   H     0.37138   0.71875   0.07320   0.00000  Uiso   1.00
H634   H     0.76389   0.53214   0.07980   0.00000  Uiso   1.00
H635   H     0.89788   0.54130   0.45491   0.00000  Uiso   1.00
O636   O     0.83903   0.33757   0.05784   0.00000  Uiso   1.00
O637   O     0.85401   0.59275   0.06651   0.00000  Uiso   1.00
O638   O     0.52979   0.10477   0.55863   0.00000  Uiso   1.00
N639   N     0.98856   0.33539   0.12014   0.00000  Uiso   1.00
N640   N     0.85552   0.66093   0.12630   0.00000  Uiso   1.00
N641   N     0.48081   0.16949   0.47699   0.00000  Uiso   1.00
N642   N     0.92052   0.24825   0.09320   0.00000  Uiso   1.00
N643   N     0.78748   0.57379   0.09936   0.00000  Uiso   1.00
N644   N     0.41277   0.08235   0.45005   0.00000  Uiso   1.00
C645   C     0.49938   0.54956   0.28351   0.00000  Uiso   1.00
C646   C     0.54814   0.49353   0.32607   0.00000  Uiso   1.00
C647   C     0.62196   0.46765   0.34576   0.00000  Uiso   1.00
C648   C     0.65687   0.41651   0.38461   0.00000  Uiso   1.00
C649   C     0.73833   0.33323   0.44791   0.00000  Uiso   1.00
C650   C     0.49817   0.59473   0.32108   0.00000  Uiso   1.00
C651   C     0.52995   0.65395   0.33656   0.00000  Uiso   1.00
C652   C     0.52278   0.68801   0.37120   0.00000  Uiso   1.00
C653   C     0.52659   0.76187   0.42671   0.00000  Uiso   1.00
C654   C     0.40437   0.52970   0.22669   0.00000  Uiso   1.00
C655   C     0.35728   0.53425   0.16280   0.00000  Uiso   1.00
C656   C     0.27113   0.51357   0.11797   0.00000  Uiso   1.00
C657   C     0.12932   0.48646   0.02692   0.00000  Uiso   1.00
C658   C     0.43012   0.50474   0.31749   0.00000  Uiso   1.00
C659   C     0.51052   0.46919   0.34452   0.00000  Uiso   1.00
C660   C     0.54532   0.41807   0.38335   0.00000  Uiso   1.00
C661   C     0.61918   0.39212   0.40310   0.00000  Uiso   1.00
C662   C     0.46055   0.57039   0.33953   0.00000  Uiso   1.00
C663   C     0.45332   0.60437   0.37415   0.00000  Uiso   1.00
C664   C     0.48509   0.66362   0.38969   0.00000  Uiso   1.00
C665   C     0.36675   0.50536   0.24514   0.00000  Uiso   1.00
C666   C     0.28065   0.48467   0.20040   0.00000  Uiso   1.00
C667   C     0.23344   0.48918   0.13646   0.00000  Uiso   1.00
H668   H     0.52867   0.56851   0.26915   0.00000  Uiso   1.00
H669   H     0.65106   0.48651   0.33147   0.00000  Uiso   1.00
H670   H     0.55905   0.67278   0.32227   0.00000  Uiso   1.00
H671   H     0.38642   0.55309   0.14854   0.00000  Uiso   1.00
H672   H     0.27017   0.88487   0.40873   0.00000  Uiso   1.00
H673   H     0.57615   0.77764   0.38931   0.00000  Uiso   1.00
H674   H     0.21211   0.52526   0.02296   0.00000  Uiso   1.00
H675   H     0.40082   0.48579   0.33186   0.00000  Uiso   1.00
H676   H     0.51620   0.39925   0.39763   0.00000  Uiso   1.00
H677   H     0.42420   0.58552   0.38842   0.00000  Uiso   1.00
H678   H     0.25156   0.46583   0.21470   0.00000  Uiso   1.00
H679   H     0.66072   0.31405   0.46243   0.00000  Uiso   1.00
H680   H     0.46670   0.70682   0.44300   0.00000  Uiso   1.00
H681   H     0.10266   0.45444   0.07666   0.00000  Uiso   1.00
O682   O     0.29366   0.79403   0.47773   0.00000  Uiso   1.00
O683   O     0.53910   0.80933   0.45223   0.00000  Uiso   1.00
O684   O     0.06149   0.47822   0.97160   0.00000  Uiso   1.00
N685   N     0.72857   0.38007   0.41233   0.00000  Uiso   1.00
N686   N     0.54719   0.74728   0.39418   0.00000  Uiso   1.00
N687   N     0.20683   0.51135   0.05168   0.00000  Uiso   1.00
N688   N     0.66967   0.34196   0.44123   0.00000  Uiso   1.00
N689   N     0.48829   0.70918   0.42307   0.00000  Uiso   1.00
N690   N     0.14793   0.47324   0.08057   0.00000  Uiso   1.00
C691   C     0.13899   0.46559   0.33408   0.00000  Uiso   1.00
C692   C     0.15360   0.52600   0.36551   0.00000  Uiso   1.00
C693   C     0.11897   0.54198   0.38797   0.00000  Uiso   1.00
C694   C     0.14008   0.59936   0.41518   0.00000  Uiso   1.00
C695   C     0.15461   0.68707   0.46331   0.00000  Uiso   1.00
C696   C     0.23013   0.43944   0.37343   0.00000  Uiso   1.00
C697   C     0.25982   0.38264   0.40255   0.00000  Uiso   1.00
C698   C     0.34535   0.36714   0.43643   0.00000  Uiso   1.00
C699   C     0.47866   0.32045   0.49682   0.00000  Uiso   1.00
C700   C     0.10116   0.48169   0.26905   0.00000  Uiso   1.00
C701   C     0.02243   0.46040   0.21040   0.00000  Uiso   1.00
C702   C     0.99938   0.48046   0.15639   0.00000  Uiso   1.00
C703   C     0.93245   0.49937   0.05471   0.00000  Uiso   1.00
C704   C     0.23808   0.53906   0.34245   0.00000  Uiso   1.00
C705   C     0.20743   0.56590   0.37005   0.00000  Uiso   1.00
C706   C     0.22859   0.62327   0.39723   0.00000  Uiso   1.00
C707   C     0.19399   0.63934   0.41973   0.00000  Uiso   1.00
C708   C     0.28395   0.47934   0.37798   0.00000  Uiso   1.00
C709   C     0.36945   0.46392   0.41181   0.00000  Uiso   1.00
C710   C     0.39926   0.40712   0.44098   0.00000  Uiso   1.00
C711   C     0.15498   0.52159   0.27359   0.00000  Uiso   1.00
C712   C     0.13205   0.54169   0.21966   0.00000  Uiso   1.00
C713   C     0.05330   0.52044   0.16094   0.00000  Uiso   1.00
H714   H     0.09710   0.43452   0.33055   0.00000  Uiso   1.00
H715   H     0.07733   0.51109   0.38445   0.00000  Uiso   1.00
H716   H     0.21815   0.35177   0.39903   0.00000  Uiso   1.00
H717   H     0.98080   0.42952   0.20690   0.00000  Uiso   1.00
H718   H     0.07916   0.61356   0.44624   0.00000  Uiso   1.00
H719   H     0.37610   0.27762   0.47695   0.00000  Uiso   1.00
H720   H     0.87558   0.44157   0.07182   0.00000  Uiso   1.00
H721   H     0.27998   0.57013   0.34598   0.00000  Uiso   1.00
H722   H     0.27024   0.65414   0.40074   0.00000  Uiso   1.00
H723   H     0.41107   0.49481   0.41531   0.00000  Uiso   1.00
H724   H     0.17372   0.57257   0.22319   0.00000  Uiso   1.00
H725   H     0.23575   0.72967   0.45946   0.00000  Uiso   1.00
H726   H     0.53268   0.39372   0.49017   0.00000  Uiso   1.00
H727   H     0.03217   0.55768   0.08504   0.00000  Uiso   1.00
O728   O     0.64778   0.22442   0.48861   0.00000  Uiso   1.00
O729   O     0.53733   0.28367   0.52889   0.00000  Uiso   1.00
O730   O     0.88067   0.49878   0.99737   0.00000  Uiso   1.00
N731   N     0.11734   0.62936   0.44183   0.00000  Uiso   1.00
N732   N     0.39496   0.31528   0.47055   0.00000  Uiso   1.00
N733   N     0.92703   0.46855   0.09179   0.00000  Uiso   1.00
N734   N     0.20159   0.69184   0.44894   0.00000  Uiso   1.00
N735   N     0.47921   0.37775   0.47766   0.00000  Uiso   1.00
N736   N     0.01129   0.53102   0.09890   0.00000  Uiso   1.00
