data_job_02745
_audit_creation_date              2018-12-19
_audit_creation_method            'Materials Studio'
_symmetry_space_group_name_H-M    'P1'
_symmetry_Int_Tables_number       1
_symmetry_cell_setting            triclinic
loop_
_symmetry_equiv_pos_as_xyz
  x,y,z
_cell_length_a                    23.0666
_cell_length_b                    24.6560
_cell_length_c                    40.0967
_cell_angle_alpha                 90.0000
_cell_angle_beta                  90.0000
_cell_angle_gamma                 90.0000
loop_
_atom_site_label
_atom_site_type_symbol
_atom_site_fract_x
_atom_site_fract_y
_atom_site_fract_z
_atom_site_U_iso_or_equiv
_atom_site_adp_type
_atom_site_occupancy
C1     C     0.45729   0.31821   0.33248   0.00000  Uiso   1.00
C2     C     0.41598   0.35718   0.31494   0.00000  Uiso   1.00
C3     C     0.43198   0.40346   0.29752   0.00000  Uiso   1.00
C4     C     0.38769   0.43374   0.28326   0.00000  Uiso   1.00
C5     C     0.33241   0.49662   0.25557   0.00000  Uiso   1.00
C6     C     0.43721   0.31556   0.36867   0.00000  Uiso   1.00
C7     C     0.47106   0.32684   0.39644   0.00000  Uiso   1.00
C8     C     0.44465   0.32208   0.42741   0.00000  Uiso   1.00
C9     C     0.42233   0.32031   0.48316   0.00000  Uiso   1.00
C10    C     0.44528   0.26235   0.31769   0.00000  Uiso   1.00
C11    C     0.48592   0.22888   0.30259   0.00000  Uiso   1.00
C12    C     0.46630   0.17931   0.29065   0.00000  Uiso   1.00
C13    C     0.45651   0.09492   0.26724   0.00000  Uiso   1.00
C14    C     0.35020   0.28969   0.33813   0.00000  Uiso   1.00
C15    C     0.35782   0.34169   0.31801   0.00000  Uiso   1.00
C16    C     0.31350   0.37190   0.30377   0.00000  Uiso   1.00
C17    C     0.32942   0.41822   0.28633   0.00000  Uiso   1.00
C18    C     0.37905   0.30007   0.37174   0.00000  Uiso   1.00
C19    C     0.35258   0.29529   0.40269   0.00000  Uiso   1.00
C20    C     0.38638   0.30656   0.43049   0.00000  Uiso   1.00
C21    C     0.38711   0.24686   0.32076   0.00000  Uiso   1.00
C22    C     0.36743   0.19732   0.30884   0.00000  Uiso   1.00
C23    C     0.40803   0.16379   0.29373   0.00000  Uiso   1.00
H24    H     0.50257   0.33028   0.33009   0.00000  Uiso   1.00
H25    H     0.47700   0.41544   0.29515   0.00000  Uiso   1.00
H26    H     0.51607   0.33883   0.39405   0.00000  Uiso   1.00
H27    H     0.53092   0.24088   0.30022   0.00000  Uiso   1.00
H28    H     0.42299   0.50304   0.25778   0.00000  Uiso   1.00
H29    H     0.50539   0.34148   0.46632   0.00000  Uiso   1.00
H30    H     0.53671   0.13494   0.26846   0.00000  Uiso   1.00
H31    H     0.30491   0.27763   0.34052   0.00000  Uiso   1.00
H32    H     0.26849   0.35990   0.30615   0.00000  Uiso   1.00
H33    H     0.30757   0.28329   0.40505   0.00000  Uiso   1.00
H34    H     0.32242   0.18535   0.31122   0.00000  Uiso   1.00
H35    H     0.25376   0.45797   0.26671   0.00000  Uiso   1.00
H36    H     0.33616   0.29641   0.47525   0.00000  Uiso   1.00
H37    H     0.36747   0.08987   0.27739   0.00000  Uiso   1.00
O38    O     0.31798   0.53559   0.23946   0.00000  Uiso   1.00
O39    O     0.42609   0.32362   0.51306   0.00000  Uiso   1.00
O40    O     0.46717   0.05265   0.25347   0.00000  Uiso   1.00
N41    N     0.38816   0.48113   0.26459   0.00000  Uiso   1.00
N42    N     0.46519   0.33010   0.45957   0.00000  Uiso   1.00
N43    N     0.49448   0.13699   0.27459   0.00000  Uiso   1.00
N44    N     0.29710   0.45688   0.26940   0.00000  Uiso   1.00
N45    N     0.37413   0.30584   0.46437   0.00000  Uiso   1.00
N46    N     0.40342   0.11274   0.27940   0.00000  Uiso   1.00
C47    C     0.95729   0.81821   0.33248   0.00000  Uiso   1.00
C48    C     0.91598   0.85718   0.31494   0.00000  Uiso   1.00
C49    C     0.93198   0.90346   0.29752   0.00000  Uiso   1.00
C50    C     0.88769   0.93374   0.28326   0.00000  Uiso   1.00
C51    C     0.83241   0.99662   0.25557   0.00000  Uiso   1.00
C52    C     0.93721   0.81556   0.36867   0.00000  Uiso   1.00
C53    C     0.97106   0.82684   0.39644   0.00000  Uiso   1.00
C54    C     0.94465   0.82208   0.42741   0.00000  Uiso   1.00
C55    C     0.92233   0.82031   0.48316   0.00000  Uiso   1.00
C56    C     0.94528   0.76235   0.31769   0.00000  Uiso   1.00
C57    C     0.98592   0.72888   0.30259   0.00000  Uiso   1.00
C58    C     0.96630   0.67931   0.29065   0.00000  Uiso   1.00
C59    C     0.95651   0.59492   0.26724   0.00000  Uiso   1.00
C60    C     0.85020   0.78969   0.33813   0.00000  Uiso   1.00
C61    C     0.85782   0.84169   0.31801   0.00000  Uiso   1.00
C62    C     0.81350   0.87190   0.30377   0.00000  Uiso   1.00
C63    C     0.82942   0.91822   0.28633   0.00000  Uiso   1.00
C64    C     0.87905   0.80007   0.37174   0.00000  Uiso   1.00
C65    C     0.85258   0.79529   0.40269   0.00000  Uiso   1.00
C66    C     0.88638   0.80656   0.43049   0.00000  Uiso   1.00
C67    C     0.88711   0.74686   0.32076   0.00000  Uiso   1.00
C68    C     0.86743   0.69732   0.30884   0.00000  Uiso   1.00
C69    C     0.90803   0.66379   0.29373   0.00000  Uiso   1.00
H70    H     0.00257   0.83028   0.33009   0.00000  Uiso   1.00
H71    H     0.97700   0.91544   0.29515   0.00000  Uiso   1.00
H72    H     0.01607   0.83883   0.39405   0.00000  Uiso   1.00
H73    H     0.03092   0.74088   0.30022   0.00000  Uiso   1.00
H74    H     0.92299   0.00304   0.25778   0.00000  Uiso   1.00
H75    H     0.00539   0.84148   0.46632   0.00000  Uiso   1.00
H76    H     0.03671   0.63494   0.26846   0.00000  Uiso   1.00
H77    H     0.80491   0.77763   0.34052   0.00000  Uiso   1.00
H78    H     0.76849   0.85990   0.30615   0.00000  Uiso   1.00
H79    H     0.80757   0.78329   0.40505   0.00000  Uiso   1.00
H80    H     0.82242   0.68535   0.31122   0.00000  Uiso   1.00
H81    H     0.75376   0.95797   0.26671   0.00000  Uiso   1.00
H82    H     0.83616   0.79641   0.47525   0.00000  Uiso   1.00
H83    H     0.86747   0.58987   0.27739   0.00000  Uiso   1.00
O84    O     0.81798   0.03559   0.23946   0.00000  Uiso   1.00
O85    O     0.92609   0.82362   0.51306   0.00000  Uiso   1.00
O86    O     0.96717   0.55265   0.25347   0.00000  Uiso   1.00
N87    N     0.88816   0.98113   0.26459   0.00000  Uiso   1.00
N88    N     0.96519   0.83010   0.45957   0.00000  Uiso   1.00
N89    N     0.99448   0.63699   0.27459   0.00000  Uiso   1.00
N90    N     0.79710   0.95688   0.26940   0.00000  Uiso   1.00
N91    N     0.87413   0.80584   0.46437   0.00000  Uiso   1.00
N92    N     0.90342   0.61274   0.27940   0.00000  Uiso   1.00
C93    C     0.04271   0.18179   0.33248   0.00000  Uiso   1.00
C94    C     0.08402   0.14282   0.31494   0.00000  Uiso   1.00
C95    C     0.06802   0.09654   0.29752   0.00000  Uiso   1.00
C96    C     0.11231   0.06626   0.28326   0.00000  Uiso   1.00
C97    C     0.16759   0.00338   0.25557   0.00000  Uiso   1.00
C98    C     0.06279   0.18444   0.36867   0.00000  Uiso   1.00
C99    C     0.02894   0.17316   0.39644   0.00000  Uiso   1.00
C100   C     0.05535   0.17792   0.42741   0.00000  Uiso   1.00
C101   C     0.07767   0.17969   0.48316   0.00000  Uiso   1.00
C102   C     0.05472   0.23765   0.31769   0.00000  Uiso   1.00
C103   C     0.01408   0.27112   0.30259   0.00000  Uiso   1.00
C104   C     0.03370   0.32069   0.29065   0.00000  Uiso   1.00
C105   C     0.04349   0.40508   0.26724   0.00000  Uiso   1.00
C106   C     0.14980   0.21031   0.33813   0.00000  Uiso   1.00
C107   C     0.14218   0.15831   0.31801   0.00000  Uiso   1.00
C108   C     0.18650   0.12810   0.30377   0.00000  Uiso   1.00
C109   C     0.17058   0.08178   0.28633   0.00000  Uiso   1.00
C110   C     0.12095   0.19993   0.37174   0.00000  Uiso   1.00
C111   C     0.14742   0.20471   0.40269   0.00000  Uiso   1.00
C112   C     0.11362   0.19344   0.43049   0.00000  Uiso   1.00
C113   C     0.11289   0.25314   0.32076   0.00000  Uiso   1.00
C114   C     0.13257   0.30268   0.30884   0.00000  Uiso   1.00
C115   C     0.09197   0.33621   0.29373   0.00000  Uiso   1.00
H116   H     0.99743   0.16972   0.33009   0.00000  Uiso   1.00
H117   H     0.02300   0.08456   0.29515   0.00000  Uiso   1.00
H118   H     0.98393   0.16117   0.39405   0.00000  Uiso   1.00
H119   H     0.96908   0.25912   0.30022   0.00000  Uiso   1.00
H120   H     0.07701   0.99696   0.25778   0.00000  Uiso   1.00
H121   H     0.99461   0.15852   0.46632   0.00000  Uiso   1.00
H122   H     0.96329   0.36506   0.26846   0.00000  Uiso   1.00
H123   H     0.19509   0.22237   0.34052   0.00000  Uiso   1.00
H124   H     0.23151   0.14010   0.30615   0.00000  Uiso   1.00
H125   H     0.19243   0.21671   0.40505   0.00000  Uiso   1.00
H126   H     0.17758   0.31465   0.31122   0.00000  Uiso   1.00
H127   H     0.24624   0.04203   0.26671   0.00000  Uiso   1.00
H128   H     0.16384   0.20359   0.47525   0.00000  Uiso   1.00
H129   H     0.13253   0.41013   0.27739   0.00000  Uiso   1.00
O130   O     0.18202   0.96441   0.23946   0.00000  Uiso   1.00
O131   O     0.07391   0.17638   0.51306   0.00000  Uiso   1.00
O132   O     0.03283   0.44735   0.25347   0.00000  Uiso   1.00
N133   N     0.11184   0.01887   0.26459   0.00000  Uiso   1.00
N134   N     0.03481   0.16990   0.45957   0.00000  Uiso   1.00
N135   N     0.00552   0.36301   0.27459   0.00000  Uiso   1.00
N136   N     0.20290   0.04312   0.26940   0.00000  Uiso   1.00
N137   N     0.12587   0.19416   0.46437   0.00000  Uiso   1.00
N138   N     0.09658   0.38726   0.27940   0.00000  Uiso   1.00
C139   C     0.54271   0.68179   0.33248   0.00000  Uiso   1.00
C140   C     0.58402   0.64282   0.31494   0.00000  Uiso   1.00
C141   C     0.56802   0.59654   0.29752   0.00000  Uiso   1.00
C142   C     0.61231   0.56626   0.28326   0.00000  Uiso   1.00
C143   C     0.66759   0.50338   0.25557   0.00000  Uiso   1.00
C144   C     0.56279   0.68444   0.36867   0.00000  Uiso   1.00
C145   C     0.52894   0.67316   0.39644   0.00000  Uiso   1.00
C146   C     0.55535   0.67792   0.42741   0.00000  Uiso   1.00
C147   C     0.57767   0.67969   0.48316   0.00000  Uiso   1.00
C148   C     0.55472   0.73765   0.31769   0.00000  Uiso   1.00
C149   C     0.51408   0.77112   0.30259   0.00000  Uiso   1.00
C150   C     0.53370   0.82069   0.29065   0.00000  Uiso   1.00
C151   C     0.54349   0.90508   0.26724   0.00000  Uiso   1.00
C152   C     0.64980   0.71031   0.33813   0.00000  Uiso   1.00
C153   C     0.64218   0.65831   0.31801   0.00000  Uiso   1.00
C154   C     0.68650   0.62810   0.30377   0.00000  Uiso   1.00
C155   C     0.67058   0.58178   0.28633   0.00000  Uiso   1.00
C156   C     0.62095   0.69993   0.37174   0.00000  Uiso   1.00
C157   C     0.64742   0.70471   0.40269   0.00000  Uiso   1.00
C158   C     0.61362   0.69344   0.43049   0.00000  Uiso   1.00
C159   C     0.61289   0.75314   0.32076   0.00000  Uiso   1.00
C160   C     0.63257   0.80268   0.30884   0.00000  Uiso   1.00
C161   C     0.59197   0.83621   0.29373   0.00000  Uiso   1.00
H162   H     0.49743   0.66972   0.33009   0.00000  Uiso   1.00
H163   H     0.52300   0.58456   0.29515   0.00000  Uiso   1.00
H164   H     0.48393   0.66117   0.39405   0.00000  Uiso   1.00
H165   H     0.46908   0.75912   0.30022   0.00000  Uiso   1.00
H166   H     0.57701   0.49696   0.25778   0.00000  Uiso   1.00
H167   H     0.49461   0.65852   0.46632   0.00000  Uiso   1.00
H168   H     0.46329   0.86506   0.26846   0.00000  Uiso   1.00
H169   H     0.69509   0.72237   0.34052   0.00000  Uiso   1.00
H170   H     0.73151   0.64010   0.30615   0.00000  Uiso   1.00
H171   H     0.69243   0.71671   0.40505   0.00000  Uiso   1.00
H172   H     0.67758   0.81465   0.31122   0.00000  Uiso   1.00
H173   H     0.74624   0.54203   0.26671   0.00000  Uiso   1.00
H174   H     0.66384   0.70359   0.47525   0.00000  Uiso   1.00
H175   H     0.63253   0.91013   0.27739   0.00000  Uiso   1.00
O176   O     0.68202   0.46441   0.23946   0.00000  Uiso   1.00
O177   O     0.57391   0.67638   0.51306   0.00000  Uiso   1.00
O178   O     0.53283   0.94735   0.25347   0.00000  Uiso   1.00
N179   N     0.61184   0.51887   0.26459   0.00000  Uiso   1.00
N180   N     0.53481   0.66990   0.45957   0.00000  Uiso   1.00
N181   N     0.50552   0.86301   0.27459   0.00000  Uiso   1.00
N182   N     0.70290   0.54312   0.26940   0.00000  Uiso   1.00
N183   N     0.62587   0.69416   0.46437   0.00000  Uiso   1.00
N184   N     0.59658   0.88726   0.27940   0.00000  Uiso   1.00
C185   C     0.54271   0.31821   0.66752   0.00000  Uiso   1.00
C186   C     0.58402   0.35718   0.68506   0.00000  Uiso   1.00
C187   C     0.56802   0.40346   0.70248   0.00000  Uiso   1.00
C188   C     0.61231   0.43374   0.71674   0.00000  Uiso   1.00
C189   C     0.66759   0.49662   0.74443   0.00000  Uiso   1.00
C190   C     0.56279   0.31556   0.63133   0.00000  Uiso   1.00
C191   C     0.52894   0.32684   0.60356   0.00000  Uiso   1.00
C192   C     0.55535   0.32208   0.57259   0.00000  Uiso   1.00
C193   C     0.57767   0.32031   0.51684   0.00000  Uiso   1.00
C194   C     0.55472   0.26235   0.68231   0.00000  Uiso   1.00
C195   C     0.51408   0.22888   0.69741   0.00000  Uiso   1.00
C196   C     0.53370   0.17931   0.70935   0.00000  Uiso   1.00
C197   C     0.54349   0.09492   0.73276   0.00000  Uiso   1.00
C198   C     0.64980   0.28969   0.66187   0.00000  Uiso   1.00
C199   C     0.64218   0.34169   0.68199   0.00000  Uiso   1.00
C200   C     0.68650   0.37190   0.69623   0.00000  Uiso   1.00
C201   C     0.67058   0.41822   0.71367   0.00000  Uiso   1.00
C202   C     0.62095   0.30007   0.62826   0.00000  Uiso   1.00
C203   C     0.64742   0.29529   0.59731   0.00000  Uiso   1.00
C204   C     0.61362   0.30656   0.56951   0.00000  Uiso   1.00
C205   C     0.61289   0.24686   0.67924   0.00000  Uiso   1.00
C206   C     0.63257   0.19732   0.69116   0.00000  Uiso   1.00
C207   C     0.59197   0.16379   0.70627   0.00000  Uiso   1.00
H208   H     0.49743   0.33028   0.66991   0.00000  Uiso   1.00
H209   H     0.52300   0.41544   0.70485   0.00000  Uiso   1.00
H210   H     0.48393   0.33883   0.60595   0.00000  Uiso   1.00
H211   H     0.46908   0.24088   0.69978   0.00000  Uiso   1.00
H212   H     0.57701   0.50304   0.74222   0.00000  Uiso   1.00
H213   H     0.49461   0.34148   0.53368   0.00000  Uiso   1.00
H214   H     0.46329   0.13494   0.73154   0.00000  Uiso   1.00
H215   H     0.69509   0.27763   0.65948   0.00000  Uiso   1.00
H216   H     0.73151   0.35990   0.69385   0.00000  Uiso   1.00
H217   H     0.69243   0.28329   0.59495   0.00000  Uiso   1.00
H218   H     0.67758   0.18535   0.68878   0.00000  Uiso   1.00
H219   H     0.74624   0.45797   0.73329   0.00000  Uiso   1.00
H220   H     0.66384   0.29641   0.52475   0.00000  Uiso   1.00
H221   H     0.63253   0.08987   0.72261   0.00000  Uiso   1.00
O222   O     0.68202   0.53559   0.76054   0.00000  Uiso   1.00
O223   O     0.57391   0.32362   0.48694   0.00000  Uiso   1.00
O224   O     0.53283   0.05265   0.74653   0.00000  Uiso   1.00
N225   N     0.61184   0.48113   0.73541   0.00000  Uiso   1.00
N226   N     0.53481   0.33010   0.54043   0.00000  Uiso   1.00
N227   N     0.50552   0.13699   0.72541   0.00000  Uiso   1.00
N228   N     0.70290   0.45688   0.73060   0.00000  Uiso   1.00
N229   N     0.62587   0.30584   0.53563   0.00000  Uiso   1.00
N230   N     0.59658   0.11274   0.72060   0.00000  Uiso   1.00
C231   C     0.04271   0.81821   0.66752   0.00000  Uiso   1.00
C232   C     0.08402   0.85718   0.68506   0.00000  Uiso   1.00
C233   C     0.06802   0.90346   0.70248   0.00000  Uiso   1.00
C234   C     0.11231   0.93374   0.71674   0.00000  Uiso   1.00
C235   C     0.16759   0.99662   0.74443   0.00000  Uiso   1.00
C236   C     0.06279   0.81556   0.63133   0.00000  Uiso   1.00
C237   C     0.02894   0.82684   0.60356   0.00000  Uiso   1.00
C238   C     0.05535   0.82208   0.57259   0.00000  Uiso   1.00
C239   C     0.07767   0.82031   0.51684   0.00000  Uiso   1.00
C240   C     0.05472   0.76235   0.68231   0.00000  Uiso   1.00
C241   C     0.01408   0.72888   0.69741   0.00000  Uiso   1.00
C242   C     0.03370   0.67931   0.70935   0.00000  Uiso   1.00
C243   C     0.04349   0.59492   0.73276   0.00000  Uiso   1.00
C244   C     0.14980   0.78969   0.66187   0.00000  Uiso   1.00
C245   C     0.14218   0.84169   0.68199   0.00000  Uiso   1.00
C246   C     0.18650   0.87190   0.69623   0.00000  Uiso   1.00
C247   C     0.17058   0.91822   0.71367   0.00000  Uiso   1.00
C248   C     0.12095   0.80007   0.62826   0.00000  Uiso   1.00
C249   C     0.14742   0.79529   0.59731   0.00000  Uiso   1.00
C250   C     0.11362   0.80656   0.56951   0.00000  Uiso   1.00
C251   C     0.11289   0.74686   0.67924   0.00000  Uiso   1.00
C252   C     0.13257   0.69732   0.69116   0.00000  Uiso   1.00
C253   C     0.09197   0.66379   0.70627   0.00000  Uiso   1.00
H254   H     0.99743   0.83028   0.66991   0.00000  Uiso   1.00
H255   H     0.02300   0.91544   0.70485   0.00000  Uiso   1.00
H256   H     0.98393   0.83883   0.60595   0.00000  Uiso   1.00
H257   H     0.96908   0.74088   0.69978   0.00000  Uiso   1.00
H258   H     0.07701   0.00304   0.74222   0.00000  Uiso   1.00
H259   H     0.99461   0.84148   0.53368   0.00000  Uiso   1.00
H260   H     0.96329   0.63494   0.73154   0.00000  Uiso   1.00
H261   H     0.19509   0.77763   0.65948   0.00000  Uiso   1.00
H262   H     0.23151   0.85990   0.69385   0.00000  Uiso   1.00
H263   H     0.19243   0.78329   0.59495   0.00000  Uiso   1.00
H264   H     0.17758   0.68535   0.68878   0.00000  Uiso   1.00
H265   H     0.24624   0.95797   0.73329   0.00000  Uiso   1.00
H266   H     0.16384   0.79641   0.52475   0.00000  Uiso   1.00
H267   H     0.13253   0.58987   0.72261   0.00000  Uiso   1.00
O268   O     0.18202   0.03559   0.76054   0.00000  Uiso   1.00
O269   O     0.07391   0.82362   0.48694   0.00000  Uiso   1.00
O270   O     0.03283   0.55265   0.74653   0.00000  Uiso   1.00
N271   N     0.11184   0.98113   0.73541   0.00000  Uiso   1.00
N272   N     0.03481   0.83010   0.54043   0.00000  Uiso   1.00
N273   N     0.00552   0.63699   0.72541   0.00000  Uiso   1.00
N274   N     0.20290   0.95688   0.73060   0.00000  Uiso   1.00
N275   N     0.12587   0.80584   0.53563   0.00000  Uiso   1.00
N276   N     0.09658   0.61274   0.72060   0.00000  Uiso   1.00
C277   C     0.95729   0.18179   0.66752   0.00000  Uiso   1.00
C278   C     0.91598   0.14282   0.68506   0.00000  Uiso   1.00
C279   C     0.93198   0.09654   0.70248   0.00000  Uiso   1.00
C280   C     0.88769   0.06626   0.71674   0.00000  Uiso   1.00
C281   C     0.83241   0.00338   0.74443   0.00000  Uiso   1.00
C282   C     0.93721   0.18444   0.63133   0.00000  Uiso   1.00
C283   C     0.97106   0.17316   0.60356   0.00000  Uiso   1.00
C284   C     0.94465   0.17792   0.57259   0.00000  Uiso   1.00
C285   C     0.92233   0.17969   0.51684   0.00000  Uiso   1.00
C286   C     0.94528   0.23765   0.68231   0.00000  Uiso   1.00
C287   C     0.98592   0.27112   0.69741   0.00000  Uiso   1.00
C288   C     0.96630   0.32069   0.70935   0.00000  Uiso   1.00
C289   C     0.95651   0.40508   0.73276   0.00000  Uiso   1.00
C290   C     0.85020   0.21031   0.66187   0.00000  Uiso   1.00
C291   C     0.85782   0.15831   0.68199   0.00000  Uiso   1.00
C292   C     0.81350   0.12810   0.69623   0.00000  Uiso   1.00
C293   C     0.82942   0.08178   0.71367   0.00000  Uiso   1.00
C294   C     0.87905   0.19993   0.62826   0.00000  Uiso   1.00
C295   C     0.85258   0.20471   0.59731   0.00000  Uiso   1.00
C296   C     0.88638   0.19344   0.56951   0.00000  Uiso   1.00
C297   C     0.88711   0.25314   0.67924   0.00000  Uiso   1.00
C298   C     0.86743   0.30268   0.69116   0.00000  Uiso   1.00
C299   C     0.90803   0.33621   0.70627   0.00000  Uiso   1.00
H300   H     0.00257   0.16972   0.66991   0.00000  Uiso   1.00
H301   H     0.97700   0.08456   0.70485   0.00000  Uiso   1.00
H302   H     0.01607   0.16117   0.60595   0.00000  Uiso   1.00
H303   H     0.03092   0.25912   0.69978   0.00000  Uiso   1.00
H304   H     0.92299   0.99696   0.74222   0.00000  Uiso   1.00
H305   H     0.00539   0.15852   0.53368   0.00000  Uiso   1.00
H306   H     0.03671   0.36506   0.73154   0.00000  Uiso   1.00
H307   H     0.80491   0.22237   0.65948   0.00000  Uiso   1.00
H308   H     0.76849   0.14010   0.69385   0.00000  Uiso   1.00
H309   H     0.80757   0.21671   0.59495   0.00000  Uiso   1.00
H310   H     0.82242   0.31465   0.68878   0.00000  Uiso   1.00
H311   H     0.75376   0.04203   0.73329   0.00000  Uiso   1.00
H312   H     0.83616   0.20359   0.52475   0.00000  Uiso   1.00
H313   H     0.86747   0.41013   0.72261   0.00000  Uiso   1.00
O314   O     0.81798   0.96441   0.76054   0.00000  Uiso   1.00
O315   O     0.92609   0.17638   0.48694   0.00000  Uiso   1.00
O316   O     0.96717   0.44735   0.74653   0.00000  Uiso   1.00
N317   N     0.88816   0.01887   0.73541   0.00000  Uiso   1.00
N318   N     0.96519   0.16990   0.54043   0.00000  Uiso   1.00
N319   N     0.99448   0.36301   0.72541   0.00000  Uiso   1.00
N320   N     0.79710   0.04312   0.73060   0.00000  Uiso   1.00
N321   N     0.87413   0.19416   0.53563   0.00000  Uiso   1.00
N322   N     0.90342   0.38726   0.72060   0.00000  Uiso   1.00
C323   C     0.45729   0.68179   0.66752   0.00000  Uiso   1.00
C324   C     0.41598   0.64282   0.68506   0.00000  Uiso   1.00
C325   C     0.43198   0.59654   0.70248   0.00000  Uiso   1.00
C326   C     0.38769   0.56626   0.71674   0.00000  Uiso   1.00
C327   C     0.33241   0.50338   0.74443   0.00000  Uiso   1.00
C328   C     0.43721   0.68444   0.63133   0.00000  Uiso   1.00
C329   C     0.47106   0.67316   0.60356   0.00000  Uiso   1.00
C330   C     0.44465   0.67792   0.57259   0.00000  Uiso   1.00
C331   C     0.42233   0.67969   0.51684   0.00000  Uiso   1.00
C332   C     0.44528   0.73765   0.68231   0.00000  Uiso   1.00
C333   C     0.48592   0.77112   0.69741   0.00000  Uiso   1.00
C334   C     0.46630   0.82069   0.70935   0.00000  Uiso   1.00
C335   C     0.45651   0.90508   0.73276   0.00000  Uiso   1.00
C336   C     0.35020   0.71031   0.66187   0.00000  Uiso   1.00
C337   C     0.35782   0.65831   0.68199   0.00000  Uiso   1.00
C338   C     0.31350   0.62810   0.69623   0.00000  Uiso   1.00
C339   C     0.32942   0.58178   0.71367   0.00000  Uiso   1.00
C340   C     0.37905   0.69993   0.62826   0.00000  Uiso   1.00
C341   C     0.35258   0.70471   0.59731   0.00000  Uiso   1.00
C342   C     0.38638   0.69344   0.56951   0.00000  Uiso   1.00
C343   C     0.38711   0.75314   0.67924   0.00000  Uiso   1.00
C344   C     0.36743   0.80268   0.69116   0.00000  Uiso   1.00
C345   C     0.40803   0.83621   0.70627   0.00000  Uiso   1.00
H346   H     0.50257   0.66972   0.66991   0.00000  Uiso   1.00
H347   H     0.47700   0.58456   0.70485   0.00000  Uiso   1.00
H348   H     0.51607   0.66117   0.60595   0.00000  Uiso   1.00
H349   H     0.53092   0.75912   0.69978   0.00000  Uiso   1.00
H350   H     0.42299   0.49696   0.74222   0.00000  Uiso   1.00
H351   H     0.50539   0.65852   0.53368   0.00000  Uiso   1.00
H352   H     0.53671   0.86506   0.73154   0.00000  Uiso   1.00
H353   H     0.30491   0.72237   0.65948   0.00000  Uiso   1.00
H354   H     0.26849   0.64010   0.69385   0.00000  Uiso   1.00
H355   H     0.30757   0.71671   0.59495   0.00000  Uiso   1.00
H356   H     0.32242   0.81465   0.68878   0.00000  Uiso   1.00
H357   H     0.25376   0.54203   0.73329   0.00000  Uiso   1.00
H358   H     0.33616   0.70359   0.52475   0.00000  Uiso   1.00
H359   H     0.36747   0.91013   0.72261   0.00000  Uiso   1.00
O360   O     0.31798   0.46441   0.76054   0.00000  Uiso   1.00
O361   O     0.42609   0.67638   0.48694   0.00000  Uiso   1.00
O362   O     0.46717   0.94735   0.74653   0.00000  Uiso   1.00
N363   N     0.38816   0.51887   0.73541   0.00000  Uiso   1.00
N364   N     0.46519   0.66990   0.54043   0.00000  Uiso   1.00
N365   N     0.49448   0.86301   0.72541   0.00000  Uiso   1.00
N366   N     0.29710   0.54312   0.73060   0.00000  Uiso   1.00
N367   N     0.37413   0.69416   0.53563   0.00000  Uiso   1.00
N368   N     0.40342   0.88726   0.72060   0.00000  Uiso   1.00
C369   C     0.54271   0.18179   0.16752   0.00000  Uiso   1.00
C370   C     0.58402   0.14282   0.18506   0.00000  Uiso   1.00
C371   C     0.56802   0.09654   0.20248   0.00000  Uiso   1.00
C372   C     0.61231   0.06626   0.21674   0.00000  Uiso   1.00
C373   C     0.66759   0.00338   0.24443   0.00000  Uiso   1.00
C374   C     0.56279   0.18444   0.13133   0.00000  Uiso   1.00
C375   C     0.52894   0.17316   0.10356   0.00000  Uiso   1.00
C376   C     0.55535   0.17792   0.07259   0.00000  Uiso   1.00
C377   C     0.57767   0.17969   0.01684   0.00000  Uiso   1.00
C378   C     0.55472   0.23765   0.18231   0.00000  Uiso   1.00
C379   C     0.51408   0.27112   0.19741   0.00000  Uiso   1.00
C380   C     0.53370   0.32069   0.20935   0.00000  Uiso   1.00
C381   C     0.54349   0.40508   0.23276   0.00000  Uiso   1.00
C382   C     0.64980   0.21031   0.16187   0.00000  Uiso   1.00
C383   C     0.64218   0.15831   0.18199   0.00000  Uiso   1.00
C384   C     0.68650   0.12810   0.19623   0.00000  Uiso   1.00
C385   C     0.67058   0.08178   0.21367   0.00000  Uiso   1.00
C386   C     0.62095   0.19993   0.12826   0.00000  Uiso   1.00
C387   C     0.64742   0.20471   0.09731   0.00000  Uiso   1.00
C388   C     0.61362   0.19344   0.06951   0.00000  Uiso   1.00
C389   C     0.61289   0.25314   0.17924   0.00000  Uiso   1.00
C390   C     0.63257   0.30268   0.19116   0.00000  Uiso   1.00
C391   C     0.59197   0.33621   0.20627   0.00000  Uiso   1.00
H392   H     0.49743   0.16972   0.16991   0.00000  Uiso   1.00
H393   H     0.52300   0.08456   0.20485   0.00000  Uiso   1.00
H394   H     0.48393   0.16117   0.10595   0.00000  Uiso   1.00
H395   H     0.46908   0.25912   0.19978   0.00000  Uiso   1.00
H396   H     0.57701   0.99696   0.24222   0.00000  Uiso   1.00
H397   H     0.49461   0.15852   0.03368   0.00000  Uiso   1.00
H398   H     0.46329   0.36506   0.23154   0.00000  Uiso   1.00
H399   H     0.69509   0.22237   0.15948   0.00000  Uiso   1.00
H400   H     0.73151   0.14010   0.19385   0.00000  Uiso   1.00
H401   H     0.69243   0.21671   0.09495   0.00000  Uiso   1.00
H402   H     0.67758   0.31465   0.18878   0.00000  Uiso   1.00
H403   H     0.74624   0.04203   0.23329   0.00000  Uiso   1.00
H404   H     0.66384   0.20359   0.02475   0.00000  Uiso   1.00
H405   H     0.63253   0.41013   0.22261   0.00000  Uiso   1.00
O406   O     0.68202   0.96441   0.26054   0.00000  Uiso   1.00
O407   O     0.57391   0.17638   0.98694   0.00000  Uiso   1.00
O408   O     0.53283   0.44735   0.24653   0.00000  Uiso   1.00
N409   N     0.61184   0.01887   0.23541   0.00000  Uiso   1.00
N410   N     0.53481   0.16990   0.04043   0.00000  Uiso   1.00
N411   N     0.50552   0.36301   0.22541   0.00000  Uiso   1.00
N412   N     0.70290   0.04312   0.23060   0.00000  Uiso   1.00
N413   N     0.62587   0.19416   0.03563   0.00000  Uiso   1.00
N414   N     0.59658   0.38726   0.22060   0.00000  Uiso   1.00
C415   C     0.04271   0.68179   0.16752   0.00000  Uiso   1.00
C416   C     0.08402   0.64282   0.18506   0.00000  Uiso   1.00
C417   C     0.06802   0.59654   0.20248   0.00000  Uiso   1.00
C418   C     0.11231   0.56626   0.21674   0.00000  Uiso   1.00
C419   C     0.16759   0.50338   0.24443   0.00000  Uiso   1.00
C420   C     0.06279   0.68444   0.13133   0.00000  Uiso   1.00
C421   C     0.02894   0.67316   0.10356   0.00000  Uiso   1.00
C422   C     0.05535   0.67792   0.07259   0.00000  Uiso   1.00
C423   C     0.07767   0.67969   0.01684   0.00000  Uiso   1.00
C424   C     0.05472   0.73765   0.18231   0.00000  Uiso   1.00
C425   C     0.01408   0.77112   0.19741   0.00000  Uiso   1.00
C426   C     0.03370   0.82069   0.20935   0.00000  Uiso   1.00
C427   C     0.04349   0.90508   0.23276   0.00000  Uiso   1.00
C428   C     0.14980   0.71031   0.16187   0.00000  Uiso   1.00
C429   C     0.14218   0.65831   0.18199   0.00000  Uiso   1.00
C430   C     0.18650   0.62810   0.19623   0.00000  Uiso   1.00
C431   C     0.17058   0.58178   0.21367   0.00000  Uiso   1.00
C432   C     0.12095   0.69993   0.12826   0.00000  Uiso   1.00
C433   C     0.14742   0.70471   0.09731   0.00000  Uiso   1.00
C434   C     0.11362   0.69344   0.06951   0.00000  Uiso   1.00
C435   C     0.11289   0.75314   0.17924   0.00000  Uiso   1.00
C436   C     0.13257   0.80268   0.19116   0.00000  Uiso   1.00
C437   C     0.09197   0.83621   0.20627   0.00000  Uiso   1.00
H438   H     0.99743   0.66972   0.16991   0.00000  Uiso   1.00
H439   H     0.02300   0.58456   0.20485   0.00000  Uiso   1.00
H440   H     0.98393   0.66117   0.10595   0.00000  Uiso   1.00
H441   H     0.96908   0.75912   0.19978   0.00000  Uiso   1.00
H442   H     0.07701   0.49696   0.24222   0.00000  Uiso   1.00
H443   H     0.99461   0.65852   0.03368   0.00000  Uiso   1.00
H444   H     0.96329   0.86506   0.23154   0.00000  Uiso   1.00
H445   H     0.19509   0.72237   0.15948   0.00000  Uiso   1.00
H446   H     0.23151   0.64010   0.19385   0.00000  Uiso   1.00
H447   H     0.19243   0.71671   0.09495   0.00000  Uiso   1.00
H448   H     0.17758   0.81465   0.18878   0.00000  Uiso   1.00
H449   H     0.24624   0.54203   0.23329   0.00000  Uiso   1.00
H450   H     0.16384   0.70359   0.02475   0.00000  Uiso   1.00
H451   H     0.13253   0.91013   0.22261   0.00000  Uiso   1.00
O452   O     0.18202   0.46441   0.26054   0.00000  Uiso   1.00
O453   O     0.07391   0.67638   0.98694   0.00000  Uiso   1.00
O454   O     0.03283   0.94735   0.24653   0.00000  Uiso   1.00
N455   N     0.11184   0.51887   0.23541   0.00000  Uiso   1.00
N456   N     0.03481   0.66990   0.04043   0.00000  Uiso   1.00
N457   N     0.00552   0.86301   0.22541   0.00000  Uiso   1.00
N458   N     0.20290   0.54312   0.23060   0.00000  Uiso   1.00
N459   N     0.12587   0.69416   0.03563   0.00000  Uiso   1.00
N460   N     0.09658   0.88726   0.22060   0.00000  Uiso   1.00
C461   C     0.95729   0.31821   0.16752   0.00000  Uiso   1.00
C462   C     0.91598   0.35718   0.18506   0.00000  Uiso   1.00
C463   C     0.93198   0.40346   0.20248   0.00000  Uiso   1.00
C464   C     0.88769   0.43374   0.21674   0.00000  Uiso   1.00
C465   C     0.83241   0.49662   0.24443   0.00000  Uiso   1.00
C466   C     0.93721   0.31556   0.13133   0.00000  Uiso   1.00
C467   C     0.97106   0.32684   0.10356   0.00000  Uiso   1.00
C468   C     0.94465   0.32208   0.07259   0.00000  Uiso   1.00
C469   C     0.92233   0.32031   0.01684   0.00000  Uiso   1.00
C470   C     0.94528   0.26235   0.18231   0.00000  Uiso   1.00
C471   C     0.98592   0.22888   0.19741   0.00000  Uiso   1.00
C472   C     0.96630   0.17931   0.20935   0.00000  Uiso   1.00
C473   C     0.95651   0.09492   0.23276   0.00000  Uiso   1.00
C474   C     0.85020   0.28969   0.16187   0.00000  Uiso   1.00
C475   C     0.85782   0.34169   0.18199   0.00000  Uiso   1.00
C476   C     0.81350   0.37190   0.19623   0.00000  Uiso   1.00
C477   C     0.82942   0.41822   0.21367   0.00000  Uiso   1.00
C478   C     0.87905   0.30007   0.12826   0.00000  Uiso   1.00
C479   C     0.85258   0.29529   0.09731   0.00000  Uiso   1.00
C480   C     0.88638   0.30656   0.06951   0.00000  Uiso   1.00
C481   C     0.88711   0.24686   0.17924   0.00000  Uiso   1.00
C482   C     0.86743   0.19732   0.19116   0.00000  Uiso   1.00
C483   C     0.90803   0.16379   0.20627   0.00000  Uiso   1.00
H484   H     0.00257   0.33028   0.16991   0.00000  Uiso   1.00
H485   H     0.97700   0.41544   0.20485   0.00000  Uiso   1.00
H486   H     0.01607   0.33883   0.10595   0.00000  Uiso   1.00
H487   H     0.03092   0.24088   0.19978   0.00000  Uiso   1.00
H488   H     0.92299   0.50304   0.24222   0.00000  Uiso   1.00
H489   H     0.00539   0.34148   0.03368   0.00000  Uiso   1.00
H490   H     0.03671   0.13494   0.23154   0.00000  Uiso   1.00
H491   H     0.80491   0.27763   0.15948   0.00000  Uiso   1.00
H492   H     0.76849   0.35990   0.19385   0.00000  Uiso   1.00
H493   H     0.80757   0.28329   0.09495   0.00000  Uiso   1.00
H494   H     0.82242   0.18535   0.18878   0.00000  Uiso   1.00
H495   H     0.75376   0.45797   0.23329   0.00000  Uiso   1.00
H496   H     0.83616   0.29641   0.02475   0.00000  Uiso   1.00
H497   H     0.86747   0.08987   0.22261   0.00000  Uiso   1.00
O498   O     0.81798   0.53559   0.26054   0.00000  Uiso   1.00
O499   O     0.92609   0.32362   0.98694   0.00000  Uiso   1.00
O500   O     0.96717   0.05265   0.24653   0.00000  Uiso   1.00
N501   N     0.88816   0.48113   0.23541   0.00000  Uiso   1.00
N502   N     0.96519   0.33010   0.04043   0.00000  Uiso   1.00
N503   N     0.99448   0.13699   0.22541   0.00000  Uiso   1.00
N504   N     0.79710   0.45688   0.23060   0.00000  Uiso   1.00
N505   N     0.87413   0.30584   0.03563   0.00000  Uiso   1.00
N506   N     0.90342   0.11274   0.22060   0.00000  Uiso   1.00
C507   C     0.45729   0.81821   0.16752   0.00000  Uiso   1.00
C508   C     0.41598   0.85718   0.18506   0.00000  Uiso   1.00
C509   C     0.43198   0.90346   0.20248   0.00000  Uiso   1.00
C510   C     0.38769   0.93374   0.21674   0.00000  Uiso   1.00
C511   C     0.33241   0.99662   0.24443   0.00000  Uiso   1.00
C512   C     0.43721   0.81556   0.13133   0.00000  Uiso   1.00
C513   C     0.47106   0.82684   0.10356   0.00000  Uiso   1.00
C514   C     0.44465   0.82208   0.07259   0.00000  Uiso   1.00
C515   C     0.42233   0.82031   0.01684   0.00000  Uiso   1.00
C516   C     0.44528   0.76235   0.18231   0.00000  Uiso   1.00
C517   C     0.48592   0.72888   0.19741   0.00000  Uiso   1.00
C518   C     0.46630   0.67931   0.20935   0.00000  Uiso   1.00
C519   C     0.45651   0.59492   0.23276   0.00000  Uiso   1.00
C520   C     0.35020   0.78969   0.16187   0.00000  Uiso   1.00
C521   C     0.35782   0.84169   0.18199   0.00000  Uiso   1.00
C522   C     0.31350   0.87190   0.19623   0.00000  Uiso   1.00
C523   C     0.32942   0.91822   0.21367   0.00000  Uiso   1.00
C524   C     0.37905   0.80007   0.12826   0.00000  Uiso   1.00
C525   C     0.35258   0.79529   0.09731   0.00000  Uiso   1.00
C526   C     0.38638   0.80656   0.06951   0.00000  Uiso   1.00
C527   C     0.38711   0.74686   0.17924   0.00000  Uiso   1.00
C528   C     0.36743   0.69732   0.19116   0.00000  Uiso   1.00
C529   C     0.40803   0.66379   0.20627   0.00000  Uiso   1.00
H530   H     0.50257   0.83028   0.16991   0.00000  Uiso   1.00
H531   H     0.47700   0.91544   0.20485   0.00000  Uiso   1.00
H532   H     0.51607   0.83883   0.10595   0.00000  Uiso   1.00
H533   H     0.53092   0.74088   0.19978   0.00000  Uiso   1.00
H534   H     0.42299   0.00304   0.24222   0.00000  Uiso   1.00
H535   H     0.50539   0.84148   0.03368   0.00000  Uiso   1.00
H536   H     0.53671   0.63494   0.23154   0.00000  Uiso   1.00
H537   H     0.30491   0.77763   0.15948   0.00000  Uiso   1.00
H538   H     0.26849   0.85990   0.19385   0.00000  Uiso   1.00
H539   H     0.30757   0.78329   0.09495   0.00000  Uiso   1.00
H540   H     0.32242   0.68535   0.18878   0.00000  Uiso   1.00
H541   H     0.25376   0.95797   0.23329   0.00000  Uiso   1.00
H542   H     0.33616   0.79641   0.02475   0.00000  Uiso   1.00
H543   H     0.36747   0.58987   0.22261   0.00000  Uiso   1.00
O544   O     0.31798   0.03559   0.26054   0.00000  Uiso   1.00
O545   O     0.42609   0.82362   0.98694   0.00000  Uiso   1.00
O546   O     0.46717   0.55265   0.24653   0.00000  Uiso   1.00
N547   N     0.38816   0.98113   0.23541   0.00000  Uiso   1.00
N548   N     0.46519   0.83010   0.04043   0.00000  Uiso   1.00
N549   N     0.49448   0.63699   0.22541   0.00000  Uiso   1.00
N550   N     0.29710   0.95688   0.23060   0.00000  Uiso   1.00
N551   N     0.37413   0.80584   0.03563   0.00000  Uiso   1.00
N552   N     0.40342   0.61274   0.22060   0.00000  Uiso   1.00
C553   C     0.45729   0.18179   0.83248   0.00000  Uiso   1.00
C554   C     0.41598   0.14282   0.81494   0.00000  Uiso   1.00
C555   C     0.43198   0.09654   0.79752   0.00000  Uiso   1.00
C556   C     0.38769   0.06626   0.78326   0.00000  Uiso   1.00
C557   C     0.33241   0.00338   0.75557   0.00000  Uiso   1.00
C558   C     0.43721   0.18444   0.86867   0.00000  Uiso   1.00
C559   C     0.47106   0.17316   0.89644   0.00000  Uiso   1.00
C560   C     0.44465   0.17792   0.92741   0.00000  Uiso   1.00
C561   C     0.42233   0.17969   0.98316   0.00000  Uiso   1.00
C562   C     0.44528   0.23765   0.81769   0.00000  Uiso   1.00
C563   C     0.48592   0.27112   0.80259   0.00000  Uiso   1.00
C564   C     0.46630   0.32069   0.79065   0.00000  Uiso   1.00
C565   C     0.45651   0.40508   0.76724   0.00000  Uiso   1.00
C566   C     0.35020   0.21031   0.83813   0.00000  Uiso   1.00
C567   C     0.35782   0.15831   0.81801   0.00000  Uiso   1.00
C568   C     0.31350   0.12810   0.80377   0.00000  Uiso   1.00
C569   C     0.32942   0.08178   0.78633   0.00000  Uiso   1.00
C570   C     0.37905   0.19993   0.87174   0.00000  Uiso   1.00
C571   C     0.35258   0.20471   0.90269   0.00000  Uiso   1.00
C572   C     0.38638   0.19344   0.93049   0.00000  Uiso   1.00
C573   C     0.38711   0.25314   0.82076   0.00000  Uiso   1.00
C574   C     0.36743   0.30268   0.80884   0.00000  Uiso   1.00
C575   C     0.40803   0.33621   0.79373   0.00000  Uiso   1.00
H576   H     0.50257   0.16972   0.83009   0.00000  Uiso   1.00
H577   H     0.47700   0.08456   0.79515   0.00000  Uiso   1.00
H578   H     0.51607   0.16117   0.89405   0.00000  Uiso   1.00
H579   H     0.53092   0.25912   0.80022   0.00000  Uiso   1.00
H580   H     0.42299   0.99696   0.75778   0.00000  Uiso   1.00
H581   H     0.50539   0.15852   0.96632   0.00000  Uiso   1.00
H582   H     0.53671   0.36506   0.76846   0.00000  Uiso   1.00
H583   H     0.30491   0.22237   0.84052   0.00000  Uiso   1.00
H584   H     0.26849   0.14010   0.80615   0.00000  Uiso   1.00
H585   H     0.30757   0.21671   0.90505   0.00000  Uiso   1.00
H586   H     0.32242   0.31465   0.81122   0.00000  Uiso   1.00
H587   H     0.25376   0.04203   0.76671   0.00000  Uiso   1.00
H588   H     0.33616   0.20359   0.97525   0.00000  Uiso   1.00
H589   H     0.36747   0.41013   0.77739   0.00000  Uiso   1.00
O590   O     0.31798   0.96441   0.73946   0.00000  Uiso   1.00
O591   O     0.42609   0.17638   0.01306   0.00000  Uiso   1.00
O592   O     0.46717   0.44735   0.75347   0.00000  Uiso   1.00
N593   N     0.38816   0.01887   0.76459   0.00000  Uiso   1.00
N594   N     0.46519   0.16990   0.95957   0.00000  Uiso   1.00
N595   N     0.49448   0.36301   0.77459   0.00000  Uiso   1.00
N596   N     0.29710   0.04312   0.76940   0.00000  Uiso   1.00
N597   N     0.37413   0.19416   0.96437   0.00000  Uiso   1.00
N598   N     0.40342   0.38726   0.77940   0.00000  Uiso   1.00
C599   C     0.95729   0.68179   0.83248   0.00000  Uiso   1.00
C600   C     0.91598   0.64282   0.81494   0.00000  Uiso   1.00
C601   C     0.93198   0.59654   0.79752   0.00000  Uiso   1.00
C602   C     0.88769   0.56626   0.78326   0.00000  Uiso   1.00
C603   C     0.83241   0.50338   0.75557   0.00000  Uiso   1.00
C604   C     0.93721   0.68444   0.86867   0.00000  Uiso   1.00
C605   C     0.97106   0.67316   0.89644   0.00000  Uiso   1.00
C606   C     0.94465   0.67792   0.92741   0.00000  Uiso   1.00
C607   C     0.92233   0.67969   0.98316   0.00000  Uiso   1.00
C608   C     0.94528   0.73765   0.81769   0.00000  Uiso   1.00
C609   C     0.98592   0.77112   0.80259   0.00000  Uiso   1.00
C610   C     0.96630   0.82069   0.79065   0.00000  Uiso   1.00
C611   C     0.95651   0.90508   0.76724   0.00000  Uiso   1.00
C612   C     0.85020   0.71031   0.83813   0.00000  Uiso   1.00
C613   C     0.85782   0.65831   0.81801   0.00000  Uiso   1.00
C614   C     0.81350   0.62810   0.80377   0.00000  Uiso   1.00
C615   C     0.82942   0.58178   0.78633   0.00000  Uiso   1.00
C616   C     0.87905   0.69993   0.87174   0.00000  Uiso   1.00
C617   C     0.85258   0.70471   0.90269   0.00000  Uiso   1.00
C618   C     0.88638   0.69344   0.93049   0.00000  Uiso   1.00
C619   C     0.88711   0.75314   0.82076   0.00000  Uiso   1.00
C620   C     0.86743   0.80268   0.80884   0.00000  Uiso   1.00
C621   C     0.90803   0.83621   0.79373   0.00000  Uiso   1.00
H622   H     0.00257   0.66972   0.83009   0.00000  Uiso   1.00
H623   H     0.97700   0.58456   0.79515   0.00000  Uiso   1.00
H624   H     0.01607   0.66117   0.89405   0.00000  Uiso   1.00
H625   H     0.03092   0.75912   0.80022   0.00000  Uiso   1.00
H626   H     0.92299   0.49696   0.75778   0.00000  Uiso   1.00
H627   H     0.00539   0.65852   0.96632   0.00000  Uiso   1.00
H628   H     0.03671   0.86506   0.76846   0.00000  Uiso   1.00
H629   H     0.80491   0.72237   0.84052   0.00000  Uiso   1.00
H630   H     0.76849   0.64010   0.80615   0.00000  Uiso   1.00
H631   H     0.80757   0.71671   0.90505   0.00000  Uiso   1.00
H632   H     0.82242   0.81465   0.81122   0.00000  Uiso   1.00
H633   H     0.75376   0.54203   0.76671   0.00000  Uiso   1.00
H634   H     0.83616   0.70359   0.97525   0.00000  Uiso   1.00
H635   H     0.86747   0.91013   0.77739   0.00000  Uiso   1.00
O636   O     0.81798   0.46441   0.73946   0.00000  Uiso   1.00
O637   O     0.92609   0.67638   0.01306   0.00000  Uiso   1.00
O638   O     0.96717   0.94735   0.75347   0.00000  Uiso   1.00
N639   N     0.88816   0.51887   0.76459   0.00000  Uiso   1.00
N640   N     0.96519   0.66990   0.95957   0.00000  Uiso   1.00
N641   N     0.99448   0.86301   0.77459   0.00000  Uiso   1.00
N642   N     0.79710   0.54312   0.76940   0.00000  Uiso   1.00
N643   N     0.87413   0.69416   0.96437   0.00000  Uiso   1.00
N644   N     0.90342   0.88726   0.77940   0.00000  Uiso   1.00
C645   C     0.04271   0.31821   0.83248   0.00000  Uiso   1.00
C646   C     0.08402   0.35718   0.81494   0.00000  Uiso   1.00
C647   C     0.06802   0.40346   0.79752   0.00000  Uiso   1.00
C648   C     0.11231   0.43374   0.78326   0.00000  Uiso   1.00
C649   C     0.16759   0.49662   0.75557   0.00000  Uiso   1.00
C650   C     0.06279   0.31556   0.86867   0.00000  Uiso   1.00
C651   C     0.02894   0.32684   0.89644   0.00000  Uiso   1.00
C652   C     0.05535   0.32208   0.92741   0.00000  Uiso   1.00
C653   C     0.07767   0.32031   0.98316   0.00000  Uiso   1.00
C654   C     0.05472   0.26235   0.81769   0.00000  Uiso   1.00
C655   C     0.01408   0.22888   0.80259   0.00000  Uiso   1.00
C656   C     0.03370   0.17931   0.79065   0.00000  Uiso   1.00
C657   C     0.04349   0.09492   0.76724   0.00000  Uiso   1.00
C658   C     0.14980   0.28969   0.83813   0.00000  Uiso   1.00
C659   C     0.14218   0.34169   0.81801   0.00000  Uiso   1.00
C660   C     0.18650   0.37190   0.80377   0.00000  Uiso   1.00
C661   C     0.17058   0.41822   0.78633   0.00000  Uiso   1.00
C662   C     0.12095   0.30007   0.87174   0.00000  Uiso   1.00
C663   C     0.14742   0.29529   0.90269   0.00000  Uiso   1.00
C664   C     0.11362   0.30656   0.93049   0.00000  Uiso   1.00
C665   C     0.11289   0.24686   0.82076   0.00000  Uiso   1.00
C666   C     0.13257   0.19732   0.80884   0.00000  Uiso   1.00
C667   C     0.09197   0.16379   0.79373   0.00000  Uiso   1.00
H668   H     0.99743   0.33028   0.83009   0.00000  Uiso   1.00
H669   H     0.02300   0.41544   0.79515   0.00000  Uiso   1.00
H670   H     0.98393   0.33883   0.89405   0.00000  Uiso   1.00
H671   H     0.96908   0.24088   0.80022   0.00000  Uiso   1.00
H672   H     0.07701   0.50304   0.75778   0.00000  Uiso   1.00
H673   H     0.99461   0.34148   0.96632   0.00000  Uiso   1.00
H674   H     0.96329   0.13494   0.76846   0.00000  Uiso   1.00
H675   H     0.19509   0.27763   0.84052   0.00000  Uiso   1.00
H676   H     0.23151   0.35990   0.80615   0.00000  Uiso   1.00
H677   H     0.19243   0.28329   0.90505   0.00000  Uiso   1.00
H678   H     0.17758   0.18535   0.81122   0.00000  Uiso   1.00
H679   H     0.24624   0.45797   0.76671   0.00000  Uiso   1.00
H680   H     0.16384   0.29641   0.97525   0.00000  Uiso   1.00
H681   H     0.13253   0.08987   0.77739   0.00000  Uiso   1.00
O682   O     0.18202   0.53559   0.73946   0.00000  Uiso   1.00
O683   O     0.07391   0.32362   0.01306   0.00000  Uiso   1.00
O684   O     0.03283   0.05265   0.75347   0.00000  Uiso   1.00
N685   N     0.11184   0.48113   0.76459   0.00000  Uiso   1.00
N686   N     0.03481   0.33010   0.95957   0.00000  Uiso   1.00
N687   N     0.00552   0.13699   0.77459   0.00000  Uiso   1.00
N688   N     0.20290   0.45688   0.76940   0.00000  Uiso   1.00
N689   N     0.12587   0.30584   0.96437   0.00000  Uiso   1.00
N690   N     0.09658   0.11274   0.77940   0.00000  Uiso   1.00
C691   C     0.54271   0.81821   0.83248   0.00000  Uiso   1.00
C692   C     0.58402   0.85718   0.81494   0.00000  Uiso   1.00
C693   C     0.56802   0.90346   0.79752   0.00000  Uiso   1.00
C694   C     0.61231   0.93374   0.78326   0.00000  Uiso   1.00
C695   C     0.66759   0.99662   0.75557   0.00000  Uiso   1.00
C696   C     0.56279   0.81556   0.86867   0.00000  Uiso   1.00
C697   C     0.52894   0.82684   0.89644   0.00000  Uiso   1.00
C698   C     0.55535   0.82208   0.92741   0.00000  Uiso   1.00
C699   C     0.57767   0.82031   0.98316   0.00000  Uiso   1.00
C700   C     0.55472   0.76235   0.81769   0.00000  Uiso   1.00
C701   C     0.51408   0.72888   0.80259   0.00000  Uiso   1.00
C702   C     0.53370   0.67931   0.79065   0.00000  Uiso   1.00
C703   C     0.54349   0.59492   0.76724   0.00000  Uiso   1.00
C704   C     0.64980   0.78969   0.83813   0.00000  Uiso   1.00
C705   C     0.64218   0.84169   0.81801   0.00000  Uiso   1.00
C706   C     0.68650   0.87190   0.80377   0.00000  Uiso   1.00
C707   C     0.67058   0.91822   0.78633   0.00000  Uiso   1.00
C708   C     0.62095   0.80007   0.87174   0.00000  Uiso   1.00
C709   C     0.64742   0.79529   0.90269   0.00000  Uiso   1.00
C710   C     0.61362   0.80656   0.93049   0.00000  Uiso   1.00
C711   C     0.61289   0.74686   0.82076   0.00000  Uiso   1.00
C712   C     0.63257   0.69732   0.80884   0.00000  Uiso   1.00
C713   C     0.59197   0.66379   0.79373   0.00000  Uiso   1.00
H714   H     0.49743   0.83028   0.83009   0.00000  Uiso   1.00
H715   H     0.52300   0.91544   0.79515   0.00000  Uiso   1.00
H716   H     0.48393   0.83883   0.89405   0.00000  Uiso   1.00
H717   H     0.46908   0.74088   0.80022   0.00000  Uiso   1.00
H718   H     0.57701   0.00304   0.75778   0.00000  Uiso   1.00
H719   H     0.49461   0.84148   0.96632   0.00000  Uiso   1.00
H720   H     0.46329   0.63494   0.76846   0.00000  Uiso   1.00
H721   H     0.69509   0.77763   0.84052   0.00000  Uiso   1.00
H722   H     0.73151   0.85990   0.80615   0.00000  Uiso   1.00
H723   H     0.69243   0.78329   0.90505   0.00000  Uiso   1.00
H724   H     0.67758   0.68535   0.81122   0.00000  Uiso   1.00
H725   H     0.74624   0.95797   0.76671   0.00000  Uiso   1.00
H726   H     0.66384   0.79641   0.97525   0.00000  Uiso   1.00
H727   H     0.63253   0.58987   0.77739   0.00000  Uiso   1.00
O728   O     0.68202   0.03559   0.73946   0.00000  Uiso   1.00
O729   O     0.57391   0.82362   0.01306   0.00000  Uiso   1.00
O730   O     0.53283   0.55265   0.75347   0.00000  Uiso   1.00
N731   N     0.61184   0.98113   0.76459   0.00000  Uiso   1.00
N732   N     0.53481   0.83010   0.95957   0.00000  Uiso   1.00
N733   N     0.50552   0.63699   0.77459   0.00000  Uiso   1.00
N734   N     0.70290   0.95688   0.76940   0.00000  Uiso   1.00
N735   N     0.62587   0.80584   0.96437   0.00000  Uiso   1.00
N736   N     0.59658   0.61274   0.77940   0.00000  Uiso   1.00
