data_job_01354
_audit_creation_date              2018-12-19
_audit_creation_method            'Materials Studio'
_symmetry_space_group_name_H-M    'P1'
_symmetry_Int_Tables_number       1
_symmetry_cell_setting            triclinic
loop_
_symmetry_equiv_pos_as_xyz
  x,y,z
_cell_length_a                    21.6999
_cell_length_b                    23.9458
_cell_length_c                    22.0361
_cell_angle_alpha                 90.0000
_cell_angle_beta                  90.0000
_cell_angle_gamma                 90.0000
loop_
_atom_site_label
_atom_site_type_symbol
_atom_site_fract_x
_atom_site_fract_y
_atom_site_fract_z
_atom_site_U_iso_or_equiv
_atom_site_adp_type
_atom_site_occupancy
C1     C     0.21272   0.13254   0.92802   0.00000  Uiso   1.00
C2     C     0.20890   0.13204   0.99712   0.00000  Uiso   1.00
C3     C     0.25852   0.13579   0.03665   0.00000  Uiso   1.00
C4     C     0.24540   0.13457   0.09830   0.00000  Uiso   1.00
C5     C     0.24869   0.13449   0.20235   0.00000  Uiso   1.00
C6     C     0.18125   0.07908   0.90673   0.00000  Uiso   1.00
C7     C     0.20761   0.03832   0.87026   0.00000  Uiso   1.00
C8     C     0.17120   0.99252   0.85582   0.00000  Uiso   1.00
C9     C     0.13153   0.91025   0.81950   0.00000  Uiso   1.00
C10    C     0.17159   0.18044   0.90708   0.00000  Uiso   1.00
C11    C     0.18983   0.22490   0.87088   0.00000  Uiso   1.00
C12    C     0.14529   0.26444   0.85672   0.00000  Uiso   1.00
C13    C     0.09064   0.33954   0.82094   0.00000  Uiso   1.00
C14    C     0.10120   0.12370   0.96723   0.00000  Uiso   1.00
C15    C     0.14833   0.12724   0.01841   0.00000  Uiso   1.00
C16    C     0.13513   0.12602   0.08002   0.00000  Uiso   1.00
C17    C     0.18472   0.12977   0.11963   0.00000  Uiso   1.00
C18    C     0.12067   0.07428   0.92803   0.00000  Uiso   1.00
C19    C     0.08422   0.02854   0.91363   0.00000  Uiso   1.00
C20    C     0.11052   0.98771   0.87715   0.00000  Uiso   1.00
C21    C     0.11102   0.17564   0.92837   0.00000  Uiso   1.00
C22    C     0.06644   0.21512   0.91426   0.00000  Uiso   1.00
C23    C     0.08461   0.25963   0.87805   0.00000  Uiso   1.00
H24    H     0.25988   0.13628   0.91144   0.00000  Uiso   1.00
H25    H     0.30539   0.13950   0.02015   0.00000  Uiso   1.00
H26    H     0.25448   0.04205   0.85378   0.00000  Uiso   1.00
H27    H     0.23671   0.22860   0.85441   0.00000  Uiso   1.00
H28    H     0.32913   0.14094   0.15006   0.00000  Uiso   1.00
H29    H     0.22178   0.93546   0.79925   0.00000  Uiso   1.00
H30    H     0.18431   0.32884   0.80057   0.00000  Uiso   1.00
H31    H     0.05404   0.11997   0.98380   0.00000  Uiso   1.00
H32    H     0.08825   0.12230   0.09648   0.00000  Uiso   1.00
H33    H     0.03734   0.02484   0.93011   0.00000  Uiso   1.00
H34    H     0.01957   0.21139   0.93074   0.00000  Uiso   1.00
H35    H     0.15289   0.12698   0.21202   0.00000  Uiso   1.00
H36    H     0.04554   0.92149   0.86120   0.00000  Uiso   1.00
H37    H     0.00807   0.31487   0.86253   0.00000  Uiso   1.00
O38    O     0.26724   0.13577   0.25386   0.00000  Uiso   1.00
O39    O     0.12639   0.86619   0.79360   0.00000  Uiso   1.00
O40    O     0.07723   0.38230   0.79534   0.00000  Uiso   1.00
N41    N     0.28296   0.13735   0.14918   0.00000  Uiso   1.00
N42    N     0.18260   0.94523   0.82120   0.00000  Uiso   1.00
N43    N     0.14756   0.31300   0.82242   0.00000  Uiso   1.00
N44    N     0.18813   0.12983   0.18252   0.00000  Uiso   1.00
N45    N     0.08776   0.93771   0.85454   0.00000  Uiso   1.00
N46    N     0.05272   0.30548   0.85576   0.00000  Uiso   1.00
C47    C     0.86024   0.70059   0.08905   0.00000  Uiso   1.00
C48    C     0.86259   0.69299   0.15772   0.00000  Uiso   1.00
C49    C     0.86810   0.73552   0.20015   0.00000  Uiso   1.00
C50    C     0.86942   0.71996   0.26083   0.00000  Uiso   1.00
C51    C     0.87371   0.71669   0.36479   0.00000  Uiso   1.00
C52    C     0.91243   0.66506   0.06342   0.00000  Uiso   1.00
C53    C     0.95985   0.68410   0.02656   0.00000  Uiso   1.00
C54    C     0.00312   0.64502   0.00785   0.00000  Uiso   1.00
C55    C     0.08477   0.59839   0.96537   0.00000  Uiso   1.00
C56    C     0.80060   0.67294   0.06814   0.00000  Uiso   1.00
C57    C     0.75400   0.69860   0.03524   0.00000  Uiso   1.00
C58    C     0.70313   0.66615   0.02050   0.00000  Uiso   1.00
C59    C     0.61115   0.63175   0.98535   0.00000  Uiso   1.00
C60    C     0.85279   0.59732   0.12134   0.00000  Uiso   1.00
C61    C     0.85854   0.63690   0.17526   0.00000  Uiso   1.00
C62    C     0.85985   0.62127   0.23589   0.00000  Uiso   1.00
C63    C     0.86536   0.66376   0.27841   0.00000  Uiso   1.00
C64    C     0.90839   0.60897   0.08096   0.00000  Uiso   1.00
C65    C     0.95160   0.56985   0.06229   0.00000  Uiso   1.00
C66    C     0.99907   0.58883   0.02542   0.00000  Uiso   1.00
C67    C     0.79655   0.61685   0.08568   0.00000  Uiso   1.00
C68    C     0.74575   0.58435   0.07098   0.00000  Uiso   1.00
C69    C     0.69907   0.60996   0.03807   0.00000  Uiso   1.00
H70    H     0.86340   0.74426   0.07539   0.00000  Uiso   1.00
H71    H     0.87124   0.77892   0.18656   0.00000  Uiso   1.00
H72    H     0.96296   0.72751   0.01299   0.00000  Uiso   1.00
H73    H     0.75715   0.74201   0.02168   0.00000  Uiso   1.00
H74    H     0.87816   0.79262   0.31755   0.00000  Uiso   1.00
H75    H     0.07157   0.68421   0.95155   0.00000  Uiso   1.00
H76    H     0.63756   0.71479   0.96987   0.00000  Uiso   1.00
H77    H     0.84964   0.55365   0.13500   0.00000  Uiso   1.00
H78    H     0.85672   0.57786   0.24945   0.00000  Uiso   1.00
H79    H     0.94845   0.52645   0.07587   0.00000  Uiso   1.00
H80    H     0.74263   0.54094   0.08456   0.00000  Uiso   1.00
H81    H     0.86639   0.62943   0.36859   0.00000  Uiso   1.00
H82    H     0.05979   0.52102   0.00259   0.00000  Uiso   1.00
H83    H     0.62578   0.55159   0.02091   0.00000  Uiso   1.00
O84    O     0.87720   0.73039   0.41728   0.00000  Uiso   1.00
O85    O     0.13093   0.58816   0.93709   0.00000  Uiso   1.00
O86    O     0.56153   0.62828   0.96113   0.00000  Uiso   1.00
N87    N     0.87441   0.75089   0.31386   0.00000  Uiso   1.00
N88    N     0.05523   0.64954   0.97167   0.00000  Uiso   1.00
N89    N     0.64948   0.67812   0.98879   0.00000  Uiso   1.00
N90    N     0.86807   0.66308   0.34132   0.00000  Uiso   1.00
N91    N     0.04890   0.56173   0.99914   0.00000  Uiso   1.00
N92    N     0.64314   0.59031   0.01625   0.00000  Uiso   1.00
C93    C     0.71272   0.63254   0.42802   0.00000  Uiso   1.00
C94    C     0.70890   0.63204   0.49712   0.00000  Uiso   1.00
C95    C     0.75852   0.63579   0.53665   0.00000  Uiso   1.00
C96    C     0.74540   0.63457   0.59830   0.00000  Uiso   1.00
C97    C     0.74869   0.63449   0.70235   0.00000  Uiso   1.00
C98    C     0.68125   0.57908   0.40673   0.00000  Uiso   1.00
C99    C     0.70761   0.53832   0.37026   0.00000  Uiso   1.00
C100   C     0.67120   0.49252   0.35582   0.00000  Uiso   1.00
C101   C     0.63153   0.41025   0.31950   0.00000  Uiso   1.00
C102   C     0.67159   0.68044   0.40708   0.00000  Uiso   1.00
C103   C     0.68983   0.72490   0.37088   0.00000  Uiso   1.00
C104   C     0.64529   0.76444   0.35672   0.00000  Uiso   1.00
C105   C     0.59064   0.83954   0.32094   0.00000  Uiso   1.00
C106   C     0.60120   0.62370   0.46723   0.00000  Uiso   1.00
C107   C     0.64833   0.62724   0.51841   0.00000  Uiso   1.00
C108   C     0.63513   0.62602   0.58002   0.00000  Uiso   1.00
C109   C     0.68472   0.62977   0.61963   0.00000  Uiso   1.00
C110   C     0.62067   0.57428   0.42803   0.00000  Uiso   1.00
C111   C     0.58422   0.52854   0.41363   0.00000  Uiso   1.00
C112   C     0.61052   0.48771   0.37715   0.00000  Uiso   1.00
C113   C     0.61102   0.67564   0.42837   0.00000  Uiso   1.00
C114   C     0.56644   0.71512   0.41426   0.00000  Uiso   1.00
C115   C     0.58461   0.75963   0.37805   0.00000  Uiso   1.00
H116   H     0.75988   0.63628   0.41144   0.00000  Uiso   1.00
H117   H     0.80539   0.63950   0.52015   0.00000  Uiso   1.00
H118   H     0.75448   0.54205   0.35378   0.00000  Uiso   1.00
H119   H     0.73671   0.72860   0.35441   0.00000  Uiso   1.00
H120   H     0.82913   0.64094   0.65006   0.00000  Uiso   1.00
H121   H     0.72178   0.43546   0.29925   0.00000  Uiso   1.00
H122   H     0.68431   0.82884   0.30057   0.00000  Uiso   1.00
H123   H     0.55404   0.61997   0.48380   0.00000  Uiso   1.00
H124   H     0.58825   0.62230   0.59648   0.00000  Uiso   1.00
H125   H     0.53734   0.52484   0.43011   0.00000  Uiso   1.00
H126   H     0.51957   0.71139   0.43074   0.00000  Uiso   1.00
H127   H     0.65289   0.62698   0.71202   0.00000  Uiso   1.00
H128   H     0.54554   0.42149   0.36120   0.00000  Uiso   1.00
H129   H     0.50807   0.81487   0.36253   0.00000  Uiso   1.00
O130   O     0.76724   0.63577   0.75386   0.00000  Uiso   1.00
O131   O     0.62639   0.36619   0.29360   0.00000  Uiso   1.00
O132   O     0.57723   0.88230   0.29534   0.00000  Uiso   1.00
N133   N     0.78296   0.63735   0.64918   0.00000  Uiso   1.00
N134   N     0.68260   0.44523   0.32120   0.00000  Uiso   1.00
N135   N     0.64756   0.81300   0.32242   0.00000  Uiso   1.00
N136   N     0.68813   0.62983   0.68252   0.00000  Uiso   1.00
N137   N     0.58776   0.43771   0.35454   0.00000  Uiso   1.00
N138   N     0.55272   0.80548   0.35576   0.00000  Uiso   1.00
C139   C     0.36024   0.20059   0.58905   0.00000  Uiso   1.00
C140   C     0.36259   0.19299   0.65772   0.00000  Uiso   1.00
C141   C     0.36810   0.23552   0.70015   0.00000  Uiso   1.00
C142   C     0.36942   0.21996   0.76083   0.00000  Uiso   1.00
C143   C     0.37371   0.21669   0.86479   0.00000  Uiso   1.00
C144   C     0.41243   0.16506   0.56342   0.00000  Uiso   1.00
C145   C     0.45985   0.18410   0.52656   0.00000  Uiso   1.00
C146   C     0.50312   0.14502   0.50785   0.00000  Uiso   1.00
C147   C     0.58477   0.09839   0.46537   0.00000  Uiso   1.00
C148   C     0.30060   0.17294   0.56814   0.00000  Uiso   1.00
C149   C     0.25400   0.19860   0.53524   0.00000  Uiso   1.00
C150   C     0.20313   0.16615   0.52050   0.00000  Uiso   1.00
C151   C     0.11115   0.13175   0.48535   0.00000  Uiso   1.00
C152   C     0.35279   0.09732   0.62134   0.00000  Uiso   1.00
C153   C     0.35854   0.13690   0.67526   0.00000  Uiso   1.00
C154   C     0.35985   0.12127   0.73589   0.00000  Uiso   1.00
C155   C     0.36536   0.16376   0.77841   0.00000  Uiso   1.00
C156   C     0.40839   0.10897   0.58096   0.00000  Uiso   1.00
C157   C     0.45160   0.06985   0.56229   0.00000  Uiso   1.00
C158   C     0.49907   0.08883   0.52542   0.00000  Uiso   1.00
C159   C     0.29655   0.11685   0.58568   0.00000  Uiso   1.00
C160   C     0.24575   0.08435   0.57098   0.00000  Uiso   1.00
C161   C     0.19907   0.10996   0.53807   0.00000  Uiso   1.00
H162   H     0.36340   0.24426   0.57539   0.00000  Uiso   1.00
H163   H     0.37124   0.27892   0.68656   0.00000  Uiso   1.00
H164   H     0.46296   0.22751   0.51299   0.00000  Uiso   1.00
H165   H     0.25715   0.24201   0.52168   0.00000  Uiso   1.00
H166   H     0.37816   0.29262   0.81755   0.00000  Uiso   1.00
H167   H     0.57157   0.18421   0.45155   0.00000  Uiso   1.00
H168   H     0.13756   0.21479   0.46987   0.00000  Uiso   1.00
H169   H     0.34964   0.05365   0.63500   0.00000  Uiso   1.00
H170   H     0.35672   0.07786   0.74945   0.00000  Uiso   1.00
H171   H     0.44845   0.02645   0.57587   0.00000  Uiso   1.00
H172   H     0.24263   0.04094   0.58456   0.00000  Uiso   1.00
H173   H     0.36639   0.12943   0.86859   0.00000  Uiso   1.00
H174   H     0.55979   0.02102   0.50259   0.00000  Uiso   1.00
H175   H     0.12578   0.05159   0.52091   0.00000  Uiso   1.00
O176   O     0.37720   0.23039   0.91728   0.00000  Uiso   1.00
O177   O     0.63093   0.08816   0.43709   0.00000  Uiso   1.00
O178   O     0.06153   0.12828   0.46113   0.00000  Uiso   1.00
N179   N     0.37441   0.25089   0.81386   0.00000  Uiso   1.00
N180   N     0.55523   0.14954   0.47167   0.00000  Uiso   1.00
N181   N     0.14948   0.17812   0.48879   0.00000  Uiso   1.00
N182   N     0.36807   0.16308   0.84132   0.00000  Uiso   1.00
N183   N     0.54890   0.06173   0.49914   0.00000  Uiso   1.00
N184   N     0.14314   0.09031   0.51625   0.00000  Uiso   1.00
C185   C     0.78728   0.86746   0.92802   0.00000  Uiso   1.00
C186   C     0.79110   0.86796   0.99712   0.00000  Uiso   1.00
C187   C     0.74148   0.86421   0.03665   0.00000  Uiso   1.00
C188   C     0.75460   0.86543   0.09830   0.00000  Uiso   1.00
C189   C     0.75131   0.86551   0.20235   0.00000  Uiso   1.00
C190   C     0.81875   0.92092   0.90673   0.00000  Uiso   1.00
C191   C     0.79239   0.96168   0.87026   0.00000  Uiso   1.00
C192   C     0.82880   0.00748   0.85582   0.00000  Uiso   1.00
C193   C     0.86847   0.08975   0.81950   0.00000  Uiso   1.00
C194   C     0.82841   0.81956   0.90708   0.00000  Uiso   1.00
C195   C     0.81017   0.77510   0.87088   0.00000  Uiso   1.00
C196   C     0.85471   0.73556   0.85672   0.00000  Uiso   1.00
C197   C     0.90936   0.66046   0.82094   0.00000  Uiso   1.00
C198   C     0.89880   0.87630   0.96723   0.00000  Uiso   1.00
C199   C     0.85167   0.87276   0.01841   0.00000  Uiso   1.00
C200   C     0.86487   0.87398   0.08002   0.00000  Uiso   1.00
C201   C     0.81528   0.87023   0.11963   0.00000  Uiso   1.00
C202   C     0.87933   0.92572   0.92803   0.00000  Uiso   1.00
C203   C     0.91578   0.97146   0.91363   0.00000  Uiso   1.00
C204   C     0.88948   0.01229   0.87715   0.00000  Uiso   1.00
C205   C     0.88898   0.82436   0.92837   0.00000  Uiso   1.00
C206   C     0.93356   0.78488   0.91426   0.00000  Uiso   1.00
C207   C     0.91539   0.74037   0.87805   0.00000  Uiso   1.00
H208   H     0.74012   0.86372   0.91144   0.00000  Uiso   1.00
H209   H     0.69461   0.86050   0.02015   0.00000  Uiso   1.00
H210   H     0.74552   0.95795   0.85378   0.00000  Uiso   1.00
H211   H     0.76329   0.77140   0.85441   0.00000  Uiso   1.00
H212   H     0.67087   0.85906   0.15006   0.00000  Uiso   1.00
H213   H     0.77822   0.06454   0.79925   0.00000  Uiso   1.00
H214   H     0.81569   0.67116   0.80057   0.00000  Uiso   1.00
H215   H     0.94596   0.88003   0.98380   0.00000  Uiso   1.00
H216   H     0.91175   0.87770   0.09648   0.00000  Uiso   1.00
H217   H     0.96266   0.97516   0.93011   0.00000  Uiso   1.00
H218   H     0.98043   0.78861   0.93074   0.00000  Uiso   1.00
H219   H     0.84711   0.87302   0.21202   0.00000  Uiso   1.00
H220   H     0.95446   0.07851   0.86120   0.00000  Uiso   1.00
H221   H     0.99193   0.68513   0.86253   0.00000  Uiso   1.00
O222   O     0.73276   0.86423   0.25386   0.00000  Uiso   1.00
O223   O     0.87361   0.13381   0.79360   0.00000  Uiso   1.00
O224   O     0.92277   0.61770   0.79534   0.00000  Uiso   1.00
N225   N     0.71704   0.86265   0.14918   0.00000  Uiso   1.00
N226   N     0.81740   0.05477   0.82120   0.00000  Uiso   1.00
N227   N     0.85244   0.68700   0.82242   0.00000  Uiso   1.00
N228   N     0.81187   0.87017   0.18252   0.00000  Uiso   1.00
N229   N     0.91224   0.06229   0.85454   0.00000  Uiso   1.00
N230   N     0.94728   0.69452   0.85576   0.00000  Uiso   1.00
C231   C     0.13976   0.29941   0.08905   0.00000  Uiso   1.00
C232   C     0.13741   0.30701   0.15772   0.00000  Uiso   1.00
C233   C     0.13190   0.26448   0.20015   0.00000  Uiso   1.00
C234   C     0.13058   0.28004   0.26083   0.00000  Uiso   1.00
C235   C     0.12629   0.28331   0.36479   0.00000  Uiso   1.00
C236   C     0.08757   0.33494   0.06342   0.00000  Uiso   1.00
C237   C     0.04015   0.31590   0.02656   0.00000  Uiso   1.00
C238   C     0.99688   0.35498   0.00785   0.00000  Uiso   1.00
C239   C     0.91523   0.40161   0.96537   0.00000  Uiso   1.00
C240   C     0.19940   0.32706   0.06814   0.00000  Uiso   1.00
C241   C     0.24600   0.30140   0.03524   0.00000  Uiso   1.00
C242   C     0.29687   0.33385   0.02050   0.00000  Uiso   1.00
C243   C     0.38885   0.36825   0.98535   0.00000  Uiso   1.00
C244   C     0.14721   0.40268   0.12134   0.00000  Uiso   1.00
C245   C     0.14146   0.36310   0.17526   0.00000  Uiso   1.00
C246   C     0.14015   0.37873   0.23589   0.00000  Uiso   1.00
C247   C     0.13464   0.33624   0.27841   0.00000  Uiso   1.00
C248   C     0.09161   0.39103   0.08096   0.00000  Uiso   1.00
C249   C     0.04840   0.43015   0.06229   0.00000  Uiso   1.00
C250   C     0.00093   0.41117   0.02542   0.00000  Uiso   1.00
C251   C     0.20345   0.38315   0.08568   0.00000  Uiso   1.00
C252   C     0.25425   0.41565   0.07098   0.00000  Uiso   1.00
C253   C     0.30093   0.39004   0.03807   0.00000  Uiso   1.00
H254   H     0.13660   0.25574   0.07539   0.00000  Uiso   1.00
H255   H     0.12876   0.22108   0.18656   0.00000  Uiso   1.00
H256   H     0.03704   0.27249   0.01299   0.00000  Uiso   1.00
H257   H     0.24285   0.25799   0.02168   0.00000  Uiso   1.00
H258   H     0.12184   0.20738   0.31755   0.00000  Uiso   1.00
H259   H     0.92843   0.31579   0.95155   0.00000  Uiso   1.00
H260   H     0.36244   0.28521   0.96987   0.00000  Uiso   1.00
H261   H     0.15036   0.44635   0.13500   0.00000  Uiso   1.00
H262   H     0.14328   0.42214   0.24945   0.00000  Uiso   1.00
H263   H     0.05155   0.47355   0.07587   0.00000  Uiso   1.00
H264   H     0.25737   0.45906   0.08456   0.00000  Uiso   1.00
H265   H     0.13361   0.37057   0.36859   0.00000  Uiso   1.00
H266   H     0.94021   0.47898   0.00259   0.00000  Uiso   1.00
H267   H     0.37422   0.44841   0.02091   0.00000  Uiso   1.00
O268   O     0.12280   0.26961   0.41728   0.00000  Uiso   1.00
O269   O     0.86907   0.41184   0.93709   0.00000  Uiso   1.00
O270   O     0.43847   0.37172   0.96113   0.00000  Uiso   1.00
N271   N     0.12559   0.24911   0.31386   0.00000  Uiso   1.00
N272   N     0.94477   0.35046   0.97167   0.00000  Uiso   1.00
N273   N     0.35052   0.32188   0.98879   0.00000  Uiso   1.00
N274   N     0.13193   0.33692   0.34132   0.00000  Uiso   1.00
N275   N     0.95110   0.43827   0.99914   0.00000  Uiso   1.00
N276   N     0.35686   0.40969   0.01625   0.00000  Uiso   1.00
C277   C     0.28728   0.36746   0.42802   0.00000  Uiso   1.00
C278   C     0.29110   0.36796   0.49712   0.00000  Uiso   1.00
C279   C     0.24148   0.36421   0.53665   0.00000  Uiso   1.00
C280   C     0.25460   0.36543   0.59830   0.00000  Uiso   1.00
C281   C     0.25131   0.36551   0.70235   0.00000  Uiso   1.00
C282   C     0.31875   0.42092   0.40673   0.00000  Uiso   1.00
C283   C     0.29239   0.46168   0.37026   0.00000  Uiso   1.00
C284   C     0.32880   0.50748   0.35582   0.00000  Uiso   1.00
C285   C     0.36847   0.58975   0.31950   0.00000  Uiso   1.00
C286   C     0.32841   0.31956   0.40708   0.00000  Uiso   1.00
C287   C     0.31017   0.27510   0.37088   0.00000  Uiso   1.00
C288   C     0.35471   0.23556   0.35672   0.00000  Uiso   1.00
C289   C     0.40936   0.16046   0.32094   0.00000  Uiso   1.00
C290   C     0.39880   0.37630   0.46723   0.00000  Uiso   1.00
C291   C     0.35167   0.37276   0.51841   0.00000  Uiso   1.00
C292   C     0.36487   0.37398   0.58002   0.00000  Uiso   1.00
C293   C     0.31528   0.37023   0.61963   0.00000  Uiso   1.00
C294   C     0.37933   0.42572   0.42803   0.00000  Uiso   1.00
C295   C     0.41578   0.47146   0.41363   0.00000  Uiso   1.00
C296   C     0.38948   0.51229   0.37715   0.00000  Uiso   1.00
C297   C     0.38898   0.32436   0.42837   0.00000  Uiso   1.00
C298   C     0.43356   0.28488   0.41426   0.00000  Uiso   1.00
C299   C     0.41539   0.24037   0.37805   0.00000  Uiso   1.00
H300   H     0.24012   0.36372   0.41144   0.00000  Uiso   1.00
H301   H     0.19461   0.36050   0.52015   0.00000  Uiso   1.00
H302   H     0.24552   0.45795   0.35378   0.00000  Uiso   1.00
H303   H     0.26329   0.27140   0.35441   0.00000  Uiso   1.00
H304   H     0.17087   0.35906   0.65006   0.00000  Uiso   1.00
H305   H     0.27822   0.56454   0.29925   0.00000  Uiso   1.00
H306   H     0.31569   0.17116   0.30057   0.00000  Uiso   1.00
H307   H     0.44596   0.38003   0.48380   0.00000  Uiso   1.00
H308   H     0.41175   0.37770   0.59648   0.00000  Uiso   1.00
H309   H     0.46266   0.47516   0.43011   0.00000  Uiso   1.00
H310   H     0.48043   0.28861   0.43074   0.00000  Uiso   1.00
H311   H     0.34711   0.37302   0.71202   0.00000  Uiso   1.00
H312   H     0.45446   0.57851   0.36120   0.00000  Uiso   1.00
H313   H     0.49193   0.18513   0.36253   0.00000  Uiso   1.00
O314   O     0.23276   0.36423   0.75386   0.00000  Uiso   1.00
O315   O     0.37361   0.63381   0.29360   0.00000  Uiso   1.00
O316   O     0.42277   0.11770   0.29534   0.00000  Uiso   1.00
N317   N     0.21704   0.36265   0.64918   0.00000  Uiso   1.00
N318   N     0.31740   0.55477   0.32120   0.00000  Uiso   1.00
N319   N     0.35244   0.18700   0.32242   0.00000  Uiso   1.00
N320   N     0.31187   0.37017   0.68252   0.00000  Uiso   1.00
N321   N     0.41224   0.56229   0.35454   0.00000  Uiso   1.00
N322   N     0.44728   0.19452   0.35576   0.00000  Uiso   1.00
C323   C     0.63976   0.79941   0.58905   0.00000  Uiso   1.00
C324   C     0.63741   0.80701   0.65772   0.00000  Uiso   1.00
C325   C     0.63190   0.76448   0.70015   0.00000  Uiso   1.00
C326   C     0.63058   0.78004   0.76083   0.00000  Uiso   1.00
C327   C     0.62629   0.78331   0.86479   0.00000  Uiso   1.00
C328   C     0.58757   0.83494   0.56342   0.00000  Uiso   1.00
C329   C     0.54015   0.81590   0.52656   0.00000  Uiso   1.00
C330   C     0.49688   0.85498   0.50785   0.00000  Uiso   1.00
C331   C     0.41523   0.90161   0.46537   0.00000  Uiso   1.00
C332   C     0.69940   0.82706   0.56814   0.00000  Uiso   1.00
C333   C     0.74600   0.80140   0.53524   0.00000  Uiso   1.00
C334   C     0.79687   0.83385   0.52050   0.00000  Uiso   1.00
C335   C     0.88885   0.86825   0.48535   0.00000  Uiso   1.00
C336   C     0.64721   0.90268   0.62134   0.00000  Uiso   1.00
C337   C     0.64146   0.86310   0.67526   0.00000  Uiso   1.00
C338   C     0.64015   0.87873   0.73589   0.00000  Uiso   1.00
C339   C     0.63464   0.83624   0.77841   0.00000  Uiso   1.00
C340   C     0.59161   0.89103   0.58096   0.00000  Uiso   1.00
C341   C     0.54840   0.93015   0.56229   0.00000  Uiso   1.00
C342   C     0.50093   0.91117   0.52542   0.00000  Uiso   1.00
C343   C     0.70345   0.88315   0.58568   0.00000  Uiso   1.00
C344   C     0.75425   0.91565   0.57098   0.00000  Uiso   1.00
C345   C     0.80093   0.89004   0.53807   0.00000  Uiso   1.00
H346   H     0.63660   0.75574   0.57539   0.00000  Uiso   1.00
H347   H     0.62876   0.72108   0.68656   0.00000  Uiso   1.00
H348   H     0.53704   0.77249   0.51299   0.00000  Uiso   1.00
H349   H     0.74285   0.75799   0.52168   0.00000  Uiso   1.00
H350   H     0.62184   0.70738   0.81755   0.00000  Uiso   1.00
H351   H     0.42843   0.81579   0.45155   0.00000  Uiso   1.00
H352   H     0.86244   0.78521   0.46987   0.00000  Uiso   1.00
H353   H     0.65036   0.94635   0.63500   0.00000  Uiso   1.00
H354   H     0.64328   0.92214   0.74945   0.00000  Uiso   1.00
H355   H     0.55155   0.97355   0.57587   0.00000  Uiso   1.00
H356   H     0.75737   0.95906   0.58456   0.00000  Uiso   1.00
H357   H     0.63361   0.87057   0.86859   0.00000  Uiso   1.00
H358   H     0.44021   0.97898   0.50259   0.00000  Uiso   1.00
H359   H     0.87422   0.94841   0.52091   0.00000  Uiso   1.00
O360   O     0.62280   0.76961   0.91728   0.00000  Uiso   1.00
O361   O     0.36907   0.91184   0.43709   0.00000  Uiso   1.00
O362   O     0.93847   0.87172   0.46113   0.00000  Uiso   1.00
N363   N     0.62559   0.74911   0.81386   0.00000  Uiso   1.00
N364   N     0.44477   0.85046   0.47167   0.00000  Uiso   1.00
N365   N     0.85052   0.82188   0.48879   0.00000  Uiso   1.00
N366   N     0.63193   0.83692   0.84132   0.00000  Uiso   1.00
N367   N     0.45110   0.93827   0.49914   0.00000  Uiso   1.00
N368   N     0.85686   0.90969   0.51625   0.00000  Uiso   1.00
C369   C     0.71272   0.36746   0.92802   0.00000  Uiso   1.00
C370   C     0.70890   0.36796   0.99712   0.00000  Uiso   1.00
C371   C     0.75852   0.36421   0.03665   0.00000  Uiso   1.00
C372   C     0.74540   0.36543   0.09830   0.00000  Uiso   1.00
C373   C     0.74869   0.36551   0.20235   0.00000  Uiso   1.00
C374   C     0.68125   0.42092   0.90673   0.00000  Uiso   1.00
C375   C     0.70761   0.46168   0.87026   0.00000  Uiso   1.00
C376   C     0.67120   0.50748   0.85582   0.00000  Uiso   1.00
C377   C     0.63153   0.58975   0.81950   0.00000  Uiso   1.00
C378   C     0.67159   0.31956   0.90708   0.00000  Uiso   1.00
C379   C     0.68983   0.27510   0.87088   0.00000  Uiso   1.00
C380   C     0.64529   0.23556   0.85672   0.00000  Uiso   1.00
C381   C     0.59064   0.16046   0.82094   0.00000  Uiso   1.00
C382   C     0.60120   0.37630   0.96723   0.00000  Uiso   1.00
C383   C     0.64833   0.37276   0.01841   0.00000  Uiso   1.00
C384   C     0.63513   0.37398   0.08002   0.00000  Uiso   1.00
C385   C     0.68472   0.37023   0.11963   0.00000  Uiso   1.00
C386   C     0.62067   0.42572   0.92803   0.00000  Uiso   1.00
C387   C     0.58422   0.47146   0.91363   0.00000  Uiso   1.00
C388   C     0.61052   0.51229   0.87715   0.00000  Uiso   1.00
C389   C     0.61102   0.32436   0.92837   0.00000  Uiso   1.00
C390   C     0.56644   0.28488   0.91426   0.00000  Uiso   1.00
C391   C     0.58461   0.24037   0.87805   0.00000  Uiso   1.00
H392   H     0.75988   0.36372   0.91144   0.00000  Uiso   1.00
H393   H     0.80539   0.36050   0.02015   0.00000  Uiso   1.00
H394   H     0.75448   0.45795   0.85378   0.00000  Uiso   1.00
H395   H     0.73671   0.27140   0.85441   0.00000  Uiso   1.00
H396   H     0.82913   0.35906   0.15006   0.00000  Uiso   1.00
H397   H     0.72178   0.56454   0.79925   0.00000  Uiso   1.00
H398   H     0.68431   0.17116   0.80057   0.00000  Uiso   1.00
H399   H     0.55404   0.38003   0.98380   0.00000  Uiso   1.00
H400   H     0.58825   0.37770   0.09648   0.00000  Uiso   1.00
H401   H     0.53734   0.47516   0.93011   0.00000  Uiso   1.00
H402   H     0.51957   0.28861   0.93074   0.00000  Uiso   1.00
H403   H     0.65289   0.37302   0.21202   0.00000  Uiso   1.00
H404   H     0.54554   0.57851   0.86120   0.00000  Uiso   1.00
H405   H     0.50807   0.18513   0.86253   0.00000  Uiso   1.00
O406   O     0.76724   0.36423   0.25386   0.00000  Uiso   1.00
O407   O     0.62639   0.63381   0.79360   0.00000  Uiso   1.00
O408   O     0.57723   0.11770   0.79534   0.00000  Uiso   1.00
N409   N     0.78296   0.36265   0.14918   0.00000  Uiso   1.00
N410   N     0.68260   0.55477   0.82120   0.00000  Uiso   1.00
N411   N     0.64756   0.18700   0.82242   0.00000  Uiso   1.00
N412   N     0.68813   0.37017   0.18252   0.00000  Uiso   1.00
N413   N     0.58776   0.56229   0.85454   0.00000  Uiso   1.00
N414   N     0.55272   0.19452   0.85576   0.00000  Uiso   1.00
C415   C     0.36024   0.79941   0.08905   0.00000  Uiso   1.00
C416   C     0.36259   0.80701   0.15772   0.00000  Uiso   1.00
C417   C     0.36810   0.76448   0.20015   0.00000  Uiso   1.00
C418   C     0.36942   0.78004   0.26083   0.00000  Uiso   1.00
C419   C     0.37371   0.78331   0.36479   0.00000  Uiso   1.00
C420   C     0.41243   0.83494   0.06342   0.00000  Uiso   1.00
C421   C     0.45985   0.81590   0.02656   0.00000  Uiso   1.00
C422   C     0.50312   0.85498   0.00785   0.00000  Uiso   1.00
C423   C     0.58477   0.90161   0.96537   0.00000  Uiso   1.00
C424   C     0.30060   0.82706   0.06814   0.00000  Uiso   1.00
C425   C     0.25400   0.80140   0.03524   0.00000  Uiso   1.00
C426   C     0.20313   0.83385   0.02050   0.00000  Uiso   1.00
C427   C     0.11115   0.86825   0.98535   0.00000  Uiso   1.00
C428   C     0.35279   0.90268   0.12134   0.00000  Uiso   1.00
C429   C     0.35854   0.86310   0.17526   0.00000  Uiso   1.00
C430   C     0.35985   0.87873   0.23589   0.00000  Uiso   1.00
C431   C     0.36536   0.83624   0.27841   0.00000  Uiso   1.00
C432   C     0.40839   0.89103   0.08096   0.00000  Uiso   1.00
C433   C     0.45160   0.93015   0.06229   0.00000  Uiso   1.00
C434   C     0.49907   0.91117   0.02542   0.00000  Uiso   1.00
C435   C     0.29655   0.88315   0.08568   0.00000  Uiso   1.00
C436   C     0.24575   0.91565   0.07098   0.00000  Uiso   1.00
C437   C     0.19907   0.89004   0.03807   0.00000  Uiso   1.00
H438   H     0.36340   0.75574   0.07539   0.00000  Uiso   1.00
H439   H     0.37124   0.72108   0.18656   0.00000  Uiso   1.00
H440   H     0.46296   0.77249   0.01299   0.00000  Uiso   1.00
H441   H     0.25715   0.75799   0.02168   0.00000  Uiso   1.00
H442   H     0.37816   0.70738   0.31755   0.00000  Uiso   1.00
H443   H     0.57157   0.81579   0.95155   0.00000  Uiso   1.00
H444   H     0.13756   0.78521   0.96987   0.00000  Uiso   1.00
H445   H     0.34964   0.94635   0.13500   0.00000  Uiso   1.00
H446   H     0.35672   0.92214   0.24945   0.00000  Uiso   1.00
H447   H     0.44845   0.97355   0.07587   0.00000  Uiso   1.00
H448   H     0.24263   0.95906   0.08456   0.00000  Uiso   1.00
H449   H     0.36639   0.87057   0.36859   0.00000  Uiso   1.00
H450   H     0.55979   0.97898   0.00259   0.00000  Uiso   1.00
H451   H     0.12578   0.94841   0.02091   0.00000  Uiso   1.00
O452   O     0.37720   0.76961   0.41728   0.00000  Uiso   1.00
O453   O     0.63093   0.91184   0.93709   0.00000  Uiso   1.00
O454   O     0.06153   0.87172   0.96113   0.00000  Uiso   1.00
N455   N     0.37441   0.74911   0.31386   0.00000  Uiso   1.00
N456   N     0.55523   0.85046   0.97167   0.00000  Uiso   1.00
N457   N     0.14948   0.82188   0.98879   0.00000  Uiso   1.00
N458   N     0.36807   0.83692   0.34132   0.00000  Uiso   1.00
N459   N     0.54890   0.93827   0.99914   0.00000  Uiso   1.00
N460   N     0.14314   0.90969   0.01625   0.00000  Uiso   1.00
C461   C     0.21272   0.86746   0.42802   0.00000  Uiso   1.00
C462   C     0.20890   0.86796   0.49712   0.00000  Uiso   1.00
C463   C     0.25852   0.86421   0.53665   0.00000  Uiso   1.00
C464   C     0.24540   0.86543   0.59830   0.00000  Uiso   1.00
C465   C     0.24869   0.86551   0.70235   0.00000  Uiso   1.00
C466   C     0.18125   0.92092   0.40673   0.00000  Uiso   1.00
C467   C     0.20761   0.96168   0.37026   0.00000  Uiso   1.00
C468   C     0.17120   0.00748   0.35582   0.00000  Uiso   1.00
C469   C     0.13153   0.08975   0.31950   0.00000  Uiso   1.00
C470   C     0.17159   0.81956   0.40708   0.00000  Uiso   1.00
C471   C     0.18983   0.77510   0.37088   0.00000  Uiso   1.00
C472   C     0.14529   0.73556   0.35672   0.00000  Uiso   1.00
C473   C     0.09064   0.66046   0.32094   0.00000  Uiso   1.00
C474   C     0.10120   0.87630   0.46723   0.00000  Uiso   1.00
C475   C     0.14833   0.87276   0.51841   0.00000  Uiso   1.00
C476   C     0.13513   0.87398   0.58002   0.00000  Uiso   1.00
C477   C     0.18472   0.87023   0.61963   0.00000  Uiso   1.00
C478   C     0.12067   0.92572   0.42803   0.00000  Uiso   1.00
C479   C     0.08422   0.97146   0.41363   0.00000  Uiso   1.00
C480   C     0.11052   0.01229   0.37715   0.00000  Uiso   1.00
C481   C     0.11102   0.82436   0.42837   0.00000  Uiso   1.00
C482   C     0.06644   0.78488   0.41426   0.00000  Uiso   1.00
C483   C     0.08461   0.74037   0.37805   0.00000  Uiso   1.00
H484   H     0.25988   0.86372   0.41144   0.00000  Uiso   1.00
H485   H     0.30539   0.86050   0.52015   0.00000  Uiso   1.00
H486   H     0.25448   0.95795   0.35378   0.00000  Uiso   1.00
H487   H     0.23671   0.77140   0.35441   0.00000  Uiso   1.00
H488   H     0.32913   0.85906   0.65006   0.00000  Uiso   1.00
H489   H     0.22178   0.06454   0.29925   0.00000  Uiso   1.00
H490   H     0.18431   0.67116   0.30057   0.00000  Uiso   1.00
H491   H     0.05404   0.88003   0.48380   0.00000  Uiso   1.00
H492   H     0.08825   0.87770   0.59648   0.00000  Uiso   1.00
H493   H     0.03734   0.97516   0.43011   0.00000  Uiso   1.00
H494   H     0.01957   0.78861   0.43074   0.00000  Uiso   1.00
H495   H     0.15289   0.87302   0.71202   0.00000  Uiso   1.00
H496   H     0.04554   0.07851   0.36120   0.00000  Uiso   1.00
H497   H     0.00807   0.68513   0.36253   0.00000  Uiso   1.00
O498   O     0.26724   0.86423   0.75386   0.00000  Uiso   1.00
O499   O     0.12639   0.13381   0.29360   0.00000  Uiso   1.00
O500   O     0.07723   0.61770   0.29534   0.00000  Uiso   1.00
N501   N     0.28296   0.86265   0.64918   0.00000  Uiso   1.00
N502   N     0.18260   0.05477   0.32120   0.00000  Uiso   1.00
N503   N     0.14756   0.68700   0.32242   0.00000  Uiso   1.00
N504   N     0.18813   0.87017   0.68252   0.00000  Uiso   1.00
N505   N     0.08776   0.06229   0.35454   0.00000  Uiso   1.00
N506   N     0.05272   0.69452   0.35576   0.00000  Uiso   1.00
C507   C     0.86024   0.29941   0.58905   0.00000  Uiso   1.00
C508   C     0.86259   0.30701   0.65772   0.00000  Uiso   1.00
C509   C     0.86810   0.26448   0.70015   0.00000  Uiso   1.00
C510   C     0.86942   0.28004   0.76083   0.00000  Uiso   1.00
C511   C     0.87371   0.28331   0.86479   0.00000  Uiso   1.00
C512   C     0.91243   0.33494   0.56342   0.00000  Uiso   1.00
C513   C     0.95985   0.31590   0.52656   0.00000  Uiso   1.00
C514   C     0.00312   0.35498   0.50785   0.00000  Uiso   1.00
C515   C     0.08477   0.40161   0.46537   0.00000  Uiso   1.00
C516   C     0.80060   0.32706   0.56814   0.00000  Uiso   1.00
C517   C     0.75400   0.30140   0.53524   0.00000  Uiso   1.00
C518   C     0.70313   0.33385   0.52050   0.00000  Uiso   1.00
C519   C     0.61115   0.36825   0.48535   0.00000  Uiso   1.00
C520   C     0.85279   0.40268   0.62134   0.00000  Uiso   1.00
C521   C     0.85854   0.36310   0.67526   0.00000  Uiso   1.00
C522   C     0.85985   0.37873   0.73589   0.00000  Uiso   1.00
C523   C     0.86536   0.33624   0.77841   0.00000  Uiso   1.00
C524   C     0.90839   0.39103   0.58096   0.00000  Uiso   1.00
C525   C     0.95160   0.43015   0.56229   0.00000  Uiso   1.00
C526   C     0.99907   0.41117   0.52542   0.00000  Uiso   1.00
C527   C     0.79655   0.38315   0.58568   0.00000  Uiso   1.00
C528   C     0.74575   0.41565   0.57098   0.00000  Uiso   1.00
C529   C     0.69907   0.39004   0.53807   0.00000  Uiso   1.00
H530   H     0.86340   0.25574   0.57539   0.00000  Uiso   1.00
H531   H     0.87124   0.22108   0.68656   0.00000  Uiso   1.00
H532   H     0.96296   0.27249   0.51299   0.00000  Uiso   1.00
H533   H     0.75715   0.25799   0.52168   0.00000  Uiso   1.00
H534   H     0.87816   0.20738   0.81755   0.00000  Uiso   1.00
H535   H     0.07157   0.31579   0.45155   0.00000  Uiso   1.00
H536   H     0.63756   0.28521   0.46987   0.00000  Uiso   1.00
H537   H     0.84964   0.44635   0.63500   0.00000  Uiso   1.00
H538   H     0.85672   0.42214   0.74945   0.00000  Uiso   1.00
H539   H     0.94845   0.47355   0.57587   0.00000  Uiso   1.00
H540   H     0.74263   0.45906   0.58456   0.00000  Uiso   1.00
H541   H     0.86639   0.37057   0.86859   0.00000  Uiso   1.00
H542   H     0.05979   0.47898   0.50259   0.00000  Uiso   1.00
H543   H     0.62578   0.44841   0.52091   0.00000  Uiso   1.00
O544   O     0.87720   0.26961   0.91728   0.00000  Uiso   1.00
O545   O     0.13093   0.41184   0.43709   0.00000  Uiso   1.00
O546   O     0.56153   0.37172   0.46113   0.00000  Uiso   1.00
N547   N     0.87441   0.24911   0.81386   0.00000  Uiso   1.00
N548   N     0.05523   0.35046   0.47167   0.00000  Uiso   1.00
N549   N     0.64948   0.32188   0.48879   0.00000  Uiso   1.00
N550   N     0.86807   0.33692   0.84132   0.00000  Uiso   1.00
N551   N     0.04890   0.43827   0.49914   0.00000  Uiso   1.00
N552   N     0.64314   0.40969   0.51625   0.00000  Uiso   1.00
C553   C     0.28728   0.63254   0.92802   0.00000  Uiso   1.00
C554   C     0.29110   0.63204   0.99712   0.00000  Uiso   1.00
C555   C     0.24148   0.63579   0.03665   0.00000  Uiso   1.00
C556   C     0.25460   0.63457   0.09830   0.00000  Uiso   1.00
C557   C     0.25131   0.63449   0.20235   0.00000  Uiso   1.00
C558   C     0.31875   0.57908   0.90673   0.00000  Uiso   1.00
C559   C     0.29239   0.53832   0.87026   0.00000  Uiso   1.00
C560   C     0.32880   0.49252   0.85582   0.00000  Uiso   1.00
C561   C     0.36847   0.41025   0.81950   0.00000  Uiso   1.00
C562   C     0.32841   0.68044   0.90708   0.00000  Uiso   1.00
C563   C     0.31017   0.72490   0.87088   0.00000  Uiso   1.00
C564   C     0.35471   0.76444   0.85672   0.00000  Uiso   1.00
C565   C     0.40936   0.83954   0.82094   0.00000  Uiso   1.00
C566   C     0.39880   0.62370   0.96723   0.00000  Uiso   1.00
C567   C     0.35167   0.62724   0.01841   0.00000  Uiso   1.00
C568   C     0.36487   0.62602   0.08002   0.00000  Uiso   1.00
C569   C     0.31528   0.62977   0.11963   0.00000  Uiso   1.00
C570   C     0.37933   0.57428   0.92803   0.00000  Uiso   1.00
C571   C     0.41578   0.52854   0.91363   0.00000  Uiso   1.00
C572   C     0.38948   0.48771   0.87715   0.00000  Uiso   1.00
C573   C     0.38898   0.67564   0.92837   0.00000  Uiso   1.00
C574   C     0.43356   0.71512   0.91426   0.00000  Uiso   1.00
C575   C     0.41539   0.75963   0.87805   0.00000  Uiso   1.00
H576   H     0.24012   0.63628   0.91144   0.00000  Uiso   1.00
H577   H     0.19461   0.63950   0.02015   0.00000  Uiso   1.00
H578   H     0.24552   0.54205   0.85378   0.00000  Uiso   1.00
H579   H     0.26329   0.72860   0.85441   0.00000  Uiso   1.00
H580   H     0.17087   0.64094   0.15006   0.00000  Uiso   1.00
H581   H     0.27822   0.43546   0.79925   0.00000  Uiso   1.00
H582   H     0.31569   0.82884   0.80057   0.00000  Uiso   1.00
H583   H     0.44596   0.61997   0.98380   0.00000  Uiso   1.00
H584   H     0.41175   0.62230   0.09648   0.00000  Uiso   1.00
H585   H     0.46266   0.52484   0.93011   0.00000  Uiso   1.00
H586   H     0.48043   0.71139   0.93074   0.00000  Uiso   1.00
H587   H     0.34711   0.62698   0.21202   0.00000  Uiso   1.00
H588   H     0.45446   0.42149   0.86120   0.00000  Uiso   1.00
H589   H     0.49193   0.81487   0.86253   0.00000  Uiso   1.00
O590   O     0.23276   0.63577   0.25386   0.00000  Uiso   1.00
O591   O     0.37361   0.36619   0.79360   0.00000  Uiso   1.00
O592   O     0.42277   0.88230   0.79534   0.00000  Uiso   1.00
N593   N     0.21704   0.63735   0.14918   0.00000  Uiso   1.00
N594   N     0.31740   0.44523   0.82120   0.00000  Uiso   1.00
N595   N     0.35244   0.81300   0.82242   0.00000  Uiso   1.00
N596   N     0.31187   0.62983   0.18252   0.00000  Uiso   1.00
N597   N     0.41224   0.43771   0.85454   0.00000  Uiso   1.00
N598   N     0.44728   0.80548   0.85576   0.00000  Uiso   1.00
C599   C     0.63976   0.20059   0.08905   0.00000  Uiso   1.00
C600   C     0.63741   0.19299   0.15772   0.00000  Uiso   1.00
C601   C     0.63190   0.23552   0.20015   0.00000  Uiso   1.00
C602   C     0.63058   0.21996   0.26083   0.00000  Uiso   1.00
C603   C     0.62629   0.21669   0.36479   0.00000  Uiso   1.00
C604   C     0.58757   0.16506   0.06342   0.00000  Uiso   1.00
C605   C     0.54015   0.18410   0.02656   0.00000  Uiso   1.00
C606   C     0.49688   0.14502   0.00785   0.00000  Uiso   1.00
C607   C     0.41523   0.09839   0.96537   0.00000  Uiso   1.00
C608   C     0.69940   0.17294   0.06814   0.00000  Uiso   1.00
C609   C     0.74600   0.19860   0.03524   0.00000  Uiso   1.00
C610   C     0.79687   0.16615   0.02050   0.00000  Uiso   1.00
C611   C     0.88885   0.13175   0.98535   0.00000  Uiso   1.00
C612   C     0.64721   0.09732   0.12134   0.00000  Uiso   1.00
C613   C     0.64146   0.13690   0.17526   0.00000  Uiso   1.00
C614   C     0.64015   0.12127   0.23589   0.00000  Uiso   1.00
C615   C     0.63464   0.16376   0.27841   0.00000  Uiso   1.00
C616   C     0.59161   0.10897   0.08096   0.00000  Uiso   1.00
C617   C     0.54840   0.06985   0.06229   0.00000  Uiso   1.00
C618   C     0.50093   0.08883   0.02542   0.00000  Uiso   1.00
C619   C     0.70345   0.11685   0.08568   0.00000  Uiso   1.00
C620   C     0.75425   0.08435   0.07098   0.00000  Uiso   1.00
C621   C     0.80093   0.10996   0.03807   0.00000  Uiso   1.00
H622   H     0.63660   0.24426   0.07539   0.00000  Uiso   1.00
H623   H     0.62876   0.27892   0.18656   0.00000  Uiso   1.00
H624   H     0.53704   0.22751   0.01299   0.00000  Uiso   1.00
H625   H     0.74285   0.24201   0.02168   0.00000  Uiso   1.00
H626   H     0.62184   0.29262   0.31755   0.00000  Uiso   1.00
H627   H     0.42843   0.18421   0.95155   0.00000  Uiso   1.00
H628   H     0.86244   0.21479   0.96987   0.00000  Uiso   1.00
H629   H     0.65036   0.05365   0.13500   0.00000  Uiso   1.00
H630   H     0.64328   0.07786   0.24945   0.00000  Uiso   1.00
H631   H     0.55155   0.02645   0.07587   0.00000  Uiso   1.00
H632   H     0.75737   0.04094   0.08456   0.00000  Uiso   1.00
H633   H     0.63361   0.12943   0.36859   0.00000  Uiso   1.00
H634   H     0.44021   0.02102   0.00259   0.00000  Uiso   1.00
H635   H     0.87422   0.05159   0.02091   0.00000  Uiso   1.00
O636   O     0.62280   0.23039   0.41728   0.00000  Uiso   1.00
O637   O     0.36907   0.08816   0.93709   0.00000  Uiso   1.00
O638   O     0.93847   0.12828   0.96113   0.00000  Uiso   1.00
N639   N     0.62559   0.25089   0.31386   0.00000  Uiso   1.00
N640   N     0.44477   0.14954   0.97167   0.00000  Uiso   1.00
N641   N     0.85052   0.17812   0.98879   0.00000  Uiso   1.00
N642   N     0.63193   0.16308   0.34132   0.00000  Uiso   1.00
N643   N     0.45110   0.06173   0.99914   0.00000  Uiso   1.00
N644   N     0.85686   0.09031   0.01625   0.00000  Uiso   1.00
C645   C     0.78728   0.13254   0.42802   0.00000  Uiso   1.00
C646   C     0.79110   0.13204   0.49712   0.00000  Uiso   1.00
C647   C     0.74148   0.13579   0.53665   0.00000  Uiso   1.00
C648   C     0.75460   0.13457   0.59830   0.00000  Uiso   1.00
C649   C     0.75131   0.13449   0.70235   0.00000  Uiso   1.00
C650   C     0.81875   0.07908   0.40673   0.00000  Uiso   1.00
C651   C     0.79239   0.03832   0.37026   0.00000  Uiso   1.00
C652   C     0.82880   0.99252   0.35582   0.00000  Uiso   1.00
C653   C     0.86847   0.91025   0.31950   0.00000  Uiso   1.00
C654   C     0.82841   0.18044   0.40708   0.00000  Uiso   1.00
C655   C     0.81017   0.22490   0.37088   0.00000  Uiso   1.00
C656   C     0.85471   0.26444   0.35672   0.00000  Uiso   1.00
C657   C     0.90936   0.33954   0.32094   0.00000  Uiso   1.00
C658   C     0.89880   0.12370   0.46723   0.00000  Uiso   1.00
C659   C     0.85167   0.12724   0.51841   0.00000  Uiso   1.00
C660   C     0.86487   0.12602   0.58002   0.00000  Uiso   1.00
C661   C     0.81528   0.12977   0.61963   0.00000  Uiso   1.00
C662   C     0.87933   0.07428   0.42803   0.00000  Uiso   1.00
C663   C     0.91578   0.02854   0.41363   0.00000  Uiso   1.00
C664   C     0.88948   0.98771   0.37715   0.00000  Uiso   1.00
C665   C     0.88898   0.17564   0.42837   0.00000  Uiso   1.00
C666   C     0.93356   0.21512   0.41426   0.00000  Uiso   1.00
C667   C     0.91539   0.25963   0.37805   0.00000  Uiso   1.00
H668   H     0.74012   0.13628   0.41144   0.00000  Uiso   1.00
H669   H     0.69461   0.13950   0.52015   0.00000  Uiso   1.00
H670   H     0.74552   0.04205   0.35378   0.00000  Uiso   1.00
H671   H     0.76329   0.22860   0.35441   0.00000  Uiso   1.00
H672   H     0.67087   0.14094   0.65006   0.00000  Uiso   1.00
H673   H     0.77822   0.93546   0.29925   0.00000  Uiso   1.00
H674   H     0.81569   0.32884   0.30057   0.00000  Uiso   1.00
H675   H     0.94596   0.11997   0.48380   0.00000  Uiso   1.00
H676   H     0.91175   0.12230   0.59648   0.00000  Uiso   1.00
H677   H     0.96266   0.02484   0.43011   0.00000  Uiso   1.00
H678   H     0.98043   0.21139   0.43074   0.00000  Uiso   1.00
H679   H     0.84711   0.12698   0.71202   0.00000  Uiso   1.00
H680   H     0.95446   0.92149   0.36120   0.00000  Uiso   1.00
H681   H     0.99193   0.31487   0.36253   0.00000  Uiso   1.00
O682   O     0.73276   0.13577   0.75386   0.00000  Uiso   1.00
O683   O     0.87361   0.86619   0.29360   0.00000  Uiso   1.00
O684   O     0.92277   0.38230   0.29534   0.00000  Uiso   1.00
N685   N     0.71704   0.13735   0.64918   0.00000  Uiso   1.00
N686   N     0.81740   0.94523   0.32120   0.00000  Uiso   1.00
N687   N     0.85244   0.31300   0.32242   0.00000  Uiso   1.00
N688   N     0.81187   0.12983   0.68252   0.00000  Uiso   1.00
N689   N     0.91224   0.93771   0.35454   0.00000  Uiso   1.00
N690   N     0.94728   0.30548   0.35576   0.00000  Uiso   1.00
C691   C     0.13976   0.70059   0.58905   0.00000  Uiso   1.00
C692   C     0.13741   0.69299   0.65772   0.00000  Uiso   1.00
C693   C     0.13190   0.73552   0.70015   0.00000  Uiso   1.00
C694   C     0.13058   0.71996   0.76083   0.00000  Uiso   1.00
C695   C     0.12629   0.71669   0.86479   0.00000  Uiso   1.00
C696   C     0.08757   0.66506   0.56342   0.00000  Uiso   1.00
C697   C     0.04015   0.68410   0.52656   0.00000  Uiso   1.00
C698   C     0.99688   0.64502   0.50785   0.00000  Uiso   1.00
C699   C     0.91523   0.59839   0.46537   0.00000  Uiso   1.00
C700   C     0.19940   0.67294   0.56814   0.00000  Uiso   1.00
C701   C     0.24600   0.69860   0.53524   0.00000  Uiso   1.00
C702   C     0.29687   0.66615   0.52050   0.00000  Uiso   1.00
C703   C     0.38885   0.63175   0.48535   0.00000  Uiso   1.00
C704   C     0.14721   0.59732   0.62134   0.00000  Uiso   1.00
C705   C     0.14146   0.63690   0.67526   0.00000  Uiso   1.00
C706   C     0.14015   0.62127   0.73589   0.00000  Uiso   1.00
C707   C     0.13464   0.66376   0.77841   0.00000  Uiso   1.00
C708   C     0.09161   0.60897   0.58096   0.00000  Uiso   1.00
C709   C     0.04840   0.56985   0.56229   0.00000  Uiso   1.00
C710   C     0.00093   0.58883   0.52542   0.00000  Uiso   1.00
C711   C     0.20345   0.61685   0.58568   0.00000  Uiso   1.00
C712   C     0.25425   0.58435   0.57098   0.00000  Uiso   1.00
C713   C     0.30093   0.60996   0.53807   0.00000  Uiso   1.00
H714   H     0.13660   0.74426   0.57539   0.00000  Uiso   1.00
H715   H     0.12876   0.77892   0.68656   0.00000  Uiso   1.00
H716   H     0.03704   0.72751   0.51299   0.00000  Uiso   1.00
H717   H     0.24285   0.74201   0.52168   0.00000  Uiso   1.00
H718   H     0.12184   0.79262   0.81755   0.00000  Uiso   1.00
H719   H     0.92843   0.68421   0.45155   0.00000  Uiso   1.00
H720   H     0.36244   0.71479   0.46987   0.00000  Uiso   1.00
H721   H     0.15036   0.55365   0.63500   0.00000  Uiso   1.00
H722   H     0.14328   0.57786   0.74945   0.00000  Uiso   1.00
H723   H     0.05155   0.52645   0.57587   0.00000  Uiso   1.00
H724   H     0.25737   0.54094   0.58456   0.00000  Uiso   1.00
H725   H     0.13361   0.62943   0.86859   0.00000  Uiso   1.00
H726   H     0.94021   0.52102   0.50259   0.00000  Uiso   1.00
H727   H     0.37422   0.55159   0.52091   0.00000  Uiso   1.00
O728   O     0.12280   0.73039   0.91728   0.00000  Uiso   1.00
O729   O     0.86907   0.58816   0.43709   0.00000  Uiso   1.00
O730   O     0.43847   0.62828   0.46113   0.00000  Uiso   1.00
N731   N     0.12559   0.75089   0.81386   0.00000  Uiso   1.00
N732   N     0.94477   0.64954   0.47167   0.00000  Uiso   1.00
N733   N     0.35052   0.67812   0.48879   0.00000  Uiso   1.00
N734   N     0.13193   0.66308   0.84132   0.00000  Uiso   1.00
N735   N     0.95110   0.56173   0.49914   0.00000  Uiso   1.00
N736   N     0.35686   0.59031   0.51625   0.00000  Uiso   1.00
