data_job_02934
_audit_creation_date              2018-12-19
_audit_creation_method            'Materials Studio'
_symmetry_space_group_name_H-M    'P1'
_symmetry_Int_Tables_number       1
_symmetry_cell_setting            triclinic
loop_
_symmetry_equiv_pos_as_xyz
  x,y,z
_cell_length_a                    20.4566
_cell_length_b                    24.4262
_cell_length_c                    40.9064
_cell_angle_alpha                 90.0000
_cell_angle_beta                  90.0000
_cell_angle_gamma                 90.0000
loop_
_atom_site_label
_atom_site_type_symbol
_atom_site_fract_x
_atom_site_fract_y
_atom_site_fract_z
_atom_site_U_iso_or_equiv
_atom_site_adp_type
_atom_site_occupancy
C1     C     0.75795   0.50663   0.71783   0.00000  Uiso   1.00
C2     C     0.74067   0.50984   0.75404   0.00000  Uiso   1.00
C3     C     0.78505   0.51226   0.77966   0.00000  Uiso   1.00
C4     C     0.75946   0.51501   0.81105   0.00000  Uiso   1.00
C5     C     0.74290   0.51993   0.86644   0.00000  Uiso   1.00
C6     C     0.72416   0.45542   0.70482   0.00000  Uiso   1.00
C7     C     0.75467   0.41209   0.68904   0.00000  Uiso   1.00
C8     C     0.71517   0.36903   0.67900   0.00000  Uiso   1.00
C9     C     0.67299   0.28948   0.65794   0.00000  Uiso   1.00
C10    C     0.72379   0.55502   0.70161   0.00000  Uiso   1.00
C11    C     0.75397   0.59541   0.68314   0.00000  Uiso   1.00
C12    C     0.71416   0.63620   0.67039   0.00000  Uiso   1.00
C13    C     0.67138   0.71128   0.64436   0.00000  Uiso   1.00
C14    C     0.63358   0.50722   0.72802   0.00000  Uiso   1.00
C15    C     0.67311   0.51016   0.75958   0.00000  Uiso   1.00
C16    C     0.64745   0.51291   0.79094   0.00000  Uiso   1.00
C17    C     0.69178   0.51533   0.81660   0.00000  Uiso   1.00
C18    C     0.65661   0.45574   0.71035   0.00000  Uiso   1.00
C19    C     0.61706   0.41274   0.70033   0.00000  Uiso   1.00
C20    C     0.64750   0.36935   0.68454   0.00000  Uiso   1.00
C21    C     0.65623   0.55534   0.70715   0.00000  Uiso   1.00
C22    C     0.61636   0.59607   0.69442   0.00000  Uiso   1.00
C23    C     0.64648   0.63652   0.67594   0.00000  Uiso   1.00
H24    H     0.81054   0.50638   0.71351   0.00000  Uiso   1.00
H25    H     0.83733   0.51201   0.77536   0.00000  Uiso   1.00
H26    H     0.80695   0.41186   0.68476   0.00000  Uiso   1.00
H27    H     0.80625   0.59515   0.67886   0.00000  Uiso   1.00
H28    H     0.83723   0.51837   0.84637   0.00000  Uiso   1.00
H29    H     0.77317   0.30720   0.65532   0.00000  Uiso   1.00
H30    H     0.77170   0.69372   0.64288   0.00000  Uiso   1.00
H31    H     0.58098   0.50746   0.73234   0.00000  Uiso   1.00
H32    H     0.59516   0.51316   0.79522   0.00000  Uiso   1.00
H33    H     0.56478   0.41300   0.70461   0.00000  Uiso   1.00
H34    H     0.56409   0.59630   0.69872   0.00000  Uiso   1.00
H35    H     0.64068   0.51930   0.86249   0.00000  Uiso   1.00
H36    H     0.57662   0.30813   0.67144   0.00000  Uiso   1.00
H37    H     0.57515   0.69465   0.65900   0.00000  Uiso   1.00
O38    O     0.75243   0.52254   0.89546   0.00000  Uiso   1.00
O39    O     0.66838   0.24550   0.64480   0.00000  Uiso   1.00
O40    O     0.66645   0.75261   0.62848   0.00000  Uiso   1.00
N41    N     0.78903   0.51782   0.84154   0.00000  Uiso   1.00
N42    N     0.72913   0.32038   0.66292   0.00000  Uiso   1.00
N43    N     0.72776   0.68174   0.65128   0.00000  Uiso   1.00
N44    N     0.68327   0.51832   0.85021   0.00000  Uiso   1.00
N45    N     0.62337   0.32089   0.67159   0.00000  Uiso   1.00
N46    N     0.62199   0.68224   0.65995   0.00000  Uiso   1.00
C47    C     0.75795   0.00663   0.21783   0.00000  Uiso   1.00
C48    C     0.74067   0.00984   0.25404   0.00000  Uiso   1.00
C49    C     0.78505   0.01226   0.27966   0.00000  Uiso   1.00
C50    C     0.75946   0.01501   0.31105   0.00000  Uiso   1.00
C51    C     0.74290   0.01993   0.36644   0.00000  Uiso   1.00
C52    C     0.72416   0.95542   0.20482   0.00000  Uiso   1.00
C53    C     0.75467   0.91209   0.18904   0.00000  Uiso   1.00
C54    C     0.71517   0.86903   0.17900   0.00000  Uiso   1.00
C55    C     0.67299   0.78948   0.15794   0.00000  Uiso   1.00
C56    C     0.72379   0.05502   0.20161   0.00000  Uiso   1.00
C57    C     0.75397   0.09541   0.18314   0.00000  Uiso   1.00
C58    C     0.71416   0.13620   0.17039   0.00000  Uiso   1.00
C59    C     0.67138   0.21128   0.14436   0.00000  Uiso   1.00
C60    C     0.63358   0.00722   0.22802   0.00000  Uiso   1.00
C61    C     0.67311   0.01016   0.25958   0.00000  Uiso   1.00
C62    C     0.64745   0.01291   0.29094   0.00000  Uiso   1.00
C63    C     0.69178   0.01533   0.31660   0.00000  Uiso   1.00
C64    C     0.65661   0.95574   0.21035   0.00000  Uiso   1.00
C65    C     0.61706   0.91274   0.20033   0.00000  Uiso   1.00
C66    C     0.64750   0.86935   0.18454   0.00000  Uiso   1.00
C67    C     0.65623   0.05534   0.20715   0.00000  Uiso   1.00
C68    C     0.61636   0.09607   0.19442   0.00000  Uiso   1.00
C69    C     0.64648   0.13652   0.17594   0.00000  Uiso   1.00
H70    H     0.81054   0.00638   0.21351   0.00000  Uiso   1.00
H71    H     0.83733   0.01201   0.27536   0.00000  Uiso   1.00
H72    H     0.80695   0.91186   0.18476   0.00000  Uiso   1.00
H73    H     0.80625   0.09515   0.17886   0.00000  Uiso   1.00
H74    H     0.83723   0.01837   0.34637   0.00000  Uiso   1.00
H75    H     0.77317   0.80720   0.15532   0.00000  Uiso   1.00
H76    H     0.77170   0.19372   0.14288   0.00000  Uiso   1.00
H77    H     0.58098   0.00746   0.23234   0.00000  Uiso   1.00
H78    H     0.59516   0.01316   0.29522   0.00000  Uiso   1.00
H79    H     0.56478   0.91300   0.20461   0.00000  Uiso   1.00
H80    H     0.56409   0.09630   0.19872   0.00000  Uiso   1.00
H81    H     0.64068   0.01930   0.36249   0.00000  Uiso   1.00
H82    H     0.57662   0.80813   0.17144   0.00000  Uiso   1.00
H83    H     0.57515   0.19465   0.15900   0.00000  Uiso   1.00
O84    O     0.75243   0.02254   0.39546   0.00000  Uiso   1.00
O85    O     0.66838   0.74550   0.14480   0.00000  Uiso   1.00
O86    O     0.66645   0.25261   0.12848   0.00000  Uiso   1.00
N87    N     0.78903   0.01782   0.34154   0.00000  Uiso   1.00
N88    N     0.72913   0.82038   0.16292   0.00000  Uiso   1.00
N89    N     0.72776   0.18174   0.15128   0.00000  Uiso   1.00
N90    N     0.68327   0.01832   0.35021   0.00000  Uiso   1.00
N91    N     0.62337   0.82089   0.17159   0.00000  Uiso   1.00
N92    N     0.62199   0.18224   0.15995   0.00000  Uiso   1.00
C93    C     0.25795   0.50663   0.21783   0.00000  Uiso   1.00
C94    C     0.24067   0.50984   0.25404   0.00000  Uiso   1.00
C95    C     0.28505   0.51226   0.27966   0.00000  Uiso   1.00
C96    C     0.25946   0.51501   0.31105   0.00000  Uiso   1.00
C97    C     0.24290   0.51993   0.36644   0.00000  Uiso   1.00
C98    C     0.22416   0.45542   0.20482   0.00000  Uiso   1.00
C99    C     0.25467   0.41209   0.18904   0.00000  Uiso   1.00
C100   C     0.21517   0.36903   0.17900   0.00000  Uiso   1.00
C101   C     0.17299   0.28948   0.15794   0.00000  Uiso   1.00
C102   C     0.22379   0.55502   0.20161   0.00000  Uiso   1.00
C103   C     0.25397   0.59541   0.18314   0.00000  Uiso   1.00
C104   C     0.21416   0.63620   0.17039   0.00000  Uiso   1.00
C105   C     0.17138   0.71128   0.14436   0.00000  Uiso   1.00
C106   C     0.13358   0.50722   0.22802   0.00000  Uiso   1.00
C107   C     0.17311   0.51016   0.25958   0.00000  Uiso   1.00
C108   C     0.14745   0.51291   0.29094   0.00000  Uiso   1.00
C109   C     0.19178   0.51533   0.31660   0.00000  Uiso   1.00
C110   C     0.15661   0.45574   0.21035   0.00000  Uiso   1.00
C111   C     0.11706   0.41274   0.20033   0.00000  Uiso   1.00
C112   C     0.14750   0.36935   0.18454   0.00000  Uiso   1.00
C113   C     0.15623   0.55534   0.20715   0.00000  Uiso   1.00
C114   C     0.11636   0.59607   0.19442   0.00000  Uiso   1.00
C115   C     0.14648   0.63652   0.17594   0.00000  Uiso   1.00
H116   H     0.31054   0.50638   0.21351   0.00000  Uiso   1.00
H117   H     0.33733   0.51201   0.27536   0.00000  Uiso   1.00
H118   H     0.30695   0.41186   0.18476   0.00000  Uiso   1.00
H119   H     0.30625   0.59515   0.17886   0.00000  Uiso   1.00
H120   H     0.33723   0.51837   0.34637   0.00000  Uiso   1.00
H121   H     0.27317   0.30720   0.15532   0.00000  Uiso   1.00
H122   H     0.27170   0.69372   0.14288   0.00000  Uiso   1.00
H123   H     0.08098   0.50746   0.23234   0.00000  Uiso   1.00
H124   H     0.09516   0.51316   0.29522   0.00000  Uiso   1.00
H125   H     0.06478   0.41300   0.20461   0.00000  Uiso   1.00
H126   H     0.06409   0.59630   0.19872   0.00000  Uiso   1.00
H127   H     0.14068   0.51930   0.36249   0.00000  Uiso   1.00
H128   H     0.07662   0.30813   0.17144   0.00000  Uiso   1.00
H129   H     0.07515   0.69465   0.15900   0.00000  Uiso   1.00
O130   O     0.25243   0.52254   0.39546   0.00000  Uiso   1.00
O131   O     0.16838   0.24550   0.14480   0.00000  Uiso   1.00
O132   O     0.16645   0.75261   0.12848   0.00000  Uiso   1.00
N133   N     0.28903   0.51782   0.34154   0.00000  Uiso   1.00
N134   N     0.22913   0.32038   0.16292   0.00000  Uiso   1.00
N135   N     0.22776   0.68174   0.15128   0.00000  Uiso   1.00
N136   N     0.18327   0.51832   0.35021   0.00000  Uiso   1.00
N137   N     0.12337   0.32089   0.17159   0.00000  Uiso   1.00
N138   N     0.12199   0.68224   0.15995   0.00000  Uiso   1.00
C139   C     0.25795   0.00663   0.71783   0.00000  Uiso   1.00
C140   C     0.24067   0.00984   0.75404   0.00000  Uiso   1.00
C141   C     0.28505   0.01226   0.77966   0.00000  Uiso   1.00
C142   C     0.25946   0.01501   0.81105   0.00000  Uiso   1.00
C143   C     0.24290   0.01993   0.86644   0.00000  Uiso   1.00
C144   C     0.22416   0.95542   0.70482   0.00000  Uiso   1.00
C145   C     0.25467   0.91209   0.68904   0.00000  Uiso   1.00
C146   C     0.21517   0.86903   0.67900   0.00000  Uiso   1.00
C147   C     0.17299   0.78948   0.65794   0.00000  Uiso   1.00
C148   C     0.22379   0.05502   0.70161   0.00000  Uiso   1.00
C149   C     0.25397   0.09541   0.68314   0.00000  Uiso   1.00
C150   C     0.21416   0.13620   0.67039   0.00000  Uiso   1.00
C151   C     0.17138   0.21128   0.64436   0.00000  Uiso   1.00
C152   C     0.13358   0.00722   0.72802   0.00000  Uiso   1.00
C153   C     0.17311   0.01016   0.75958   0.00000  Uiso   1.00
C154   C     0.14745   0.01291   0.79094   0.00000  Uiso   1.00
C155   C     0.19178   0.01533   0.81660   0.00000  Uiso   1.00
C156   C     0.15661   0.95574   0.71035   0.00000  Uiso   1.00
C157   C     0.11706   0.91274   0.70033   0.00000  Uiso   1.00
C158   C     0.14750   0.86935   0.68454   0.00000  Uiso   1.00
C159   C     0.15623   0.05534   0.70715   0.00000  Uiso   1.00
C160   C     0.11636   0.09607   0.69442   0.00000  Uiso   1.00
C161   C     0.14648   0.13652   0.67594   0.00000  Uiso   1.00
H162   H     0.31054   0.00638   0.71351   0.00000  Uiso   1.00
H163   H     0.33733   0.01201   0.77536   0.00000  Uiso   1.00
H164   H     0.30695   0.91186   0.68476   0.00000  Uiso   1.00
H165   H     0.30625   0.09515   0.67886   0.00000  Uiso   1.00
H166   H     0.33723   0.01837   0.84637   0.00000  Uiso   1.00
H167   H     0.27317   0.80720   0.65532   0.00000  Uiso   1.00
H168   H     0.27170   0.19372   0.64288   0.00000  Uiso   1.00
H169   H     0.08098   0.00746   0.73234   0.00000  Uiso   1.00
H170   H     0.09516   0.01316   0.79522   0.00000  Uiso   1.00
H171   H     0.06478   0.91300   0.70461   0.00000  Uiso   1.00
H172   H     0.06409   0.09630   0.69872   0.00000  Uiso   1.00
H173   H     0.14068   0.01930   0.86249   0.00000  Uiso   1.00
H174   H     0.07662   0.80813   0.67144   0.00000  Uiso   1.00
H175   H     0.07515   0.19465   0.65900   0.00000  Uiso   1.00
O176   O     0.25243   0.02254   0.89546   0.00000  Uiso   1.00
O177   O     0.16838   0.74550   0.64480   0.00000  Uiso   1.00
O178   O     0.16645   0.25261   0.62848   0.00000  Uiso   1.00
N179   N     0.28903   0.01782   0.84154   0.00000  Uiso   1.00
N180   N     0.22913   0.82038   0.66292   0.00000  Uiso   1.00
N181   N     0.22776   0.18174   0.65128   0.00000  Uiso   1.00
N182   N     0.18327   0.01832   0.85021   0.00000  Uiso   1.00
N183   N     0.12337   0.82089   0.67159   0.00000  Uiso   1.00
N184   N     0.12199   0.18224   0.65995   0.00000  Uiso   1.00
C185   C     0.24205   0.49337   0.71783   0.00000  Uiso   1.00
C186   C     0.25933   0.49016   0.75404   0.00000  Uiso   1.00
C187   C     0.21495   0.48774   0.77966   0.00000  Uiso   1.00
C188   C     0.24054   0.48499   0.81105   0.00000  Uiso   1.00
C189   C     0.25710   0.48007   0.86644   0.00000  Uiso   1.00
C190   C     0.27584   0.54458   0.70482   0.00000  Uiso   1.00
C191   C     0.24533   0.58791   0.68904   0.00000  Uiso   1.00
C192   C     0.28483   0.63097   0.67900   0.00000  Uiso   1.00
C193   C     0.32701   0.71052   0.65794   0.00000  Uiso   1.00
C194   C     0.27621   0.44498   0.70161   0.00000  Uiso   1.00
C195   C     0.24603   0.40459   0.68314   0.00000  Uiso   1.00
C196   C     0.28584   0.36380   0.67039   0.00000  Uiso   1.00
C197   C     0.32862   0.28872   0.64436   0.00000  Uiso   1.00
C198   C     0.36642   0.49278   0.72802   0.00000  Uiso   1.00
C199   C     0.32689   0.48984   0.75958   0.00000  Uiso   1.00
C200   C     0.35255   0.48709   0.79094   0.00000  Uiso   1.00
C201   C     0.30822   0.48467   0.81660   0.00000  Uiso   1.00
C202   C     0.34339   0.54426   0.71035   0.00000  Uiso   1.00
C203   C     0.38294   0.58726   0.70033   0.00000  Uiso   1.00
C204   C     0.35250   0.63065   0.68454   0.00000  Uiso   1.00
C205   C     0.34377   0.44466   0.70715   0.00000  Uiso   1.00
C206   C     0.38364   0.40393   0.69442   0.00000  Uiso   1.00
C207   C     0.35352   0.36348   0.67594   0.00000  Uiso   1.00
H208   H     0.18946   0.49362   0.71351   0.00000  Uiso   1.00
H209   H     0.16267   0.48799   0.77536   0.00000  Uiso   1.00
H210   H     0.19305   0.58814   0.68476   0.00000  Uiso   1.00
H211   H     0.19375   0.40485   0.67886   0.00000  Uiso   1.00
H212   H     0.16277   0.48163   0.84637   0.00000  Uiso   1.00
H213   H     0.22683   0.69280   0.65532   0.00000  Uiso   1.00
H214   H     0.22830   0.30628   0.64288   0.00000  Uiso   1.00
H215   H     0.41902   0.49254   0.73234   0.00000  Uiso   1.00
H216   H     0.40484   0.48684   0.79522   0.00000  Uiso   1.00
H217   H     0.43522   0.58700   0.70461   0.00000  Uiso   1.00
H218   H     0.43591   0.40370   0.69872   0.00000  Uiso   1.00
H219   H     0.35932   0.48070   0.86249   0.00000  Uiso   1.00
H220   H     0.42338   0.69187   0.67144   0.00000  Uiso   1.00
H221   H     0.42485   0.30535   0.65900   0.00000  Uiso   1.00
O222   O     0.24757   0.47746   0.89546   0.00000  Uiso   1.00
O223   O     0.33162   0.75450   0.64480   0.00000  Uiso   1.00
O224   O     0.33355   0.24739   0.62848   0.00000  Uiso   1.00
N225   N     0.21097   0.48218   0.84154   0.00000  Uiso   1.00
N226   N     0.27087   0.67962   0.66292   0.00000  Uiso   1.00
N227   N     0.27224   0.31826   0.65128   0.00000  Uiso   1.00
N228   N     0.31673   0.48168   0.85021   0.00000  Uiso   1.00
N229   N     0.37663   0.67911   0.67159   0.00000  Uiso   1.00
N230   N     0.37801   0.31776   0.65995   0.00000  Uiso   1.00
C231   C     0.24205   0.99337   0.21783   0.00000  Uiso   1.00
C232   C     0.25933   0.99016   0.25404   0.00000  Uiso   1.00
C233   C     0.21495   0.98774   0.27966   0.00000  Uiso   1.00
C234   C     0.24054   0.98499   0.31105   0.00000  Uiso   1.00
C235   C     0.25710   0.98007   0.36644   0.00000  Uiso   1.00
C236   C     0.27584   0.04458   0.20482   0.00000  Uiso   1.00
C237   C     0.24533   0.08791   0.18904   0.00000  Uiso   1.00
C238   C     0.28483   0.13097   0.17900   0.00000  Uiso   1.00
C239   C     0.32701   0.21052   0.15794   0.00000  Uiso   1.00
C240   C     0.27621   0.94498   0.20161   0.00000  Uiso   1.00
C241   C     0.24603   0.90459   0.18314   0.00000  Uiso   1.00
C242   C     0.28584   0.86380   0.17039   0.00000  Uiso   1.00
C243   C     0.32862   0.78872   0.14436   0.00000  Uiso   1.00
C244   C     0.36642   0.99278   0.22802   0.00000  Uiso   1.00
C245   C     0.32689   0.98984   0.25958   0.00000  Uiso   1.00
C246   C     0.35255   0.98709   0.29094   0.00000  Uiso   1.00
C247   C     0.30822   0.98467   0.31660   0.00000  Uiso   1.00
C248   C     0.34339   0.04426   0.21035   0.00000  Uiso   1.00
C249   C     0.38294   0.08726   0.20033   0.00000  Uiso   1.00
C250   C     0.35250   0.13065   0.18454   0.00000  Uiso   1.00
C251   C     0.34377   0.94466   0.20715   0.00000  Uiso   1.00
C252   C     0.38364   0.90393   0.19442   0.00000  Uiso   1.00
C253   C     0.35352   0.86348   0.17594   0.00000  Uiso   1.00
H254   H     0.18946   0.99362   0.21351   0.00000  Uiso   1.00
H255   H     0.16267   0.98799   0.27536   0.00000  Uiso   1.00
H256   H     0.19305   0.08814   0.18476   0.00000  Uiso   1.00
H257   H     0.19375   0.90485   0.17886   0.00000  Uiso   1.00
H258   H     0.16277   0.98163   0.34637   0.00000  Uiso   1.00
H259   H     0.22683   0.19280   0.15532   0.00000  Uiso   1.00
H260   H     0.22830   0.80628   0.14288   0.00000  Uiso   1.00
H261   H     0.41902   0.99254   0.23234   0.00000  Uiso   1.00
H262   H     0.40484   0.98684   0.29522   0.00000  Uiso   1.00
H263   H     0.43522   0.08700   0.20461   0.00000  Uiso   1.00
H264   H     0.43591   0.90370   0.19872   0.00000  Uiso   1.00
H265   H     0.35932   0.98070   0.36249   0.00000  Uiso   1.00
H266   H     0.42338   0.19187   0.17144   0.00000  Uiso   1.00
H267   H     0.42485   0.80535   0.15900   0.00000  Uiso   1.00
O268   O     0.24757   0.97746   0.39546   0.00000  Uiso   1.00
O269   O     0.33162   0.25450   0.14480   0.00000  Uiso   1.00
O270   O     0.33355   0.74739   0.12848   0.00000  Uiso   1.00
N271   N     0.21097   0.98218   0.34154   0.00000  Uiso   1.00
N272   N     0.27087   0.17962   0.16292   0.00000  Uiso   1.00
N273   N     0.27224   0.81826   0.15128   0.00000  Uiso   1.00
N274   N     0.31673   0.98168   0.35021   0.00000  Uiso   1.00
N275   N     0.37663   0.17911   0.17159   0.00000  Uiso   1.00
N276   N     0.37801   0.81776   0.15995   0.00000  Uiso   1.00
C277   C     0.74205   0.49337   0.21783   0.00000  Uiso   1.00
C278   C     0.75933   0.49016   0.25404   0.00000  Uiso   1.00
C279   C     0.71495   0.48774   0.27966   0.00000  Uiso   1.00
C280   C     0.74054   0.48499   0.31105   0.00000  Uiso   1.00
C281   C     0.75710   0.48007   0.36644   0.00000  Uiso   1.00
C282   C     0.77584   0.54458   0.20482   0.00000  Uiso   1.00
C283   C     0.74533   0.58791   0.18904   0.00000  Uiso   1.00
C284   C     0.78483   0.63097   0.17900   0.00000  Uiso   1.00
C285   C     0.82701   0.71052   0.15794   0.00000  Uiso   1.00
C286   C     0.77621   0.44498   0.20161   0.00000  Uiso   1.00
C287   C     0.74603   0.40459   0.18314   0.00000  Uiso   1.00
C288   C     0.78584   0.36380   0.17039   0.00000  Uiso   1.00
C289   C     0.82862   0.28872   0.14436   0.00000  Uiso   1.00
C290   C     0.86642   0.49278   0.22802   0.00000  Uiso   1.00
C291   C     0.82689   0.48984   0.25958   0.00000  Uiso   1.00
C292   C     0.85255   0.48709   0.29094   0.00000  Uiso   1.00
C293   C     0.80822   0.48467   0.31660   0.00000  Uiso   1.00
C294   C     0.84339   0.54426   0.21035   0.00000  Uiso   1.00
C295   C     0.88294   0.58726   0.20033   0.00000  Uiso   1.00
C296   C     0.85250   0.63065   0.18454   0.00000  Uiso   1.00
C297   C     0.84377   0.44466   0.20715   0.00000  Uiso   1.00
C298   C     0.88364   0.40393   0.19442   0.00000  Uiso   1.00
C299   C     0.85352   0.36348   0.17594   0.00000  Uiso   1.00
H300   H     0.68946   0.49362   0.21351   0.00000  Uiso   1.00
H301   H     0.66267   0.48799   0.27536   0.00000  Uiso   1.00
H302   H     0.69305   0.58814   0.18476   0.00000  Uiso   1.00
H303   H     0.69375   0.40485   0.17886   0.00000  Uiso   1.00
H304   H     0.66277   0.48163   0.34637   0.00000  Uiso   1.00
H305   H     0.72683   0.69280   0.15532   0.00000  Uiso   1.00
H306   H     0.72830   0.30628   0.14288   0.00000  Uiso   1.00
H307   H     0.91902   0.49254   0.23234   0.00000  Uiso   1.00
H308   H     0.90484   0.48684   0.29522   0.00000  Uiso   1.00
H309   H     0.93522   0.58700   0.20461   0.00000  Uiso   1.00
H310   H     0.93591   0.40370   0.19872   0.00000  Uiso   1.00
H311   H     0.85932   0.48070   0.36249   0.00000  Uiso   1.00
H312   H     0.92338   0.69187   0.17144   0.00000  Uiso   1.00
H313   H     0.92485   0.30535   0.15900   0.00000  Uiso   1.00
O314   O     0.74757   0.47746   0.39546   0.00000  Uiso   1.00
O315   O     0.83162   0.75450   0.14480   0.00000  Uiso   1.00
O316   O     0.83355   0.24739   0.12848   0.00000  Uiso   1.00
N317   N     0.71097   0.48218   0.34154   0.00000  Uiso   1.00
N318   N     0.77087   0.67962   0.16292   0.00000  Uiso   1.00
N319   N     0.77224   0.31826   0.15128   0.00000  Uiso   1.00
N320   N     0.81673   0.48168   0.35021   0.00000  Uiso   1.00
N321   N     0.87663   0.67911   0.17159   0.00000  Uiso   1.00
N322   N     0.87801   0.31776   0.15995   0.00000  Uiso   1.00
C323   C     0.74205   0.99337   0.71783   0.00000  Uiso   1.00
C324   C     0.75933   0.99016   0.75404   0.00000  Uiso   1.00
C325   C     0.71495   0.98774   0.77966   0.00000  Uiso   1.00
C326   C     0.74054   0.98499   0.81105   0.00000  Uiso   1.00
C327   C     0.75710   0.98007   0.86644   0.00000  Uiso   1.00
C328   C     0.77584   0.04458   0.70482   0.00000  Uiso   1.00
C329   C     0.74533   0.08791   0.68904   0.00000  Uiso   1.00
C330   C     0.78483   0.13097   0.67900   0.00000  Uiso   1.00
C331   C     0.82701   0.21052   0.65794   0.00000  Uiso   1.00
C332   C     0.77621   0.94498   0.70161   0.00000  Uiso   1.00
C333   C     0.74603   0.90459   0.68314   0.00000  Uiso   1.00
C334   C     0.78584   0.86380   0.67039   0.00000  Uiso   1.00
C335   C     0.82862   0.78872   0.64436   0.00000  Uiso   1.00
C336   C     0.86642   0.99278   0.72802   0.00000  Uiso   1.00
C337   C     0.82689   0.98984   0.75958   0.00000  Uiso   1.00
C338   C     0.85255   0.98709   0.79094   0.00000  Uiso   1.00
C339   C     0.80822   0.98467   0.81660   0.00000  Uiso   1.00
C340   C     0.84339   0.04426   0.71035   0.00000  Uiso   1.00
C341   C     0.88294   0.08726   0.70033   0.00000  Uiso   1.00
C342   C     0.85250   0.13065   0.68454   0.00000  Uiso   1.00
C343   C     0.84377   0.94466   0.70715   0.00000  Uiso   1.00
C344   C     0.88364   0.90393   0.69442   0.00000  Uiso   1.00
C345   C     0.85352   0.86348   0.67594   0.00000  Uiso   1.00
H346   H     0.68946   0.99362   0.71351   0.00000  Uiso   1.00
H347   H     0.66267   0.98799   0.77536   0.00000  Uiso   1.00
H348   H     0.69305   0.08814   0.68476   0.00000  Uiso   1.00
H349   H     0.69375   0.90485   0.67886   0.00000  Uiso   1.00
H350   H     0.66277   0.98163   0.84637   0.00000  Uiso   1.00
H351   H     0.72683   0.19280   0.65532   0.00000  Uiso   1.00
H352   H     0.72830   0.80628   0.64288   0.00000  Uiso   1.00
H353   H     0.91902   0.99254   0.73234   0.00000  Uiso   1.00
H354   H     0.90484   0.98684   0.79522   0.00000  Uiso   1.00
H355   H     0.93522   0.08700   0.70461   0.00000  Uiso   1.00
H356   H     0.93591   0.90370   0.69872   0.00000  Uiso   1.00
H357   H     0.85932   0.98070   0.86249   0.00000  Uiso   1.00
H358   H     0.92338   0.19187   0.67144   0.00000  Uiso   1.00
H359   H     0.92485   0.80535   0.65900   0.00000  Uiso   1.00
O360   O     0.74757   0.97746   0.89546   0.00000  Uiso   1.00
O361   O     0.83162   0.25450   0.64480   0.00000  Uiso   1.00
O362   O     0.83355   0.74739   0.62848   0.00000  Uiso   1.00
N363   N     0.71097   0.98218   0.84154   0.00000  Uiso   1.00
N364   N     0.77087   0.17962   0.66292   0.00000  Uiso   1.00
N365   N     0.77224   0.81826   0.65128   0.00000  Uiso   1.00
N366   N     0.81673   0.98168   0.85021   0.00000  Uiso   1.00
N367   N     0.87663   0.17911   0.67159   0.00000  Uiso   1.00
N368   N     0.87801   0.81776   0.65995   0.00000  Uiso   1.00
C369   C     0.00795   0.74337   0.96783   0.00000  Uiso   1.00
C370   C     0.99067   0.74016   0.00404   0.00000  Uiso   1.00
C371   C     0.03505   0.73774   0.02966   0.00000  Uiso   1.00
C372   C     0.00946   0.73499   0.06105   0.00000  Uiso   1.00
C373   C     0.99290   0.73007   0.11644   0.00000  Uiso   1.00
C374   C     0.97416   0.79458   0.95482   0.00000  Uiso   1.00
C375   C     0.00467   0.83791   0.93904   0.00000  Uiso   1.00
C376   C     0.96517   0.88097   0.92900   0.00000  Uiso   1.00
C377   C     0.92299   0.96052   0.90794   0.00000  Uiso   1.00
C378   C     0.97379   0.69498   0.95161   0.00000  Uiso   1.00
C379   C     0.00397   0.65459   0.93314   0.00000  Uiso   1.00
C380   C     0.96416   0.61380   0.92039   0.00000  Uiso   1.00
C381   C     0.92138   0.53872   0.89436   0.00000  Uiso   1.00
C382   C     0.88358   0.74278   0.97802   0.00000  Uiso   1.00
C383   C     0.92311   0.73984   0.00958   0.00000  Uiso   1.00
C384   C     0.89745   0.73709   0.04094   0.00000  Uiso   1.00
C385   C     0.94178   0.73467   0.06660   0.00000  Uiso   1.00
C386   C     0.90661   0.79426   0.96035   0.00000  Uiso   1.00
C387   C     0.86706   0.83726   0.95033   0.00000  Uiso   1.00
C388   C     0.89750   0.88065   0.93454   0.00000  Uiso   1.00
C389   C     0.90623   0.69466   0.95715   0.00000  Uiso   1.00
C390   C     0.86636   0.65393   0.94442   0.00000  Uiso   1.00
C391   C     0.89648   0.61348   0.92594   0.00000  Uiso   1.00
H392   H     0.06054   0.74362   0.96351   0.00000  Uiso   1.00
H393   H     0.08733   0.73799   0.02536   0.00000  Uiso   1.00
H394   H     0.05695   0.83814   0.93476   0.00000  Uiso   1.00
H395   H     0.05625   0.65485   0.92886   0.00000  Uiso   1.00
H396   H     0.08723   0.73163   0.09637   0.00000  Uiso   1.00
H397   H     0.02317   0.94280   0.90532   0.00000  Uiso   1.00
H398   H     0.02170   0.55628   0.89288   0.00000  Uiso   1.00
H399   H     0.83098   0.74254   0.98234   0.00000  Uiso   1.00
H400   H     0.84516   0.73684   0.04522   0.00000  Uiso   1.00
H401   H     0.81478   0.83700   0.95461   0.00000  Uiso   1.00
H402   H     0.81409   0.65370   0.94872   0.00000  Uiso   1.00
H403   H     0.89068   0.73070   0.11249   0.00000  Uiso   1.00
H404   H     0.82662   0.94187   0.92144   0.00000  Uiso   1.00
H405   H     0.82515   0.55535   0.90900   0.00000  Uiso   1.00
O406   O     0.00243   0.72746   0.14546   0.00000  Uiso   1.00
O407   O     0.91838   0.00450   0.89480   0.00000  Uiso   1.00
O408   O     0.91645   0.49739   0.87848   0.00000  Uiso   1.00
N409   N     0.03903   0.73218   0.09154   0.00000  Uiso   1.00
N410   N     0.97913   0.92962   0.91292   0.00000  Uiso   1.00
N411   N     0.97776   0.56826   0.90128   0.00000  Uiso   1.00
N412   N     0.93327   0.73168   0.10021   0.00000  Uiso   1.00
N413   N     0.87337   0.92911   0.92159   0.00000  Uiso   1.00
N414   N     0.87199   0.56776   0.90995   0.00000  Uiso   1.00
C415   C     0.00795   0.24337   0.46783   0.00000  Uiso   1.00
C416   C     0.99067   0.24016   0.50404   0.00000  Uiso   1.00
C417   C     0.03505   0.23774   0.52966   0.00000  Uiso   1.00
C418   C     0.00946   0.23499   0.56105   0.00000  Uiso   1.00
C419   C     0.99290   0.23007   0.61644   0.00000  Uiso   1.00
C420   C     0.97416   0.29458   0.45482   0.00000  Uiso   1.00
C421   C     0.00467   0.33791   0.43904   0.00000  Uiso   1.00
C422   C     0.96517   0.38097   0.42900   0.00000  Uiso   1.00
C423   C     0.92299   0.46052   0.40794   0.00000  Uiso   1.00
C424   C     0.97379   0.19498   0.45161   0.00000  Uiso   1.00
C425   C     0.00397   0.15459   0.43314   0.00000  Uiso   1.00
C426   C     0.96416   0.11380   0.42039   0.00000  Uiso   1.00
C427   C     0.92138   0.03872   0.39436   0.00000  Uiso   1.00
C428   C     0.88358   0.24278   0.47802   0.00000  Uiso   1.00
C429   C     0.92311   0.23984   0.50958   0.00000  Uiso   1.00
C430   C     0.89745   0.23709   0.54094   0.00000  Uiso   1.00
C431   C     0.94178   0.23467   0.56660   0.00000  Uiso   1.00
C432   C     0.90661   0.29426   0.46035   0.00000  Uiso   1.00
C433   C     0.86706   0.33726   0.45033   0.00000  Uiso   1.00
C434   C     0.89750   0.38065   0.43454   0.00000  Uiso   1.00
C435   C     0.90623   0.19466   0.45715   0.00000  Uiso   1.00
C436   C     0.86636   0.15393   0.44442   0.00000  Uiso   1.00
C437   C     0.89648   0.11348   0.42594   0.00000  Uiso   1.00
H438   H     0.06054   0.24362   0.46351   0.00000  Uiso   1.00
H439   H     0.08733   0.23799   0.52536   0.00000  Uiso   1.00
H440   H     0.05695   0.33814   0.43476   0.00000  Uiso   1.00
H441   H     0.05625   0.15485   0.42886   0.00000  Uiso   1.00
H442   H     0.08723   0.23163   0.59637   0.00000  Uiso   1.00
H443   H     0.02317   0.44280   0.40532   0.00000  Uiso   1.00
H444   H     0.02170   0.05628   0.39288   0.00000  Uiso   1.00
H445   H     0.83098   0.24254   0.48234   0.00000  Uiso   1.00
H446   H     0.84516   0.23684   0.54522   0.00000  Uiso   1.00
H447   H     0.81478   0.33700   0.45461   0.00000  Uiso   1.00
H448   H     0.81409   0.15370   0.44872   0.00000  Uiso   1.00
H449   H     0.89068   0.23070   0.61249   0.00000  Uiso   1.00
H450   H     0.82662   0.44187   0.42144   0.00000  Uiso   1.00
H451   H     0.82515   0.05535   0.40900   0.00000  Uiso   1.00
O452   O     0.00243   0.22746   0.64546   0.00000  Uiso   1.00
O453   O     0.91838   0.50450   0.39480   0.00000  Uiso   1.00
O454   O     0.91645   0.99739   0.37848   0.00000  Uiso   1.00
N455   N     0.03903   0.23218   0.59154   0.00000  Uiso   1.00
N456   N     0.97913   0.42962   0.41292   0.00000  Uiso   1.00
N457   N     0.97776   0.06826   0.40128   0.00000  Uiso   1.00
N458   N     0.93327   0.23168   0.60021   0.00000  Uiso   1.00
N459   N     0.87337   0.42911   0.42159   0.00000  Uiso   1.00
N460   N     0.87199   0.06776   0.40995   0.00000  Uiso   1.00
C461   C     0.50795   0.74337   0.46783   0.00000  Uiso   1.00
C462   C     0.49067   0.74016   0.50404   0.00000  Uiso   1.00
C463   C     0.53505   0.73774   0.52966   0.00000  Uiso   1.00
C464   C     0.50946   0.73499   0.56105   0.00000  Uiso   1.00
C465   C     0.49290   0.73007   0.61644   0.00000  Uiso   1.00
C466   C     0.47416   0.79458   0.45482   0.00000  Uiso   1.00
C467   C     0.50467   0.83791   0.43904   0.00000  Uiso   1.00
C468   C     0.46517   0.88097   0.42900   0.00000  Uiso   1.00
C469   C     0.42299   0.96052   0.40794   0.00000  Uiso   1.00
C470   C     0.47379   0.69498   0.45161   0.00000  Uiso   1.00
C471   C     0.50397   0.65459   0.43314   0.00000  Uiso   1.00
C472   C     0.46416   0.61380   0.42039   0.00000  Uiso   1.00
C473   C     0.42138   0.53872   0.39436   0.00000  Uiso   1.00
C474   C     0.38358   0.74278   0.47802   0.00000  Uiso   1.00
C475   C     0.42311   0.73984   0.50958   0.00000  Uiso   1.00
C476   C     0.39745   0.73709   0.54094   0.00000  Uiso   1.00
C477   C     0.44178   0.73467   0.56660   0.00000  Uiso   1.00
C478   C     0.40661   0.79426   0.46035   0.00000  Uiso   1.00
C479   C     0.36706   0.83726   0.45033   0.00000  Uiso   1.00
C480   C     0.39750   0.88065   0.43454   0.00000  Uiso   1.00
C481   C     0.40623   0.69466   0.45715   0.00000  Uiso   1.00
C482   C     0.36636   0.65393   0.44442   0.00000  Uiso   1.00
C483   C     0.39648   0.61348   0.42594   0.00000  Uiso   1.00
H484   H     0.56054   0.74362   0.46351   0.00000  Uiso   1.00
H485   H     0.58733   0.73799   0.52536   0.00000  Uiso   1.00
H486   H     0.55695   0.83814   0.43476   0.00000  Uiso   1.00
H487   H     0.55625   0.65485   0.42886   0.00000  Uiso   1.00
H488   H     0.58723   0.73163   0.59637   0.00000  Uiso   1.00
H489   H     0.52317   0.94280   0.40532   0.00000  Uiso   1.00
H490   H     0.52170   0.55628   0.39288   0.00000  Uiso   1.00
H491   H     0.33098   0.74254   0.48234   0.00000  Uiso   1.00
H492   H     0.34516   0.73684   0.54522   0.00000  Uiso   1.00
H493   H     0.31478   0.83700   0.45461   0.00000  Uiso   1.00
H494   H     0.31409   0.65370   0.44872   0.00000  Uiso   1.00
H495   H     0.39068   0.73070   0.61249   0.00000  Uiso   1.00
H496   H     0.32662   0.94187   0.42144   0.00000  Uiso   1.00
H497   H     0.32515   0.55535   0.40900   0.00000  Uiso   1.00
O498   O     0.50243   0.72746   0.64546   0.00000  Uiso   1.00
O499   O     0.41838   0.00450   0.39480   0.00000  Uiso   1.00
O500   O     0.41645   0.49739   0.37848   0.00000  Uiso   1.00
N501   N     0.53903   0.73218   0.59154   0.00000  Uiso   1.00
N502   N     0.47913   0.92962   0.41292   0.00000  Uiso   1.00
N503   N     0.47776   0.56826   0.40128   0.00000  Uiso   1.00
N504   N     0.43327   0.73168   0.60021   0.00000  Uiso   1.00
N505   N     0.37337   0.92911   0.42159   0.00000  Uiso   1.00
N506   N     0.37199   0.56776   0.40995   0.00000  Uiso   1.00
C507   C     0.50795   0.24337   0.96783   0.00000  Uiso   1.00
C508   C     0.49067   0.24016   0.00404   0.00000  Uiso   1.00
C509   C     0.53505   0.23774   0.02966   0.00000  Uiso   1.00
C510   C     0.50946   0.23499   0.06105   0.00000  Uiso   1.00
C511   C     0.49290   0.23007   0.11644   0.00000  Uiso   1.00
C512   C     0.47416   0.29458   0.95482   0.00000  Uiso   1.00
C513   C     0.50467   0.33791   0.93904   0.00000  Uiso   1.00
C514   C     0.46517   0.38097   0.92900   0.00000  Uiso   1.00
C515   C     0.42299   0.46052   0.90794   0.00000  Uiso   1.00
C516   C     0.47379   0.19498   0.95161   0.00000  Uiso   1.00
C517   C     0.50397   0.15459   0.93314   0.00000  Uiso   1.00
C518   C     0.46416   0.11380   0.92039   0.00000  Uiso   1.00
C519   C     0.42138   0.03872   0.89436   0.00000  Uiso   1.00
C520   C     0.38358   0.24278   0.97802   0.00000  Uiso   1.00
C521   C     0.42311   0.23984   0.00958   0.00000  Uiso   1.00
C522   C     0.39745   0.23709   0.04094   0.00000  Uiso   1.00
C523   C     0.44178   0.23467   0.06660   0.00000  Uiso   1.00
C524   C     0.40661   0.29426   0.96035   0.00000  Uiso   1.00
C525   C     0.36706   0.33726   0.95033   0.00000  Uiso   1.00
C526   C     0.39750   0.38065   0.93454   0.00000  Uiso   1.00
C527   C     0.40623   0.19466   0.95715   0.00000  Uiso   1.00
C528   C     0.36636   0.15393   0.94442   0.00000  Uiso   1.00
C529   C     0.39648   0.11348   0.92594   0.00000  Uiso   1.00
H530   H     0.56054   0.24362   0.96351   0.00000  Uiso   1.00
H531   H     0.58733   0.23799   0.02536   0.00000  Uiso   1.00
H532   H     0.55695   0.33814   0.93476   0.00000  Uiso   1.00
H533   H     0.55625   0.15485   0.92886   0.00000  Uiso   1.00
H534   H     0.58723   0.23163   0.09637   0.00000  Uiso   1.00
H535   H     0.52317   0.44280   0.90532   0.00000  Uiso   1.00
H536   H     0.52170   0.05628   0.89288   0.00000  Uiso   1.00
H537   H     0.33098   0.24254   0.98234   0.00000  Uiso   1.00
H538   H     0.34516   0.23684   0.04522   0.00000  Uiso   1.00
H539   H     0.31478   0.33700   0.95461   0.00000  Uiso   1.00
H540   H     0.31409   0.15370   0.94872   0.00000  Uiso   1.00
H541   H     0.39068   0.23070   0.11249   0.00000  Uiso   1.00
H542   H     0.32662   0.44187   0.92144   0.00000  Uiso   1.00
H543   H     0.32515   0.05535   0.90900   0.00000  Uiso   1.00
O544   O     0.50243   0.22746   0.14546   0.00000  Uiso   1.00
O545   O     0.41838   0.50450   0.89480   0.00000  Uiso   1.00
O546   O     0.41645   0.99739   0.87848   0.00000  Uiso   1.00
N547   N     0.53903   0.23218   0.09154   0.00000  Uiso   1.00
N548   N     0.47913   0.42962   0.91292   0.00000  Uiso   1.00
N549   N     0.47776   0.06826   0.90128   0.00000  Uiso   1.00
N550   N     0.43327   0.23168   0.10021   0.00000  Uiso   1.00
N551   N     0.37337   0.42911   0.92159   0.00000  Uiso   1.00
N552   N     0.37199   0.06776   0.90995   0.00000  Uiso   1.00
C553   C     0.49205   0.75663   0.96783   0.00000  Uiso   1.00
C554   C     0.50933   0.75984   0.00404   0.00000  Uiso   1.00
C555   C     0.46495   0.76226   0.02966   0.00000  Uiso   1.00
C556   C     0.49054   0.76501   0.06105   0.00000  Uiso   1.00
C557   C     0.50710   0.76993   0.11644   0.00000  Uiso   1.00
C558   C     0.52584   0.70542   0.95482   0.00000  Uiso   1.00
C559   C     0.49533   0.66209   0.93904   0.00000  Uiso   1.00
C560   C     0.53483   0.61903   0.92900   0.00000  Uiso   1.00
C561   C     0.57701   0.53948   0.90794   0.00000  Uiso   1.00
C562   C     0.52621   0.80502   0.95161   0.00000  Uiso   1.00
C563   C     0.49603   0.84541   0.93314   0.00000  Uiso   1.00
C564   C     0.53584   0.88620   0.92039   0.00000  Uiso   1.00
C565   C     0.57862   0.96128   0.89436   0.00000  Uiso   1.00
C566   C     0.61642   0.75722   0.97802   0.00000  Uiso   1.00
C567   C     0.57689   0.76016   0.00958   0.00000  Uiso   1.00
C568   C     0.60255   0.76291   0.04094   0.00000  Uiso   1.00
C569   C     0.55822   0.76533   0.06660   0.00000  Uiso   1.00
C570   C     0.59339   0.70574   0.96035   0.00000  Uiso   1.00
C571   C     0.63294   0.66274   0.95033   0.00000  Uiso   1.00
C572   C     0.60250   0.61935   0.93454   0.00000  Uiso   1.00
C573   C     0.59377   0.80534   0.95715   0.00000  Uiso   1.00
C574   C     0.63364   0.84607   0.94442   0.00000  Uiso   1.00
C575   C     0.60352   0.88652   0.92594   0.00000  Uiso   1.00
H576   H     0.43946   0.75638   0.96351   0.00000  Uiso   1.00
H577   H     0.41267   0.76201   0.02536   0.00000  Uiso   1.00
H578   H     0.44305   0.66186   0.93476   0.00000  Uiso   1.00
H579   H     0.44375   0.84515   0.92886   0.00000  Uiso   1.00
H580   H     0.41277   0.76837   0.09637   0.00000  Uiso   1.00
H581   H     0.47683   0.55720   0.90532   0.00000  Uiso   1.00
H582   H     0.47830   0.94372   0.89288   0.00000  Uiso   1.00
H583   H     0.66902   0.75746   0.98234   0.00000  Uiso   1.00
H584   H     0.65484   0.76316   0.04522   0.00000  Uiso   1.00
H585   H     0.68522   0.66300   0.95461   0.00000  Uiso   1.00
H586   H     0.68591   0.84630   0.94872   0.00000  Uiso   1.00
H587   H     0.60932   0.76930   0.11249   0.00000  Uiso   1.00
H588   H     0.67338   0.55813   0.92144   0.00000  Uiso   1.00
H589   H     0.67485   0.94465   0.90900   0.00000  Uiso   1.00
O590   O     0.49757   0.77254   0.14546   0.00000  Uiso   1.00
O591   O     0.58162   0.49550   0.89480   0.00000  Uiso   1.00
O592   O     0.58355   0.00261   0.87848   0.00000  Uiso   1.00
N593   N     0.46097   0.76782   0.09154   0.00000  Uiso   1.00
N594   N     0.52087   0.57038   0.91292   0.00000  Uiso   1.00
N595   N     0.52224   0.93174   0.90128   0.00000  Uiso   1.00
N596   N     0.56673   0.76832   0.10021   0.00000  Uiso   1.00
N597   N     0.62663   0.57089   0.92159   0.00000  Uiso   1.00
N598   N     0.62801   0.93224   0.90995   0.00000  Uiso   1.00
C599   C     0.49205   0.25663   0.46783   0.00000  Uiso   1.00
C600   C     0.50933   0.25984   0.50404   0.00000  Uiso   1.00
C601   C     0.46495   0.26226   0.52966   0.00000  Uiso   1.00
C602   C     0.49054   0.26501   0.56105   0.00000  Uiso   1.00
C603   C     0.50710   0.26993   0.61644   0.00000  Uiso   1.00
C604   C     0.52584   0.20542   0.45482   0.00000  Uiso   1.00
C605   C     0.49533   0.16209   0.43904   0.00000  Uiso   1.00
C606   C     0.53483   0.11903   0.42900   0.00000  Uiso   1.00
C607   C     0.57701   0.03948   0.40794   0.00000  Uiso   1.00
C608   C     0.52621   0.30502   0.45161   0.00000  Uiso   1.00
C609   C     0.49603   0.34541   0.43314   0.00000  Uiso   1.00
C610   C     0.53584   0.38620   0.42039   0.00000  Uiso   1.00
C611   C     0.57862   0.46128   0.39436   0.00000  Uiso   1.00
C612   C     0.61642   0.25722   0.47802   0.00000  Uiso   1.00
C613   C     0.57689   0.26016   0.50958   0.00000  Uiso   1.00
C614   C     0.60255   0.26291   0.54094   0.00000  Uiso   1.00
C615   C     0.55822   0.26533   0.56660   0.00000  Uiso   1.00
C616   C     0.59339   0.20574   0.46035   0.00000  Uiso   1.00
C617   C     0.63294   0.16274   0.45033   0.00000  Uiso   1.00
C618   C     0.60250   0.11935   0.43454   0.00000  Uiso   1.00
C619   C     0.59377   0.30534   0.45715   0.00000  Uiso   1.00
C620   C     0.63364   0.34607   0.44442   0.00000  Uiso   1.00
C621   C     0.60352   0.38652   0.42594   0.00000  Uiso   1.00
H622   H     0.43946   0.25638   0.46351   0.00000  Uiso   1.00
H623   H     0.41267   0.26201   0.52536   0.00000  Uiso   1.00
H624   H     0.44305   0.16186   0.43476   0.00000  Uiso   1.00
H625   H     0.44375   0.34515   0.42886   0.00000  Uiso   1.00
H626   H     0.41277   0.26837   0.59637   0.00000  Uiso   1.00
H627   H     0.47683   0.05720   0.40532   0.00000  Uiso   1.00
H628   H     0.47830   0.44372   0.39288   0.00000  Uiso   1.00
H629   H     0.66902   0.25746   0.48234   0.00000  Uiso   1.00
H630   H     0.65484   0.26316   0.54522   0.00000  Uiso   1.00
H631   H     0.68522   0.16300   0.45461   0.00000  Uiso   1.00
H632   H     0.68591   0.34630   0.44872   0.00000  Uiso   1.00
H633   H     0.60932   0.26930   0.61249   0.00000  Uiso   1.00
H634   H     0.67338   0.05813   0.42144   0.00000  Uiso   1.00
H635   H     0.67485   0.44465   0.40900   0.00000  Uiso   1.00
O636   O     0.49757   0.27254   0.64546   0.00000  Uiso   1.00
O637   O     0.58162   0.99550   0.39480   0.00000  Uiso   1.00
O638   O     0.58355   0.50261   0.37848   0.00000  Uiso   1.00
N639   N     0.46097   0.26782   0.59154   0.00000  Uiso   1.00
N640   N     0.52087   0.07038   0.41292   0.00000  Uiso   1.00
N641   N     0.52224   0.43174   0.40128   0.00000  Uiso   1.00
N642   N     0.56673   0.26832   0.60021   0.00000  Uiso   1.00
N643   N     0.62663   0.07089   0.42159   0.00000  Uiso   1.00
N644   N     0.62801   0.43224   0.40995   0.00000  Uiso   1.00
C645   C     0.99205   0.75663   0.46783   0.00000  Uiso   1.00
C646   C     0.00933   0.75984   0.50404   0.00000  Uiso   1.00
C647   C     0.96495   0.76226   0.52966   0.00000  Uiso   1.00
C648   C     0.99054   0.76501   0.56105   0.00000  Uiso   1.00
C649   C     0.00710   0.76993   0.61644   0.00000  Uiso   1.00
C650   C     0.02584   0.70542   0.45482   0.00000  Uiso   1.00
C651   C     0.99533   0.66209   0.43904   0.00000  Uiso   1.00
C652   C     0.03483   0.61903   0.42900   0.00000  Uiso   1.00
C653   C     0.07701   0.53948   0.40794   0.00000  Uiso   1.00
C654   C     0.02621   0.80502   0.45161   0.00000  Uiso   1.00
C655   C     0.99603   0.84541   0.43314   0.00000  Uiso   1.00
C656   C     0.03584   0.88620   0.42039   0.00000  Uiso   1.00
C657   C     0.07862   0.96128   0.39436   0.00000  Uiso   1.00
C658   C     0.11642   0.75722   0.47802   0.00000  Uiso   1.00
C659   C     0.07689   0.76016   0.50958   0.00000  Uiso   1.00
C660   C     0.10255   0.76291   0.54094   0.00000  Uiso   1.00
C661   C     0.05822   0.76533   0.56660   0.00000  Uiso   1.00
C662   C     0.09339   0.70574   0.46035   0.00000  Uiso   1.00
C663   C     0.13294   0.66274   0.45033   0.00000  Uiso   1.00
C664   C     0.10250   0.61935   0.43454   0.00000  Uiso   1.00
C665   C     0.09377   0.80534   0.45715   0.00000  Uiso   1.00
C666   C     0.13364   0.84607   0.44442   0.00000  Uiso   1.00
C667   C     0.10352   0.88652   0.42594   0.00000  Uiso   1.00
H668   H     0.93946   0.75638   0.46351   0.00000  Uiso   1.00
H669   H     0.91267   0.76201   0.52536   0.00000  Uiso   1.00
H670   H     0.94305   0.66186   0.43476   0.00000  Uiso   1.00
H671   H     0.94375   0.84515   0.42886   0.00000  Uiso   1.00
H672   H     0.91277   0.76837   0.59637   0.00000  Uiso   1.00
H673   H     0.97683   0.55720   0.40532   0.00000  Uiso   1.00
H674   H     0.97830   0.94372   0.39288   0.00000  Uiso   1.00
H675   H     0.16902   0.75746   0.48234   0.00000  Uiso   1.00
H676   H     0.15484   0.76316   0.54522   0.00000  Uiso   1.00
H677   H     0.18522   0.66300   0.45461   0.00000  Uiso   1.00
H678   H     0.18591   0.84630   0.44872   0.00000  Uiso   1.00
H679   H     0.10932   0.76930   0.61249   0.00000  Uiso   1.00
H680   H     0.17338   0.55813   0.42144   0.00000  Uiso   1.00
H681   H     0.17485   0.94465   0.40900   0.00000  Uiso   1.00
O682   O     0.99757   0.77254   0.64546   0.00000  Uiso   1.00
O683   O     0.08162   0.49550   0.39480   0.00000  Uiso   1.00
O684   O     0.08355   0.00261   0.37848   0.00000  Uiso   1.00
N685   N     0.96097   0.76782   0.59154   0.00000  Uiso   1.00
N686   N     0.02087   0.57038   0.41292   0.00000  Uiso   1.00
N687   N     0.02224   0.93174   0.40128   0.00000  Uiso   1.00
N688   N     0.06673   0.76832   0.60021   0.00000  Uiso   1.00
N689   N     0.12663   0.57089   0.42159   0.00000  Uiso   1.00
N690   N     0.12801   0.93224   0.40995   0.00000  Uiso   1.00
C691   C     0.99205   0.25663   0.96783   0.00000  Uiso   1.00
C692   C     0.00933   0.25984   0.00404   0.00000  Uiso   1.00
C693   C     0.96495   0.26226   0.02966   0.00000  Uiso   1.00
C694   C     0.99054   0.26501   0.06105   0.00000  Uiso   1.00
C695   C     0.00710   0.26993   0.11644   0.00000  Uiso   1.00
C696   C     0.02584   0.20542   0.95482   0.00000  Uiso   1.00
C697   C     0.99533   0.16209   0.93904   0.00000  Uiso   1.00
C698   C     0.03483   0.11903   0.92900   0.00000  Uiso   1.00
C699   C     0.07701   0.03948   0.90794   0.00000  Uiso   1.00
C700   C     0.02621   0.30502   0.95161   0.00000  Uiso   1.00
C701   C     0.99603   0.34541   0.93314   0.00000  Uiso   1.00
C702   C     0.03584   0.38620   0.92039   0.00000  Uiso   1.00
C703   C     0.07862   0.46128   0.89436   0.00000  Uiso   1.00
C704   C     0.11642   0.25722   0.97802   0.00000  Uiso   1.00
C705   C     0.07689   0.26016   0.00958   0.00000  Uiso   1.00
C706   C     0.10255   0.26291   0.04094   0.00000  Uiso   1.00
C707   C     0.05822   0.26533   0.06660   0.00000  Uiso   1.00
C708   C     0.09339   0.20574   0.96035   0.00000  Uiso   1.00
C709   C     0.13294   0.16274   0.95033   0.00000  Uiso   1.00
C710   C     0.10250   0.11935   0.93454   0.00000  Uiso   1.00
C711   C     0.09377   0.30534   0.95715   0.00000  Uiso   1.00
C712   C     0.13364   0.34607   0.94442   0.00000  Uiso   1.00
C713   C     0.10352   0.38652   0.92594   0.00000  Uiso   1.00
H714   H     0.93946   0.25638   0.96351   0.00000  Uiso   1.00
H715   H     0.91267   0.26201   0.02536   0.00000  Uiso   1.00
H716   H     0.94305   0.16186   0.93476   0.00000  Uiso   1.00
H717   H     0.94375   0.34515   0.92886   0.00000  Uiso   1.00
H718   H     0.91277   0.26837   0.09637   0.00000  Uiso   1.00
H719   H     0.97683   0.05720   0.90532   0.00000  Uiso   1.00
H720   H     0.97830   0.44372   0.89288   0.00000  Uiso   1.00
H721   H     0.16902   0.25746   0.98234   0.00000  Uiso   1.00
H722   H     0.15484   0.26316   0.04522   0.00000  Uiso   1.00
H723   H     0.18522   0.16300   0.95461   0.00000  Uiso   1.00
H724   H     0.18591   0.34630   0.94872   0.00000  Uiso   1.00
H725   H     0.10932   0.26930   0.11249   0.00000  Uiso   1.00
H726   H     0.17338   0.05813   0.92144   0.00000  Uiso   1.00
H727   H     0.17485   0.44465   0.90900   0.00000  Uiso   1.00
O728   O     0.99757   0.27254   0.14546   0.00000  Uiso   1.00
O729   O     0.08162   0.99550   0.89480   0.00000  Uiso   1.00
O730   O     0.08355   0.50261   0.87848   0.00000  Uiso   1.00
N731   N     0.96097   0.26782   0.09154   0.00000  Uiso   1.00
N732   N     0.02087   0.07038   0.91292   0.00000  Uiso   1.00
N733   N     0.02224   0.43174   0.90128   0.00000  Uiso   1.00
N734   N     0.06673   0.26832   0.10021   0.00000  Uiso   1.00
N735   N     0.12663   0.07089   0.92159   0.00000  Uiso   1.00
N736   N     0.12801   0.43224   0.90995   0.00000  Uiso   1.00
