data_job_00637
_audit_creation_date              2018-12-19
_audit_creation_method            'Materials Studio'
_symmetry_space_group_name_H-M    'P1'
_symmetry_Int_Tables_number       1
_symmetry_cell_setting            triclinic
loop_
_symmetry_equiv_pos_as_xyz
  x,y,z
_cell_length_a                    64.0002
_cell_length_b                    64.0002
_cell_length_c                    7.1271
_cell_angle_alpha                 90.0000
_cell_angle_beta                  90.0000
_cell_angle_gamma                 90.0000
loop_
_atom_site_label
_atom_site_type_symbol
_atom_site_fract_x
_atom_site_fract_y
_atom_site_fract_z
_atom_site_U_iso_or_equiv
_atom_site_adp_type
_atom_site_occupancy
C1     C     0.14650   0.50004   0.36100   0.00000  Uiso   1.00
C2     C     0.16754   0.50004   0.46139   0.00000  Uiso   1.00
C3     C     0.18698   0.50004   0.37518   0.00000  Uiso   1.00
C4     C     0.20436   0.50004   0.49169   0.00000  Uiso   1.00
C5     C     0.23734   0.50003   0.61782   0.00000  Uiso   1.00
C6     C     0.13471   0.48100   0.43417   0.00000  Uiso   1.00
C7     C     0.12655   0.46500   0.32506   0.00000  Uiso   1.00
C8     C     0.11631   0.44897   0.41866   0.00000  Uiso   1.00
C9     C     0.09831   0.41941   0.50251   0.00000  Uiso   1.00
C10    C     0.13470   0.51907   0.43428   0.00000  Uiso   1.00
C11    C     0.12653   0.53507   0.32526   0.00000  Uiso   1.00
C12    C     0.11627   0.55108   0.41896   0.00000  Uiso   1.00
C13    C     0.09826   0.58063   0.50298   0.00000  Uiso   1.00
C14    C     0.14280   0.50002   0.72122   0.00000  Uiso   1.00
C15    C     0.16553   0.50003   0.65706   0.00000  Uiso   1.00
C16    C     0.18289   0.50003   0.77373   0.00000  Uiso   1.00
C17    C     0.20235   0.50003   0.68771   0.00000  Uiso   1.00
C18    C     0.13270   0.48099   0.62982   0.00000  Uiso   1.00
C19    C     0.12246   0.46498   0.72361   0.00000  Uiso   1.00
C20    C     0.11429   0.44896   0.61467   0.00000  Uiso   1.00
C21    C     0.13269   0.51906   0.62995   0.00000  Uiso   1.00
C22    C     0.12244   0.53505   0.72382   0.00000  Uiso   1.00
C23    C     0.11426   0.55108   0.61497   0.00000  Uiso   1.00
H24    H     0.14806   0.50004   0.20867   0.00000  Uiso   1.00
H25    H     0.18853   0.50005   0.22375   0.00000  Uiso   1.00
H26    H     0.12811   0.46501   0.17364   0.00000  Uiso   1.00
H27    H     0.12809   0.53507   0.17386   0.00000  Uiso   1.00
H28    H     0.23251   0.50004   0.32677   0.00000  Uiso   1.00
H29    H     0.10511   0.42617   0.22110   0.00000  Uiso   1.00
H30    H     0.10507   0.57390   0.22155   0.00000  Uiso   1.00
H31    H     0.14123   0.50002   0.87356   0.00000  Uiso   1.00
H32    H     0.18133   0.50002   0.92514   0.00000  Uiso   1.00
H33    H     0.12091   0.46498   0.87502   0.00000  Uiso   1.00
H34    H     0.12089   0.53504   0.87524   0.00000  Uiso   1.00
H35    H     0.22666   0.50001   0.89605   0.00000  Uiso   1.00
H36    H     0.09927   0.42614   0.79037   0.00000  Uiso   1.00
H37    H     0.09922   0.57387   0.79082   0.00000  Uiso   1.00
O38    O     0.25608   0.50002   0.63334   0.00000  Uiso   1.00
O39    O     0.08894   0.40310   0.49470   0.00000  Uiso   1.00
O40    O     0.08888   0.59693   0.49528   0.00000  Uiso   1.00
N41    N     0.22563   0.50004   0.45367   0.00000  Uiso   1.00
N42    N     0.10652   0.43097   0.35488   0.00000  Uiso   1.00
N43    N     0.10648   0.56908   0.35529   0.00000  Uiso   1.00
N44    N     0.22249   0.50002   0.75999   0.00000  Uiso   1.00
N45    N     0.10338   0.43096   0.66120   0.00000  Uiso   1.00
N46    N     0.10333   0.56907   0.66161   0.00000  Uiso   1.00
C47    C     0.64650   0.00004   0.86100   0.00000  Uiso   1.00
C48    C     0.66754   0.00004   0.96139   0.00000  Uiso   1.00
C49    C     0.68698   0.00004   0.87518   0.00000  Uiso   1.00
C50    C     0.70436   0.00004   0.99169   0.00000  Uiso   1.00
C51    C     0.73734   0.00003   0.11782   0.00000  Uiso   1.00
C52    C     0.63471   0.98100   0.93417   0.00000  Uiso   1.00
C53    C     0.62655   0.96500   0.82506   0.00000  Uiso   1.00
C54    C     0.61631   0.94897   0.91866   0.00000  Uiso   1.00
C55    C     0.59831   0.91941   0.00251   0.00000  Uiso   1.00
C56    C     0.63470   0.01907   0.93428   0.00000  Uiso   1.00
C57    C     0.62653   0.03507   0.82526   0.00000  Uiso   1.00
C58    C     0.61627   0.05108   0.91896   0.00000  Uiso   1.00
C59    C     0.59826   0.08063   0.00298   0.00000  Uiso   1.00
C60    C     0.64280   0.00002   0.22122   0.00000  Uiso   1.00
C61    C     0.66553   0.00003   0.15706   0.00000  Uiso   1.00
C62    C     0.68289   0.00003   0.27373   0.00000  Uiso   1.00
C63    C     0.70235   0.00003   0.18771   0.00000  Uiso   1.00
C64    C     0.63270   0.98099   0.12982   0.00000  Uiso   1.00
C65    C     0.62246   0.96498   0.22361   0.00000  Uiso   1.00
C66    C     0.61429   0.94896   0.11467   0.00000  Uiso   1.00
C67    C     0.63269   0.01906   0.12995   0.00000  Uiso   1.00
C68    C     0.62244   0.03505   0.22382   0.00000  Uiso   1.00
C69    C     0.61426   0.05108   0.11497   0.00000  Uiso   1.00
H70    H     0.64806   0.00004   0.70867   0.00000  Uiso   1.00
H71    H     0.68853   0.00005   0.72375   0.00000  Uiso   1.00
H72    H     0.62811   0.96501   0.67364   0.00000  Uiso   1.00
H73    H     0.62809   0.03507   0.67386   0.00000  Uiso   1.00
H74    H     0.73251   0.00004   0.82677   0.00000  Uiso   1.00
H75    H     0.60511   0.92617   0.72110   0.00000  Uiso   1.00
H76    H     0.60507   0.07390   0.72155   0.00000  Uiso   1.00
H77    H     0.64123   0.00002   0.37356   0.00000  Uiso   1.00
H78    H     0.68133   0.00002   0.42514   0.00000  Uiso   1.00
H79    H     0.62091   0.96498   0.37502   0.00000  Uiso   1.00
H80    H     0.62089   0.03504   0.37524   0.00000  Uiso   1.00
H81    H     0.72666   0.00001   0.39605   0.00000  Uiso   1.00
H82    H     0.59927   0.92614   0.29037   0.00000  Uiso   1.00
H83    H     0.59922   0.07387   0.29082   0.00000  Uiso   1.00
O84    O     0.75608   0.00002   0.13334   0.00000  Uiso   1.00
O85    O     0.58894   0.90310   0.99470   0.00000  Uiso   1.00
O86    O     0.58888   0.09693   0.99528   0.00000  Uiso   1.00
N87    N     0.72563   0.00004   0.95367   0.00000  Uiso   1.00
N88    N     0.60652   0.93097   0.85488   0.00000  Uiso   1.00
N89    N     0.60648   0.06908   0.85529   0.00000  Uiso   1.00
N90    N     0.72249   0.00002   0.25999   0.00000  Uiso   1.00
N91    N     0.60338   0.93096   0.16120   0.00000  Uiso   1.00
N92    N     0.60333   0.06907   0.16161   0.00000  Uiso   1.00
C93    C     0.85350   0.49996   0.36100   0.00000  Uiso   1.00
C94    C     0.83246   0.49996   0.46139   0.00000  Uiso   1.00
C95    C     0.81302   0.49996   0.37518   0.00000  Uiso   1.00
C96    C     0.79564   0.49996   0.49169   0.00000  Uiso   1.00
C97    C     0.76266   0.49997   0.61782   0.00000  Uiso   1.00
C98    C     0.86529   0.51900   0.43417   0.00000  Uiso   1.00
C99    C     0.87345   0.53500   0.32506   0.00000  Uiso   1.00
C100   C     0.88369   0.55103   0.41866   0.00000  Uiso   1.00
C101   C     0.90169   0.58059   0.50251   0.00000  Uiso   1.00
C102   C     0.86530   0.48093   0.43428   0.00000  Uiso   1.00
C103   C     0.87347   0.46493   0.32526   0.00000  Uiso   1.00
C104   C     0.88373   0.44892   0.41896   0.00000  Uiso   1.00
C105   C     0.90174   0.41937   0.50298   0.00000  Uiso   1.00
C106   C     0.85720   0.49998   0.72122   0.00000  Uiso   1.00
C107   C     0.83447   0.49997   0.65706   0.00000  Uiso   1.00
C108   C     0.81711   0.49997   0.77373   0.00000  Uiso   1.00
C109   C     0.79765   0.49997   0.68771   0.00000  Uiso   1.00
C110   C     0.86730   0.51901   0.62982   0.00000  Uiso   1.00
C111   C     0.87754   0.53502   0.72361   0.00000  Uiso   1.00
C112   C     0.88571   0.55104   0.61467   0.00000  Uiso   1.00
C113   C     0.86731   0.48094   0.62995   0.00000  Uiso   1.00
C114   C     0.87756   0.46495   0.72382   0.00000  Uiso   1.00
C115   C     0.88574   0.44892   0.61497   0.00000  Uiso   1.00
H116   H     0.85194   0.49996   0.20867   0.00000  Uiso   1.00
H117   H     0.81147   0.49995   0.22375   0.00000  Uiso   1.00
H118   H     0.87189   0.53499   0.17364   0.00000  Uiso   1.00
H119   H     0.87191   0.46493   0.17386   0.00000  Uiso   1.00
H120   H     0.76749   0.49996   0.32677   0.00000  Uiso   1.00
H121   H     0.89489   0.57383   0.22110   0.00000  Uiso   1.00
H122   H     0.89493   0.42610   0.22155   0.00000  Uiso   1.00
H123   H     0.85877   0.49998   0.87356   0.00000  Uiso   1.00
H124   H     0.81867   0.49998   0.92514   0.00000  Uiso   1.00
H125   H     0.87909   0.53502   0.87502   0.00000  Uiso   1.00
H126   H     0.87911   0.46496   0.87524   0.00000  Uiso   1.00
H127   H     0.77334   0.49999   0.89605   0.00000  Uiso   1.00
H128   H     0.90073   0.57386   0.79037   0.00000  Uiso   1.00
H129   H     0.90078   0.42613   0.79082   0.00000  Uiso   1.00
O130   O     0.74392   0.49998   0.63334   0.00000  Uiso   1.00
O131   O     0.91106   0.59690   0.49470   0.00000  Uiso   1.00
O132   O     0.91112   0.40307   0.49528   0.00000  Uiso   1.00
N133   N     0.77437   0.49996   0.45367   0.00000  Uiso   1.00
N134   N     0.89348   0.56903   0.35488   0.00000  Uiso   1.00
N135   N     0.89352   0.43092   0.35529   0.00000  Uiso   1.00
N136   N     0.77751   0.49998   0.75999   0.00000  Uiso   1.00
N137   N     0.89662   0.56904   0.66120   0.00000  Uiso   1.00
N138   N     0.89667   0.43093   0.66161   0.00000  Uiso   1.00
C139   C     0.35350   0.99996   0.86100   0.00000  Uiso   1.00
C140   C     0.33246   0.99996   0.96139   0.00000  Uiso   1.00
C141   C     0.31302   0.99996   0.87518   0.00000  Uiso   1.00
C142   C     0.29564   0.99996   0.99169   0.00000  Uiso   1.00
C143   C     0.26266   0.99997   0.11782   0.00000  Uiso   1.00
C144   C     0.36529   0.01900   0.93417   0.00000  Uiso   1.00
C145   C     0.37345   0.03500   0.82506   0.00000  Uiso   1.00
C146   C     0.38369   0.05103   0.91866   0.00000  Uiso   1.00
C147   C     0.40169   0.08059   0.00251   0.00000  Uiso   1.00
C148   C     0.36530   0.98093   0.93428   0.00000  Uiso   1.00
C149   C     0.37347   0.96493   0.82526   0.00000  Uiso   1.00
C150   C     0.38373   0.94892   0.91896   0.00000  Uiso   1.00
C151   C     0.40174   0.91937   0.00298   0.00000  Uiso   1.00
C152   C     0.35720   0.99998   0.22122   0.00000  Uiso   1.00
C153   C     0.33447   0.99997   0.15706   0.00000  Uiso   1.00
C154   C     0.31711   0.99997   0.27373   0.00000  Uiso   1.00
C155   C     0.29765   0.99997   0.18771   0.00000  Uiso   1.00
C156   C     0.36730   0.01901   0.12982   0.00000  Uiso   1.00
C157   C     0.37754   0.03502   0.22361   0.00000  Uiso   1.00
C158   C     0.38571   0.05104   0.11467   0.00000  Uiso   1.00
C159   C     0.36731   0.98094   0.12995   0.00000  Uiso   1.00
C160   C     0.37756   0.96495   0.22382   0.00000  Uiso   1.00
C161   C     0.38574   0.94892   0.11497   0.00000  Uiso   1.00
H162   H     0.35194   0.99996   0.70867   0.00000  Uiso   1.00
H163   H     0.31147   0.99995   0.72375   0.00000  Uiso   1.00
H164   H     0.37189   0.03499   0.67364   0.00000  Uiso   1.00
H165   H     0.37191   0.96493   0.67386   0.00000  Uiso   1.00
H166   H     0.26749   0.99996   0.82677   0.00000  Uiso   1.00
H167   H     0.39489   0.07383   0.72110   0.00000  Uiso   1.00
H168   H     0.39493   0.92610   0.72155   0.00000  Uiso   1.00
H169   H     0.35877   0.99998   0.37356   0.00000  Uiso   1.00
H170   H     0.31867   0.99998   0.42514   0.00000  Uiso   1.00
H171   H     0.37909   0.03502   0.37502   0.00000  Uiso   1.00
H172   H     0.37911   0.96496   0.37524   0.00000  Uiso   1.00
H173   H     0.27334   0.99999   0.39605   0.00000  Uiso   1.00
H174   H     0.40073   0.07386   0.29037   0.00000  Uiso   1.00
H175   H     0.40078   0.92613   0.29082   0.00000  Uiso   1.00
O176   O     0.24392   0.99998   0.13334   0.00000  Uiso   1.00
O177   O     0.41106   0.09690   0.99470   0.00000  Uiso   1.00
O178   O     0.41112   0.90307   0.99528   0.00000  Uiso   1.00
N179   N     0.27437   0.99996   0.95367   0.00000  Uiso   1.00
N180   N     0.39348   0.06903   0.85488   0.00000  Uiso   1.00
N181   N     0.39352   0.93092   0.85529   0.00000  Uiso   1.00
N182   N     0.27751   0.99998   0.25999   0.00000  Uiso   1.00
N183   N     0.39662   0.06904   0.16120   0.00000  Uiso   1.00
N184   N     0.39667   0.93093   0.16161   0.00000  Uiso   1.00
C185   C     0.50004   0.85350   0.63900   0.00000  Uiso   1.00
C186   C     0.50004   0.83246   0.53861   0.00000  Uiso   1.00
C187   C     0.50004   0.81302   0.62482   0.00000  Uiso   1.00
C188   C     0.50004   0.79564   0.50831   0.00000  Uiso   1.00
C189   C     0.50003   0.76266   0.38218   0.00000  Uiso   1.00
C190   C     0.48100   0.86529   0.56583   0.00000  Uiso   1.00
C191   C     0.46500   0.87345   0.67494   0.00000  Uiso   1.00
C192   C     0.44897   0.88369   0.58134   0.00000  Uiso   1.00
C193   C     0.41941   0.90169   0.49749   0.00000  Uiso   1.00
C194   C     0.51907   0.86530   0.56572   0.00000  Uiso   1.00
C195   C     0.53507   0.87347   0.67474   0.00000  Uiso   1.00
C196   C     0.55108   0.88373   0.58104   0.00000  Uiso   1.00
C197   C     0.58063   0.90174   0.49702   0.00000  Uiso   1.00
C198   C     0.50002   0.85720   0.27878   0.00000  Uiso   1.00
C199   C     0.50003   0.83447   0.34294   0.00000  Uiso   1.00
C200   C     0.50003   0.81711   0.22627   0.00000  Uiso   1.00
C201   C     0.50003   0.79765   0.31229   0.00000  Uiso   1.00
C202   C     0.48099   0.86730   0.37018   0.00000  Uiso   1.00
C203   C     0.46498   0.87754   0.27639   0.00000  Uiso   1.00
C204   C     0.44896   0.88571   0.38533   0.00000  Uiso   1.00
C205   C     0.51906   0.86731   0.37005   0.00000  Uiso   1.00
C206   C     0.53505   0.87756   0.27618   0.00000  Uiso   1.00
C207   C     0.55108   0.88574   0.38503   0.00000  Uiso   1.00
H208   H     0.50004   0.85194   0.79133   0.00000  Uiso   1.00
H209   H     0.50005   0.81147   0.77625   0.00000  Uiso   1.00
H210   H     0.46501   0.87189   0.82636   0.00000  Uiso   1.00
H211   H     0.53507   0.87191   0.82614   0.00000  Uiso   1.00
H212   H     0.50004   0.76749   0.67323   0.00000  Uiso   1.00
H213   H     0.42617   0.89489   0.77890   0.00000  Uiso   1.00
H214   H     0.57390   0.89493   0.77845   0.00000  Uiso   1.00
H215   H     0.50002   0.85877   0.12644   0.00000  Uiso   1.00
H216   H     0.50002   0.81867   0.07486   0.00000  Uiso   1.00
H217   H     0.46498   0.87909   0.12498   0.00000  Uiso   1.00
H218   H     0.53504   0.87911   0.12476   0.00000  Uiso   1.00
H219   H     0.50001   0.77334   0.10395   0.00000  Uiso   1.00
H220   H     0.42614   0.90073   0.20963   0.00000  Uiso   1.00
H221   H     0.57387   0.90078   0.20918   0.00000  Uiso   1.00
O222   O     0.50002   0.74392   0.36666   0.00000  Uiso   1.00
O223   O     0.40310   0.91106   0.50530   0.00000  Uiso   1.00
O224   O     0.59693   0.91112   0.50472   0.00000  Uiso   1.00
N225   N     0.50004   0.77437   0.54633   0.00000  Uiso   1.00
N226   N     0.43097   0.89348   0.64512   0.00000  Uiso   1.00
N227   N     0.56908   0.89352   0.64471   0.00000  Uiso   1.00
N228   N     0.50002   0.77751   0.24001   0.00000  Uiso   1.00
N229   N     0.43096   0.89662   0.33880   0.00000  Uiso   1.00
N230   N     0.56907   0.89667   0.33839   0.00000  Uiso   1.00
C231   C     0.00004   0.35350   0.13900   0.00000  Uiso   1.00
C232   C     0.00004   0.33246   0.03861   0.00000  Uiso   1.00
C233   C     0.00004   0.31302   0.12482   0.00000  Uiso   1.00
C234   C     0.00004   0.29564   0.00831   0.00000  Uiso   1.00
C235   C     0.00003   0.26266   0.88218   0.00000  Uiso   1.00
C236   C     0.98100   0.36529   0.06583   0.00000  Uiso   1.00
C237   C     0.96500   0.37345   0.17494   0.00000  Uiso   1.00
C238   C     0.94897   0.38369   0.08134   0.00000  Uiso   1.00
C239   C     0.91941   0.40169   0.99749   0.00000  Uiso   1.00
C240   C     0.01907   0.36530   0.06572   0.00000  Uiso   1.00
C241   C     0.03507   0.37347   0.17474   0.00000  Uiso   1.00
C242   C     0.05108   0.38373   0.08104   0.00000  Uiso   1.00
C243   C     0.08063   0.40174   0.99702   0.00000  Uiso   1.00
C244   C     0.00002   0.35720   0.77878   0.00000  Uiso   1.00
C245   C     0.00003   0.33447   0.84294   0.00000  Uiso   1.00
C246   C     0.00003   0.31711   0.72627   0.00000  Uiso   1.00
C247   C     0.00003   0.29765   0.81229   0.00000  Uiso   1.00
C248   C     0.98099   0.36730   0.87018   0.00000  Uiso   1.00
C249   C     0.96498   0.37754   0.77639   0.00000  Uiso   1.00
C250   C     0.94896   0.38571   0.88533   0.00000  Uiso   1.00
C251   C     0.01906   0.36731   0.87005   0.00000  Uiso   1.00
C252   C     0.03505   0.37756   0.77618   0.00000  Uiso   1.00
C253   C     0.05108   0.38574   0.88503   0.00000  Uiso   1.00
H254   H     0.00004   0.35194   0.29133   0.00000  Uiso   1.00
H255   H     0.00005   0.31147   0.27625   0.00000  Uiso   1.00
H256   H     0.96501   0.37189   0.32636   0.00000  Uiso   1.00
H257   H     0.03507   0.37191   0.32614   0.00000  Uiso   1.00
H258   H     0.00004   0.26749   0.17323   0.00000  Uiso   1.00
H259   H     0.92617   0.39489   0.27890   0.00000  Uiso   1.00
H260   H     0.07390   0.39493   0.27845   0.00000  Uiso   1.00
H261   H     0.00002   0.35877   0.62644   0.00000  Uiso   1.00
H262   H     0.00002   0.31867   0.57486   0.00000  Uiso   1.00
H263   H     0.96498   0.37909   0.62498   0.00000  Uiso   1.00
H264   H     0.03504   0.37911   0.62476   0.00000  Uiso   1.00
H265   H     0.00001   0.27334   0.60395   0.00000  Uiso   1.00
H266   H     0.92614   0.40073   0.70963   0.00000  Uiso   1.00
H267   H     0.07387   0.40078   0.70918   0.00000  Uiso   1.00
O268   O     0.00002   0.24392   0.86666   0.00000  Uiso   1.00
O269   O     0.90310   0.41106   0.00530   0.00000  Uiso   1.00
O270   O     0.09693   0.41112   0.00472   0.00000  Uiso   1.00
N271   N     0.00004   0.27437   0.04633   0.00000  Uiso   1.00
N272   N     0.93097   0.39348   0.14512   0.00000  Uiso   1.00
N273   N     0.06908   0.39352   0.14471   0.00000  Uiso   1.00
N274   N     0.00002   0.27751   0.74001   0.00000  Uiso   1.00
N275   N     0.93096   0.39662   0.83880   0.00000  Uiso   1.00
N276   N     0.06907   0.39667   0.83839   0.00000  Uiso   1.00
C277   C     0.49996   0.14650   0.63900   0.00000  Uiso   1.00
C278   C     0.49996   0.16754   0.53861   0.00000  Uiso   1.00
C279   C     0.49996   0.18698   0.62482   0.00000  Uiso   1.00
C280   C     0.49996   0.20436   0.50831   0.00000  Uiso   1.00
C281   C     0.49997   0.23734   0.38218   0.00000  Uiso   1.00
C282   C     0.51900   0.13471   0.56583   0.00000  Uiso   1.00
C283   C     0.53500   0.12655   0.67494   0.00000  Uiso   1.00
C284   C     0.55103   0.11631   0.58134   0.00000  Uiso   1.00
C285   C     0.58059   0.09831   0.49749   0.00000  Uiso   1.00
C286   C     0.48093   0.13470   0.56572   0.00000  Uiso   1.00
C287   C     0.46493   0.12653   0.67474   0.00000  Uiso   1.00
C288   C     0.44892   0.11627   0.58104   0.00000  Uiso   1.00
C289   C     0.41937   0.09826   0.49702   0.00000  Uiso   1.00
C290   C     0.49998   0.14280   0.27878   0.00000  Uiso   1.00
C291   C     0.49997   0.16553   0.34294   0.00000  Uiso   1.00
C292   C     0.49997   0.18289   0.22627   0.00000  Uiso   1.00
C293   C     0.49997   0.20235   0.31229   0.00000  Uiso   1.00
C294   C     0.51901   0.13270   0.37018   0.00000  Uiso   1.00
C295   C     0.53502   0.12246   0.27639   0.00000  Uiso   1.00
C296   C     0.55104   0.11429   0.38533   0.00000  Uiso   1.00
C297   C     0.48094   0.13269   0.37005   0.00000  Uiso   1.00
C298   C     0.46495   0.12244   0.27618   0.00000  Uiso   1.00
C299   C     0.44892   0.11426   0.38503   0.00000  Uiso   1.00
H300   H     0.49996   0.14806   0.79133   0.00000  Uiso   1.00
H301   H     0.49995   0.18853   0.77625   0.00000  Uiso   1.00
H302   H     0.53499   0.12811   0.82636   0.00000  Uiso   1.00
H303   H     0.46493   0.12809   0.82614   0.00000  Uiso   1.00
H304   H     0.49996   0.23251   0.67323   0.00000  Uiso   1.00
H305   H     0.57383   0.10511   0.77890   0.00000  Uiso   1.00
H306   H     0.42610   0.10507   0.77845   0.00000  Uiso   1.00
H307   H     0.49998   0.14123   0.12644   0.00000  Uiso   1.00
H308   H     0.49998   0.18133   0.07486   0.00000  Uiso   1.00
H309   H     0.53502   0.12091   0.12498   0.00000  Uiso   1.00
H310   H     0.46496   0.12089   0.12476   0.00000  Uiso   1.00
H311   H     0.49999   0.22666   0.10395   0.00000  Uiso   1.00
H312   H     0.57386   0.09927   0.20963   0.00000  Uiso   1.00
H313   H     0.42613   0.09922   0.20918   0.00000  Uiso   1.00
O314   O     0.49998   0.25608   0.36666   0.00000  Uiso   1.00
O315   O     0.59690   0.08894   0.50530   0.00000  Uiso   1.00
O316   O     0.40307   0.08888   0.50472   0.00000  Uiso   1.00
N317   N     0.49996   0.22563   0.54633   0.00000  Uiso   1.00
N318   N     0.56903   0.10652   0.64512   0.00000  Uiso   1.00
N319   N     0.43092   0.10648   0.64471   0.00000  Uiso   1.00
N320   N     0.49998   0.22249   0.24001   0.00000  Uiso   1.00
N321   N     0.56904   0.10338   0.33880   0.00000  Uiso   1.00
N322   N     0.43093   0.10333   0.33839   0.00000  Uiso   1.00
C323   C     0.99996   0.64650   0.13900   0.00000  Uiso   1.00
C324   C     0.99996   0.66754   0.03861   0.00000  Uiso   1.00
C325   C     0.99996   0.68698   0.12482   0.00000  Uiso   1.00
C326   C     0.99996   0.70436   0.00831   0.00000  Uiso   1.00
C327   C     0.99997   0.73734   0.88218   0.00000  Uiso   1.00
C328   C     0.01900   0.63471   0.06583   0.00000  Uiso   1.00
C329   C     0.03500   0.62655   0.17494   0.00000  Uiso   1.00
C330   C     0.05103   0.61631   0.08134   0.00000  Uiso   1.00
C331   C     0.08059   0.59831   0.99749   0.00000  Uiso   1.00
C332   C     0.98093   0.63470   0.06572   0.00000  Uiso   1.00
C333   C     0.96493   0.62653   0.17474   0.00000  Uiso   1.00
C334   C     0.94892   0.61627   0.08104   0.00000  Uiso   1.00
C335   C     0.91937   0.59826   0.99702   0.00000  Uiso   1.00
C336   C     0.99998   0.64280   0.77878   0.00000  Uiso   1.00
C337   C     0.99997   0.66553   0.84294   0.00000  Uiso   1.00
C338   C     0.99997   0.68289   0.72627   0.00000  Uiso   1.00
C339   C     0.99997   0.70235   0.81229   0.00000  Uiso   1.00
C340   C     0.01901   0.63270   0.87018   0.00000  Uiso   1.00
C341   C     0.03502   0.62246   0.77639   0.00000  Uiso   1.00
C342   C     0.05104   0.61429   0.88533   0.00000  Uiso   1.00
C343   C     0.98094   0.63269   0.87005   0.00000  Uiso   1.00
C344   C     0.96495   0.62244   0.77618   0.00000  Uiso   1.00
C345   C     0.94892   0.61426   0.88503   0.00000  Uiso   1.00
H346   H     0.99996   0.64806   0.29133   0.00000  Uiso   1.00
H347   H     0.99995   0.68853   0.27625   0.00000  Uiso   1.00
H348   H     0.03499   0.62811   0.32636   0.00000  Uiso   1.00
H349   H     0.96493   0.62809   0.32614   0.00000  Uiso   1.00
H350   H     0.99996   0.73251   0.17323   0.00000  Uiso   1.00
H351   H     0.07383   0.60511   0.27890   0.00000  Uiso   1.00
H352   H     0.92610   0.60507   0.27845   0.00000  Uiso   1.00
H353   H     0.99998   0.64123   0.62644   0.00000  Uiso   1.00
H354   H     0.99998   0.68133   0.57486   0.00000  Uiso   1.00
H355   H     0.03502   0.62091   0.62498   0.00000  Uiso   1.00
H356   H     0.96496   0.62089   0.62476   0.00000  Uiso   1.00
H357   H     0.99999   0.72666   0.60395   0.00000  Uiso   1.00
H358   H     0.07386   0.59927   0.70963   0.00000  Uiso   1.00
H359   H     0.92613   0.59922   0.70918   0.00000  Uiso   1.00
O360   O     0.99998   0.75608   0.86666   0.00000  Uiso   1.00
O361   O     0.09690   0.58894   0.00530   0.00000  Uiso   1.00
O362   O     0.90307   0.58888   0.00472   0.00000  Uiso   1.00
N363   N     0.99996   0.72563   0.04633   0.00000  Uiso   1.00
N364   N     0.06903   0.60652   0.14512   0.00000  Uiso   1.00
N365   N     0.93092   0.60648   0.14471   0.00000  Uiso   1.00
N366   N     0.99998   0.72249   0.74001   0.00000  Uiso   1.00
N367   N     0.06904   0.60338   0.83880   0.00000  Uiso   1.00
N368   N     0.93093   0.60333   0.83839   0.00000  Uiso   1.00
C369   C     0.35350   0.50004   0.38900   0.00000  Uiso   1.00
C370   C     0.33246   0.50004   0.28861   0.00000  Uiso   1.00
C371   C     0.31302   0.50004   0.37482   0.00000  Uiso   1.00
C372   C     0.29564   0.50004   0.25831   0.00000  Uiso   1.00
C373   C     0.26266   0.50003   0.13218   0.00000  Uiso   1.00
C374   C     0.36529   0.48100   0.31583   0.00000  Uiso   1.00
C375   C     0.37345   0.46500   0.42494   0.00000  Uiso   1.00
C376   C     0.38369   0.44897   0.33134   0.00000  Uiso   1.00
C377   C     0.40169   0.41941   0.24749   0.00000  Uiso   1.00
C378   C     0.36530   0.51907   0.31572   0.00000  Uiso   1.00
C379   C     0.37347   0.53507   0.42474   0.00000  Uiso   1.00
C380   C     0.38373   0.55108   0.33104   0.00000  Uiso   1.00
C381   C     0.40174   0.58063   0.24702   0.00000  Uiso   1.00
C382   C     0.35720   0.50002   0.02878   0.00000  Uiso   1.00
C383   C     0.33447   0.50003   0.09294   0.00000  Uiso   1.00
C384   C     0.31711   0.50003   0.97627   0.00000  Uiso   1.00
C385   C     0.29765   0.50003   0.06229   0.00000  Uiso   1.00
C386   C     0.36730   0.48099   0.12018   0.00000  Uiso   1.00
C387   C     0.37754   0.46498   0.02639   0.00000  Uiso   1.00
C388   C     0.38571   0.44896   0.13533   0.00000  Uiso   1.00
C389   C     0.36731   0.51906   0.12005   0.00000  Uiso   1.00
C390   C     0.37756   0.53505   0.02618   0.00000  Uiso   1.00
C391   C     0.38574   0.55108   0.13503   0.00000  Uiso   1.00
H392   H     0.35194   0.50004   0.54133   0.00000  Uiso   1.00
H393   H     0.31147   0.50005   0.52625   0.00000  Uiso   1.00
H394   H     0.37189   0.46501   0.57636   0.00000  Uiso   1.00
H395   H     0.37191   0.53507   0.57614   0.00000  Uiso   1.00
H396   H     0.26749   0.50004   0.42323   0.00000  Uiso   1.00
H397   H     0.39489   0.42617   0.52890   0.00000  Uiso   1.00
H398   H     0.39493   0.57390   0.52845   0.00000  Uiso   1.00
H399   H     0.35877   0.50002   0.87644   0.00000  Uiso   1.00
H400   H     0.31867   0.50002   0.82486   0.00000  Uiso   1.00
H401   H     0.37909   0.46498   0.87498   0.00000  Uiso   1.00
H402   H     0.37911   0.53504   0.87476   0.00000  Uiso   1.00
H403   H     0.27334   0.50001   0.85395   0.00000  Uiso   1.00
H404   H     0.40073   0.42614   0.95963   0.00000  Uiso   1.00
H405   H     0.40078   0.57387   0.95918   0.00000  Uiso   1.00
O406   O     0.24392   0.50002   0.11666   0.00000  Uiso   1.00
O407   O     0.41106   0.40310   0.25530   0.00000  Uiso   1.00
O408   O     0.41112   0.59693   0.25472   0.00000  Uiso   1.00
N409   N     0.27437   0.50004   0.29633   0.00000  Uiso   1.00
N410   N     0.39348   0.43097   0.39512   0.00000  Uiso   1.00
N411   N     0.39352   0.56908   0.39471   0.00000  Uiso   1.00
N412   N     0.27751   0.50002   0.99001   0.00000  Uiso   1.00
N413   N     0.39662   0.43096   0.08880   0.00000  Uiso   1.00
N414   N     0.39667   0.56907   0.08839   0.00000  Uiso   1.00
C415   C     0.85350   0.00004   0.88900   0.00000  Uiso   1.00
C416   C     0.83246   0.00004   0.78861   0.00000  Uiso   1.00
C417   C     0.81302   0.00004   0.87482   0.00000  Uiso   1.00
C418   C     0.79564   0.00004   0.75831   0.00000  Uiso   1.00
C419   C     0.76266   0.00003   0.63218   0.00000  Uiso   1.00
C420   C     0.86529   0.98100   0.81583   0.00000  Uiso   1.00
C421   C     0.87345   0.96500   0.92494   0.00000  Uiso   1.00
C422   C     0.88369   0.94897   0.83134   0.00000  Uiso   1.00
C423   C     0.90169   0.91941   0.74749   0.00000  Uiso   1.00
C424   C     0.86530   0.01907   0.81572   0.00000  Uiso   1.00
C425   C     0.87347   0.03507   0.92474   0.00000  Uiso   1.00
C426   C     0.88373   0.05108   0.83104   0.00000  Uiso   1.00
C427   C     0.90174   0.08063   0.74702   0.00000  Uiso   1.00
C428   C     0.85720   0.00002   0.52878   0.00000  Uiso   1.00
C429   C     0.83447   0.00003   0.59294   0.00000  Uiso   1.00
C430   C     0.81711   0.00003   0.47627   0.00000  Uiso   1.00
C431   C     0.79765   0.00003   0.56229   0.00000  Uiso   1.00
C432   C     0.86730   0.98099   0.62018   0.00000  Uiso   1.00
C433   C     0.87754   0.96498   0.52639   0.00000  Uiso   1.00
C434   C     0.88571   0.94896   0.63533   0.00000  Uiso   1.00
C435   C     0.86731   0.01906   0.62005   0.00000  Uiso   1.00
C436   C     0.87756   0.03505   0.52618   0.00000  Uiso   1.00
C437   C     0.88574   0.05108   0.63503   0.00000  Uiso   1.00
H438   H     0.85194   0.00004   0.04133   0.00000  Uiso   1.00
H439   H     0.81147   0.00005   0.02625   0.00000  Uiso   1.00
H440   H     0.87189   0.96501   0.07636   0.00000  Uiso   1.00
H441   H     0.87191   0.03507   0.07614   0.00000  Uiso   1.00
H442   H     0.76749   0.00004   0.92323   0.00000  Uiso   1.00
H443   H     0.89489   0.92617   0.02890   0.00000  Uiso   1.00
H444   H     0.89493   0.07390   0.02845   0.00000  Uiso   1.00
H445   H     0.85877   0.00002   0.37644   0.00000  Uiso   1.00
H446   H     0.81867   0.00002   0.32486   0.00000  Uiso   1.00
H447   H     0.87909   0.96498   0.37498   0.00000  Uiso   1.00
H448   H     0.87911   0.03504   0.37476   0.00000  Uiso   1.00
H449   H     0.77334   0.00001   0.35395   0.00000  Uiso   1.00
H450   H     0.90073   0.92614   0.45963   0.00000  Uiso   1.00
H451   H     0.90078   0.07387   0.45918   0.00000  Uiso   1.00
O452   O     0.74392   0.00002   0.61666   0.00000  Uiso   1.00
O453   O     0.91106   0.90310   0.75530   0.00000  Uiso   1.00
O454   O     0.91112   0.09693   0.75472   0.00000  Uiso   1.00
N455   N     0.77437   0.00004   0.79633   0.00000  Uiso   1.00
N456   N     0.89348   0.93097   0.89512   0.00000  Uiso   1.00
N457   N     0.89352   0.06908   0.89471   0.00000  Uiso   1.00
N458   N     0.77751   0.00002   0.49001   0.00000  Uiso   1.00
N459   N     0.89662   0.93096   0.58880   0.00000  Uiso   1.00
N460   N     0.89667   0.06907   0.58839   0.00000  Uiso   1.00
C461   C     0.64650   0.49996   0.38900   0.00000  Uiso   1.00
C462   C     0.66754   0.49996   0.28861   0.00000  Uiso   1.00
C463   C     0.68698   0.49996   0.37482   0.00000  Uiso   1.00
C464   C     0.70436   0.49996   0.25831   0.00000  Uiso   1.00
C465   C     0.73734   0.49997   0.13218   0.00000  Uiso   1.00
C466   C     0.63471   0.51900   0.31583   0.00000  Uiso   1.00
C467   C     0.62655   0.53500   0.42494   0.00000  Uiso   1.00
C468   C     0.61631   0.55103   0.33134   0.00000  Uiso   1.00
C469   C     0.59831   0.58059   0.24749   0.00000  Uiso   1.00
C470   C     0.63470   0.48093   0.31572   0.00000  Uiso   1.00
C471   C     0.62653   0.46493   0.42474   0.00000  Uiso   1.00
C472   C     0.61627   0.44892   0.33104   0.00000  Uiso   1.00
C473   C     0.59826   0.41937   0.24702   0.00000  Uiso   1.00
C474   C     0.64280   0.49998   0.02878   0.00000  Uiso   1.00
C475   C     0.66553   0.49997   0.09294   0.00000  Uiso   1.00
C476   C     0.68289   0.49997   0.97627   0.00000  Uiso   1.00
C477   C     0.70235   0.49997   0.06229   0.00000  Uiso   1.00
C478   C     0.63270   0.51901   0.12018   0.00000  Uiso   1.00
C479   C     0.62246   0.53502   0.02639   0.00000  Uiso   1.00
C480   C     0.61429   0.55104   0.13533   0.00000  Uiso   1.00
C481   C     0.63269   0.48094   0.12005   0.00000  Uiso   1.00
C482   C     0.62244   0.46495   0.02618   0.00000  Uiso   1.00
C483   C     0.61426   0.44892   0.13503   0.00000  Uiso   1.00
H484   H     0.64806   0.49996   0.54133   0.00000  Uiso   1.00
H485   H     0.68853   0.49995   0.52625   0.00000  Uiso   1.00
H486   H     0.62811   0.53499   0.57636   0.00000  Uiso   1.00
H487   H     0.62809   0.46493   0.57614   0.00000  Uiso   1.00
H488   H     0.73251   0.49996   0.42323   0.00000  Uiso   1.00
H489   H     0.60511   0.57383   0.52890   0.00000  Uiso   1.00
H490   H     0.60507   0.42610   0.52845   0.00000  Uiso   1.00
H491   H     0.64123   0.49998   0.87644   0.00000  Uiso   1.00
H492   H     0.68133   0.49998   0.82486   0.00000  Uiso   1.00
H493   H     0.62091   0.53502   0.87498   0.00000  Uiso   1.00
H494   H     0.62089   0.46496   0.87476   0.00000  Uiso   1.00
H495   H     0.72666   0.49999   0.85395   0.00000  Uiso   1.00
H496   H     0.59927   0.57386   0.95963   0.00000  Uiso   1.00
H497   H     0.59922   0.42613   0.95918   0.00000  Uiso   1.00
O498   O     0.75608   0.49998   0.11666   0.00000  Uiso   1.00
O499   O     0.58894   0.59690   0.25530   0.00000  Uiso   1.00
O500   O     0.58888   0.40307   0.25472   0.00000  Uiso   1.00
N501   N     0.72563   0.49996   0.29633   0.00000  Uiso   1.00
N502   N     0.60652   0.56903   0.39512   0.00000  Uiso   1.00
N503   N     0.60648   0.43092   0.39471   0.00000  Uiso   1.00
N504   N     0.72249   0.49998   0.99001   0.00000  Uiso   1.00
N505   N     0.60338   0.56904   0.08880   0.00000  Uiso   1.00
N506   N     0.60333   0.43093   0.08839   0.00000  Uiso   1.00
C507   C     0.14650   0.99996   0.88900   0.00000  Uiso   1.00
C508   C     0.16754   0.99996   0.78861   0.00000  Uiso   1.00
C509   C     0.18698   0.99996   0.87482   0.00000  Uiso   1.00
C510   C     0.20436   0.99996   0.75831   0.00000  Uiso   1.00
C511   C     0.23734   0.99997   0.63218   0.00000  Uiso   1.00
C512   C     0.13471   0.01900   0.81583   0.00000  Uiso   1.00
C513   C     0.12655   0.03500   0.92494   0.00000  Uiso   1.00
C514   C     0.11631   0.05103   0.83134   0.00000  Uiso   1.00
C515   C     0.09831   0.08059   0.74749   0.00000  Uiso   1.00
C516   C     0.13470   0.98093   0.81572   0.00000  Uiso   1.00
C517   C     0.12653   0.96493   0.92474   0.00000  Uiso   1.00
C518   C     0.11627   0.94892   0.83104   0.00000  Uiso   1.00
C519   C     0.09826   0.91937   0.74702   0.00000  Uiso   1.00
C520   C     0.14280   0.99998   0.52878   0.00000  Uiso   1.00
C521   C     0.16553   0.99997   0.59294   0.00000  Uiso   1.00
C522   C     0.18289   0.99997   0.47627   0.00000  Uiso   1.00
C523   C     0.20235   0.99997   0.56229   0.00000  Uiso   1.00
C524   C     0.13270   0.01901   0.62018   0.00000  Uiso   1.00
C525   C     0.12246   0.03502   0.52639   0.00000  Uiso   1.00
C526   C     0.11429   0.05104   0.63533   0.00000  Uiso   1.00
C527   C     0.13269   0.98094   0.62005   0.00000  Uiso   1.00
C528   C     0.12244   0.96495   0.52618   0.00000  Uiso   1.00
C529   C     0.11426   0.94892   0.63503   0.00000  Uiso   1.00
H530   H     0.14806   0.99996   0.04133   0.00000  Uiso   1.00
H531   H     0.18853   0.99995   0.02625   0.00000  Uiso   1.00
H532   H     0.12811   0.03499   0.07636   0.00000  Uiso   1.00
H533   H     0.12809   0.96493   0.07614   0.00000  Uiso   1.00
H534   H     0.23251   0.99996   0.92323   0.00000  Uiso   1.00
H535   H     0.10511   0.07383   0.02890   0.00000  Uiso   1.00
H536   H     0.10507   0.92610   0.02845   0.00000  Uiso   1.00
H537   H     0.14123   0.99998   0.37644   0.00000  Uiso   1.00
H538   H     0.18133   0.99998   0.32486   0.00000  Uiso   1.00
H539   H     0.12091   0.03502   0.37498   0.00000  Uiso   1.00
H540   H     0.12089   0.96496   0.37476   0.00000  Uiso   1.00
H541   H     0.22666   0.99999   0.35395   0.00000  Uiso   1.00
H542   H     0.09927   0.07386   0.45963   0.00000  Uiso   1.00
H543   H     0.09922   0.92613   0.45918   0.00000  Uiso   1.00
O544   O     0.25608   0.99998   0.61666   0.00000  Uiso   1.00
O545   O     0.08894   0.09690   0.75530   0.00000  Uiso   1.00
O546   O     0.08888   0.90307   0.75472   0.00000  Uiso   1.00
N547   N     0.22563   0.99996   0.79633   0.00000  Uiso   1.00
N548   N     0.10652   0.06903   0.89512   0.00000  Uiso   1.00
N549   N     0.10648   0.93092   0.89471   0.00000  Uiso   1.00
N550   N     0.22249   0.99998   0.49001   0.00000  Uiso   1.00
N551   N     0.10338   0.06904   0.58880   0.00000  Uiso   1.00
N552   N     0.10333   0.93093   0.58839   0.00000  Uiso   1.00
C553   C     0.99996   0.85350   0.11100   0.00000  Uiso   1.00
C554   C     0.99996   0.83246   0.21139   0.00000  Uiso   1.00
C555   C     0.99996   0.81302   0.12518   0.00000  Uiso   1.00
C556   C     0.99996   0.79564   0.24169   0.00000  Uiso   1.00
C557   C     0.99997   0.76266   0.36782   0.00000  Uiso   1.00
C558   C     0.01900   0.86529   0.18417   0.00000  Uiso   1.00
C559   C     0.03500   0.87345   0.07506   0.00000  Uiso   1.00
C560   C     0.05103   0.88369   0.16866   0.00000  Uiso   1.00
C561   C     0.08059   0.90169   0.25251   0.00000  Uiso   1.00
C562   C     0.98093   0.86530   0.18428   0.00000  Uiso   1.00
C563   C     0.96493   0.87347   0.07526   0.00000  Uiso   1.00
C564   C     0.94892   0.88373   0.16896   0.00000  Uiso   1.00
C565   C     0.91937   0.90174   0.25298   0.00000  Uiso   1.00
C566   C     0.99998   0.85720   0.47122   0.00000  Uiso   1.00
C567   C     0.99997   0.83447   0.40706   0.00000  Uiso   1.00
C568   C     0.99997   0.81711   0.52373   0.00000  Uiso   1.00
C569   C     0.99997   0.79765   0.43771   0.00000  Uiso   1.00
C570   C     0.01901   0.86730   0.37982   0.00000  Uiso   1.00
C571   C     0.03502   0.87754   0.47361   0.00000  Uiso   1.00
C572   C     0.05104   0.88571   0.36467   0.00000  Uiso   1.00
C573   C     0.98094   0.86731   0.37995   0.00000  Uiso   1.00
C574   C     0.96495   0.87756   0.47382   0.00000  Uiso   1.00
C575   C     0.94892   0.88574   0.36497   0.00000  Uiso   1.00
H576   H     0.99996   0.85194   0.95867   0.00000  Uiso   1.00
H577   H     0.99995   0.81147   0.97375   0.00000  Uiso   1.00
H578   H     0.03499   0.87189   0.92364   0.00000  Uiso   1.00
H579   H     0.96493   0.87191   0.92386   0.00000  Uiso   1.00
H580   H     0.99996   0.76749   0.07677   0.00000  Uiso   1.00
H581   H     0.07383   0.89489   0.97110   0.00000  Uiso   1.00
H582   H     0.92610   0.89493   0.97155   0.00000  Uiso   1.00
H583   H     0.99998   0.85877   0.62356   0.00000  Uiso   1.00
H584   H     0.99998   0.81867   0.67514   0.00000  Uiso   1.00
H585   H     0.03502   0.87909   0.62502   0.00000  Uiso   1.00
H586   H     0.96496   0.87911   0.62524   0.00000  Uiso   1.00
H587   H     0.99999   0.77334   0.64605   0.00000  Uiso   1.00
H588   H     0.07386   0.90073   0.54037   0.00000  Uiso   1.00
H589   H     0.92613   0.90078   0.54082   0.00000  Uiso   1.00
O590   O     0.99998   0.74392   0.38334   0.00000  Uiso   1.00
O591   O     0.09690   0.91106   0.24470   0.00000  Uiso   1.00
O592   O     0.90307   0.91112   0.24528   0.00000  Uiso   1.00
N593   N     0.99996   0.77437   0.20367   0.00000  Uiso   1.00
N594   N     0.06903   0.89348   0.10488   0.00000  Uiso   1.00
N595   N     0.93092   0.89352   0.10529   0.00000  Uiso   1.00
N596   N     0.99998   0.77751   0.50999   0.00000  Uiso   1.00
N597   N     0.06904   0.89662   0.41120   0.00000  Uiso   1.00
N598   N     0.93093   0.89667   0.41161   0.00000  Uiso   1.00
C599   C     0.49996   0.35350   0.61100   0.00000  Uiso   1.00
C600   C     0.49996   0.33246   0.71139   0.00000  Uiso   1.00
C601   C     0.49996   0.31302   0.62518   0.00000  Uiso   1.00
C602   C     0.49996   0.29564   0.74169   0.00000  Uiso   1.00
C603   C     0.49997   0.26266   0.86782   0.00000  Uiso   1.00
C604   C     0.51900   0.36529   0.68417   0.00000  Uiso   1.00
C605   C     0.53500   0.37345   0.57506   0.00000  Uiso   1.00
C606   C     0.55103   0.38369   0.66866   0.00000  Uiso   1.00
C607   C     0.58059   0.40169   0.75251   0.00000  Uiso   1.00
C608   C     0.48093   0.36530   0.68428   0.00000  Uiso   1.00
C609   C     0.46493   0.37347   0.57526   0.00000  Uiso   1.00
C610   C     0.44892   0.38373   0.66896   0.00000  Uiso   1.00
C611   C     0.41937   0.40174   0.75298   0.00000  Uiso   1.00
C612   C     0.49998   0.35720   0.97122   0.00000  Uiso   1.00
C613   C     0.49997   0.33447   0.90706   0.00000  Uiso   1.00
C614   C     0.49997   0.31711   0.02373   0.00000  Uiso   1.00
C615   C     0.49997   0.29765   0.93771   0.00000  Uiso   1.00
C616   C     0.51901   0.36730   0.87982   0.00000  Uiso   1.00
C617   C     0.53502   0.37754   0.97361   0.00000  Uiso   1.00
C618   C     0.55104   0.38571   0.86467   0.00000  Uiso   1.00
C619   C     0.48094   0.36731   0.87995   0.00000  Uiso   1.00
C620   C     0.46495   0.37756   0.97382   0.00000  Uiso   1.00
C621   C     0.44892   0.38574   0.86497   0.00000  Uiso   1.00
H622   H     0.49996   0.35194   0.45867   0.00000  Uiso   1.00
H623   H     0.49995   0.31147   0.47375   0.00000  Uiso   1.00
H624   H     0.53499   0.37189   0.42364   0.00000  Uiso   1.00
H625   H     0.46493   0.37191   0.42386   0.00000  Uiso   1.00
H626   H     0.49996   0.26749   0.57677   0.00000  Uiso   1.00
H627   H     0.57383   0.39489   0.47110   0.00000  Uiso   1.00
H628   H     0.42610   0.39493   0.47155   0.00000  Uiso   1.00
H629   H     0.49998   0.35877   0.12356   0.00000  Uiso   1.00
H630   H     0.49998   0.31867   0.17514   0.00000  Uiso   1.00
H631   H     0.53502   0.37909   0.12502   0.00000  Uiso   1.00
H632   H     0.46496   0.37911   0.12524   0.00000  Uiso   1.00
H633   H     0.49999   0.27334   0.14605   0.00000  Uiso   1.00
H634   H     0.57386   0.40073   0.04037   0.00000  Uiso   1.00
H635   H     0.42613   0.40078   0.04082   0.00000  Uiso   1.00
O636   O     0.49998   0.24392   0.88334   0.00000  Uiso   1.00
O637   O     0.59690   0.41106   0.74470   0.00000  Uiso   1.00
O638   O     0.40307   0.41112   0.74528   0.00000  Uiso   1.00
N639   N     0.49996   0.27437   0.70367   0.00000  Uiso   1.00
N640   N     0.56903   0.39348   0.60488   0.00000  Uiso   1.00
N641   N     0.43092   0.39352   0.60529   0.00000  Uiso   1.00
N642   N     0.49998   0.27751   0.00999   0.00000  Uiso   1.00
N643   N     0.56904   0.39662   0.91120   0.00000  Uiso   1.00
N644   N     0.43093   0.39667   0.91161   0.00000  Uiso   1.00
C645   C     0.00004   0.14650   0.11100   0.00000  Uiso   1.00
C646   C     0.00004   0.16754   0.21139   0.00000  Uiso   1.00
C647   C     0.00004   0.18698   0.12518   0.00000  Uiso   1.00
C648   C     0.00004   0.20436   0.24169   0.00000  Uiso   1.00
C649   C     0.00003   0.23734   0.36782   0.00000  Uiso   1.00
C650   C     0.98100   0.13471   0.18417   0.00000  Uiso   1.00
C651   C     0.96500   0.12655   0.07506   0.00000  Uiso   1.00
C652   C     0.94897   0.11631   0.16866   0.00000  Uiso   1.00
C653   C     0.91941   0.09831   0.25251   0.00000  Uiso   1.00
C654   C     0.01907   0.13470   0.18428   0.00000  Uiso   1.00
C655   C     0.03507   0.12653   0.07526   0.00000  Uiso   1.00
C656   C     0.05108   0.11627   0.16896   0.00000  Uiso   1.00
C657   C     0.08063   0.09826   0.25298   0.00000  Uiso   1.00
C658   C     0.00002   0.14280   0.47122   0.00000  Uiso   1.00
C659   C     0.00003   0.16553   0.40706   0.00000  Uiso   1.00
C660   C     0.00003   0.18289   0.52373   0.00000  Uiso   1.00
C661   C     0.00003   0.20235   0.43771   0.00000  Uiso   1.00
C662   C     0.98099   0.13270   0.37982   0.00000  Uiso   1.00
C663   C     0.96498   0.12246   0.47361   0.00000  Uiso   1.00
C664   C     0.94896   0.11429   0.36467   0.00000  Uiso   1.00
C665   C     0.01906   0.13269   0.37995   0.00000  Uiso   1.00
C666   C     0.03505   0.12244   0.47382   0.00000  Uiso   1.00
C667   C     0.05108   0.11426   0.36497   0.00000  Uiso   1.00
H668   H     0.00004   0.14806   0.95867   0.00000  Uiso   1.00
H669   H     0.00005   0.18853   0.97375   0.00000  Uiso   1.00
H670   H     0.96501   0.12811   0.92364   0.00000  Uiso   1.00
H671   H     0.03507   0.12809   0.92386   0.00000  Uiso   1.00
H672   H     0.00004   0.23251   0.07677   0.00000  Uiso   1.00
H673   H     0.92617   0.10511   0.97110   0.00000  Uiso   1.00
H674   H     0.07390   0.10507   0.97155   0.00000  Uiso   1.00
H675   H     0.00002   0.14123   0.62356   0.00000  Uiso   1.00
H676   H     0.00002   0.18133   0.67514   0.00000  Uiso   1.00
H677   H     0.96498   0.12091   0.62502   0.00000  Uiso   1.00
H678   H     0.03504   0.12089   0.62524   0.00000  Uiso   1.00
H679   H     0.00001   0.22666   0.64605   0.00000  Uiso   1.00
H680   H     0.92614   0.09927   0.54037   0.00000  Uiso   1.00
H681   H     0.07387   0.09922   0.54082   0.00000  Uiso   1.00
O682   O     0.00002   0.25608   0.38334   0.00000  Uiso   1.00
O683   O     0.90310   0.08894   0.24470   0.00000  Uiso   1.00
O684   O     0.09693   0.08888   0.24528   0.00000  Uiso   1.00
N685   N     0.00004   0.22563   0.20367   0.00000  Uiso   1.00
N686   N     0.93097   0.10652   0.10488   0.00000  Uiso   1.00
N687   N     0.06908   0.10648   0.10529   0.00000  Uiso   1.00
N688   N     0.00002   0.22249   0.50999   0.00000  Uiso   1.00
N689   N     0.93096   0.10338   0.41120   0.00000  Uiso   1.00
N690   N     0.06907   0.10333   0.41161   0.00000  Uiso   1.00
C691   C     0.50004   0.64650   0.61100   0.00000  Uiso   1.00
C692   C     0.50004   0.66754   0.71139   0.00000  Uiso   1.00
C693   C     0.50004   0.68698   0.62518   0.00000  Uiso   1.00
C694   C     0.50004   0.70436   0.74169   0.00000  Uiso   1.00
C695   C     0.50003   0.73734   0.86782   0.00000  Uiso   1.00
C696   C     0.48100   0.63471   0.68417   0.00000  Uiso   1.00
C697   C     0.46500   0.62655   0.57506   0.00000  Uiso   1.00
C698   C     0.44897   0.61631   0.66866   0.00000  Uiso   1.00
C699   C     0.41941   0.59831   0.75251   0.00000  Uiso   1.00
C700   C     0.51907   0.63470   0.68428   0.00000  Uiso   1.00
C701   C     0.53507   0.62653   0.57526   0.00000  Uiso   1.00
C702   C     0.55108   0.61627   0.66896   0.00000  Uiso   1.00
C703   C     0.58063   0.59826   0.75298   0.00000  Uiso   1.00
C704   C     0.50002   0.64280   0.97122   0.00000  Uiso   1.00
C705   C     0.50003   0.66553   0.90706   0.00000  Uiso   1.00
C706   C     0.50003   0.68289   0.02373   0.00000  Uiso   1.00
C707   C     0.50003   0.70235   0.93771   0.00000  Uiso   1.00
C708   C     0.48099   0.63270   0.87982   0.00000  Uiso   1.00
C709   C     0.46498   0.62246   0.97361   0.00000  Uiso   1.00
C710   C     0.44896   0.61429   0.86467   0.00000  Uiso   1.00
C711   C     0.51906   0.63269   0.87995   0.00000  Uiso   1.00
C712   C     0.53505   0.62244   0.97382   0.00000  Uiso   1.00
C713   C     0.55108   0.61426   0.86497   0.00000  Uiso   1.00
H714   H     0.50004   0.64806   0.45867   0.00000  Uiso   1.00
H715   H     0.50005   0.68853   0.47375   0.00000  Uiso   1.00
H716   H     0.46501   0.62811   0.42364   0.00000  Uiso   1.00
H717   H     0.53507   0.62809   0.42386   0.00000  Uiso   1.00
H718   H     0.50004   0.73251   0.57677   0.00000  Uiso   1.00
H719   H     0.42617   0.60511   0.47110   0.00000  Uiso   1.00
H720   H     0.57390   0.60507   0.47155   0.00000  Uiso   1.00
H721   H     0.50002   0.64123   0.12356   0.00000  Uiso   1.00
H722   H     0.50002   0.68133   0.17514   0.00000  Uiso   1.00
H723   H     0.46498   0.62091   0.12502   0.00000  Uiso   1.00
H724   H     0.53504   0.62089   0.12524   0.00000  Uiso   1.00
H725   H     0.50001   0.72666   0.14605   0.00000  Uiso   1.00
H726   H     0.42614   0.59927   0.04037   0.00000  Uiso   1.00
H727   H     0.57387   0.59922   0.04082   0.00000  Uiso   1.00
O728   O     0.50002   0.75608   0.88334   0.00000  Uiso   1.00
O729   O     0.40310   0.58894   0.74470   0.00000  Uiso   1.00
O730   O     0.59693   0.58888   0.74528   0.00000  Uiso   1.00
N731   N     0.50004   0.72563   0.70367   0.00000  Uiso   1.00
N732   N     0.43097   0.60652   0.60488   0.00000  Uiso   1.00
N733   N     0.56908   0.60648   0.60529   0.00000  Uiso   1.00
N734   N     0.50002   0.72249   0.00999   0.00000  Uiso   1.00
N735   N     0.43096   0.60338   0.91120   0.00000  Uiso   1.00
N736   N     0.56907   0.60333   0.91161   0.00000  Uiso   1.00
