data_job_05366
_audit_creation_date              2018-12-19
_audit_creation_method            'Materials Studio'
_symmetry_space_group_name_H-M    'P1'
_symmetry_Int_Tables_number       1
_symmetry_cell_setting            triclinic
loop_
_symmetry_equiv_pos_as_xyz
  x,y,z
_cell_length_a                    30.6080
_cell_length_b                    31.0027
_cell_length_c                    11.3353
_cell_angle_alpha                 90.0000
_cell_angle_beta                  90.0000
_cell_angle_gamma                 90.0000
loop_
_atom_site_label
_atom_site_type_symbol
_atom_site_fract_x
_atom_site_fract_y
_atom_site_fract_z
_atom_site_U_iso_or_equiv
_atom_site_adp_type
_atom_site_occupancy
C1     C     0.64115   0.87760   0.13691   0.00000  Uiso   1.00
C2     C     0.68109   0.89993   0.18926   0.00000  Uiso   1.00
C3     C     0.72298   0.88290   0.19432   0.00000  Uiso   1.00
C4     C     0.75504   0.90841   0.24572   0.00000  Uiso   1.00
C5     C     0.81849   0.93683   0.32026   0.00000  Uiso   1.00
C6     C     0.60700   0.87653   0.23481   0.00000  Uiso   1.00
C7     C     0.58660   0.83983   0.27816   0.00000  Uiso   1.00
C8     C     0.55628   0.84563   0.36789   0.00000  Uiso   1.00
C9     C     0.50469   0.83773   0.51309   0.00000  Uiso   1.00
C10    C     0.62334   0.90813   0.04304   0.00000  Uiso   1.00
C11    C     0.61666   0.89800   0.92516   0.00000  Uiso   1.00
C12    C     0.60010   0.93041   0.85344   0.00000  Uiso   1.00
C13    C     0.57388   0.97157   0.70089   0.00000  Uiso   1.00
C14    C     0.62360   0.95317   0.21917   0.00000  Uiso   1.00
C15    C     0.67155   0.94097   0.23394   0.00000  Uiso   1.00
C16    C     0.70356   0.96651   0.28534   0.00000  Uiso   1.00
C17    C     0.74549   0.94953   0.29047   0.00000  Uiso   1.00
C18    C     0.59747   0.91757   0.27949   0.00000  Uiso   1.00
C19    C     0.56717   0.92344   0.36917   0.00000  Uiso   1.00
C20    C     0.54673   0.88676   0.41265   0.00000  Uiso   1.00
C21    C     0.61381   0.94918   0.08772   0.00000  Uiso   1.00
C22    C     0.59724   0.98161   0.01617   0.00000  Uiso   1.00
C23    C     0.59054   0.97153   0.89820   0.00000  Uiso   1.00
H24    H     0.64858   0.84564   0.10213   0.00000  Uiso   1.00
H25    H     0.73035   0.85113   0.15975   0.00000  Uiso   1.00
H26    H     0.59398   0.80807   0.24356   0.00000  Uiso   1.00
H27    H     0.62405   0.86623   0.89061   0.00000  Uiso   1.00
H28    H     0.81679   0.87532   0.24337   0.00000  Uiso   1.00
H29    H     0.52925   0.78451   0.42006   0.00000  Uiso   1.00
H30    H     0.59265   0.90716   0.67581   0.00000  Uiso   1.00
H31    H     0.61617   0.98513   0.25396   0.00000  Uiso   1.00
H32    H     0.69617   0.99828   0.31991   0.00000  Uiso   1.00
H33    H     0.55980   0.95521   0.40372   0.00000  Uiso   1.00
H34    H     0.58987   0.01337   0.05078   0.00000  Uiso   1.00
H35    H     0.78905   0.99475   0.37337   0.00000  Uiso   1.00
H36    H     0.50150   0.90394   0.55006   0.00000  Uiso   1.00
H37    H     0.56491   0.02658   0.80581   0.00000  Uiso   1.00
O38    O     0.85613   0.94116   0.34905   0.00000  Uiso   1.00
O39    O     0.47887   0.82202   0.58084   0.00000  Uiso   1.00
O40    O     0.56205   0.98293   0.60440   0.00000  Uiso   1.00
N41    N     0.79929   0.90163   0.26489   0.00000  Uiso   1.00
N42    N     0.53045   0.81672   0.43010   0.00000  Uiso   1.00
N43    N     0.58972   0.93138   0.73430   0.00000  Uiso   1.00
N44    N     0.78436   0.96589   0.33484   0.00000  Uiso   1.00
N45    N     0.51553   0.88099   0.50005   0.00000  Uiso   1.00
N46    N     0.57479   0.99565   0.80424   0.00000  Uiso   1.00
C47    C     0.85231   0.81394   0.74985   0.00000  Uiso   1.00
C48    C     0.80973   0.83461   0.70881   0.00000  Uiso   1.00
C49    C     0.76874   0.81552   0.71252   0.00000  Uiso   1.00
C50    C     0.73387   0.83976   0.67079   0.00000  Uiso   1.00
C51    C     0.66686   0.86549   0.61369   0.00000  Uiso   1.00
C52    C     0.88310   0.81537   0.64416   0.00000  Uiso   1.00
C53    C     0.90380   0.78011   0.59352   0.00000  Uiso   1.00
C54    C     0.93069   0.78816   0.49737   0.00000  Uiso   1.00
C55    C     0.97761   0.78403   0.33995   0.00000  Uiso   1.00
C56    C     0.87160   0.84458   0.84125   0.00000  Uiso   1.00
C57    C     0.88265   0.83388   0.95633   0.00000  Uiso   1.00
C58    C     0.89988   0.86652   0.02611   0.00000  Uiso   1.00
C59    C     0.92895   0.90775   0.17470   0.00000  Uiso   1.00
C60    C     0.86327   0.89093   0.66914   0.00000  Uiso   1.00
C61    C     0.81569   0.87643   0.66497   0.00000  Uiso   1.00
C62    C     0.78087   0.90071   0.62323   0.00000  Uiso   1.00
C63    C     0.73984   0.88166   0.62688   0.00000  Uiso   1.00
C64    C     0.88905   0.85719   0.60032   0.00000  Uiso   1.00
C65    C     0.91592   0.86530   0.50423   0.00000  Uiso   1.00
C66    C     0.93666   0.83006   0.45345   0.00000  Uiso   1.00
C67    C     0.87756   0.88641   0.79742   0.00000  Uiso   1.00
C68    C     0.89478   0.91907   0.86703   0.00000  Uiso   1.00
C69    C     0.90585   0.90842   0.98219   0.00000  Uiso   1.00
H70    H     0.84767   0.78138   0.78397   0.00000  Uiso   1.00
H71    H     0.76415   0.78315   0.74644   0.00000  Uiso   1.00
H72    H     0.89919   0.74775   0.62747   0.00000  Uiso   1.00
H73    H     0.87804   0.80151   0.99022   0.00000  Uiso   1.00
H74    H     0.67418   0.80356   0.68547   0.00000  Uiso   1.00
H75    H     0.95892   0.72892   0.43463   0.00000  Uiso   1.00
H76    H     0.91433   0.84228   0.19956   0.00000  Uiso   1.00
H77    H     0.86790   0.92349   0.63501   0.00000  Uiso   1.00
H78    H     0.78549   0.93307   0.58931   0.00000  Uiso   1.00
H79    H     0.92052   0.89767   0.47033   0.00000  Uiso   1.00
H80    H     0.89938   0.95143   0.83308   0.00000  Uiso   1.00
H81    H     0.69149   0.92524   0.55792   0.00000  Uiso   1.00
H82    H     0.97624   0.85059   0.30709   0.00000  Uiso   1.00
H83    H     0.93165   0.96396   0.07202   0.00000  Uiso   1.00
O84    O     0.62826   0.86813   0.59428   0.00000  Uiso   1.00
O85    O     0.00184   0.77020   0.26522   0.00000  Uiso   1.00
O86    O     0.94334   0.91893   0.26878   0.00000  Uiso   1.00
N87    N     0.68956   0.83089   0.66174   0.00000  Uiso   1.00
N88    N     0.95578   0.76110   0.42721   0.00000  Uiso   1.00
N89    N     0.91410   0.86708   0.14235   0.00000  Uiso   1.00
N90    N     0.69888   0.89636   0.59311   0.00000  Uiso   1.00
N91    N     0.96509   0.82657   0.35859   0.00000  Uiso   1.00
N92    N     0.92342   0.93256   0.07372   0.00000  Uiso   1.00
C93    C     0.85885   0.12240   0.63691   0.00000  Uiso   1.00
C94    C     0.81891   0.10007   0.68926   0.00000  Uiso   1.00
C95    C     0.77702   0.11710   0.69432   0.00000  Uiso   1.00
C96    C     0.74496   0.09159   0.74572   0.00000  Uiso   1.00
C97    C     0.68151   0.06317   0.82026   0.00000  Uiso   1.00
C98    C     0.89300   0.12347   0.73481   0.00000  Uiso   1.00
C99    C     0.91340   0.16017   0.77816   0.00000  Uiso   1.00
C100   C     0.94372   0.15437   0.86789   0.00000  Uiso   1.00
C101   C     0.99531   0.16227   0.01309   0.00000  Uiso   1.00
C102   C     0.87666   0.09187   0.54304   0.00000  Uiso   1.00
C103   C     0.88334   0.10200   0.42516   0.00000  Uiso   1.00
C104   C     0.89990   0.06959   0.35344   0.00000  Uiso   1.00
C105   C     0.92612   0.02843   0.20089   0.00000  Uiso   1.00
C106   C     0.87640   0.04683   0.71917   0.00000  Uiso   1.00
C107   C     0.82845   0.05903   0.73394   0.00000  Uiso   1.00
C108   C     0.79644   0.03349   0.78534   0.00000  Uiso   1.00
C109   C     0.75451   0.05047   0.79047   0.00000  Uiso   1.00
C110   C     0.90253   0.08243   0.77949   0.00000  Uiso   1.00
C111   C     0.93283   0.07656   0.86917   0.00000  Uiso   1.00
C112   C     0.95327   0.11324   0.91265   0.00000  Uiso   1.00
C113   C     0.88619   0.05082   0.58772   0.00000  Uiso   1.00
C114   C     0.90276   0.01839   0.51617   0.00000  Uiso   1.00
C115   C     0.90946   0.02847   0.39820   0.00000  Uiso   1.00
H116   H     0.85142   0.15436   0.60213   0.00000  Uiso   1.00
H117   H     0.76965   0.14887   0.65975   0.00000  Uiso   1.00
H118   H     0.90602   0.19193   0.74356   0.00000  Uiso   1.00
H119   H     0.87595   0.13377   0.39061   0.00000  Uiso   1.00
H120   H     0.68321   0.12468   0.74337   0.00000  Uiso   1.00
H121   H     0.97075   0.21549   0.92006   0.00000  Uiso   1.00
H122   H     0.90735   0.09284   0.17581   0.00000  Uiso   1.00
H123   H     0.88383   0.01487   0.75396   0.00000  Uiso   1.00
H124   H     0.80383   0.00172   0.81991   0.00000  Uiso   1.00
H125   H     0.94020   0.04479   0.90372   0.00000  Uiso   1.00
H126   H     0.91013   0.98663   0.55078   0.00000  Uiso   1.00
H127   H     0.71095   0.00525   0.87337   0.00000  Uiso   1.00
H128   H     0.99850   0.09606   0.05006   0.00000  Uiso   1.00
H129   H     0.93509   0.97342   0.30581   0.00000  Uiso   1.00
O130   O     0.64387   0.05884   0.84905   0.00000  Uiso   1.00
O131   O     0.02113   0.17798   0.08084   0.00000  Uiso   1.00
O132   O     0.93795   0.01707   0.10440   0.00000  Uiso   1.00
N133   N     0.70071   0.09837   0.76489   0.00000  Uiso   1.00
N134   N     0.96955   0.18328   0.93010   0.00000  Uiso   1.00
N135   N     0.91028   0.06862   0.23430   0.00000  Uiso   1.00
N136   N     0.71564   0.03411   0.83484   0.00000  Uiso   1.00
N137   N     0.98447   0.11901   0.00005   0.00000  Uiso   1.00
N138   N     0.92521   0.00435   0.30424   0.00000  Uiso   1.00
C139   C     0.64769   0.18606   0.24985   0.00000  Uiso   1.00
C140   C     0.69027   0.16539   0.20881   0.00000  Uiso   1.00
C141   C     0.73126   0.18448   0.21252   0.00000  Uiso   1.00
C142   C     0.76613   0.16024   0.17079   0.00000  Uiso   1.00
C143   C     0.83314   0.13451   0.11369   0.00000  Uiso   1.00
C144   C     0.61690   0.18463   0.14416   0.00000  Uiso   1.00
C145   C     0.59620   0.21989   0.09352   0.00000  Uiso   1.00
C146   C     0.56931   0.21184   0.99737   0.00000  Uiso   1.00
C147   C     0.52239   0.21597   0.83995   0.00000  Uiso   1.00
C148   C     0.62840   0.15542   0.34125   0.00000  Uiso   1.00
C149   C     0.61735   0.16612   0.45633   0.00000  Uiso   1.00
C150   C     0.60012   0.13348   0.52611   0.00000  Uiso   1.00
C151   C     0.57105   0.09225   0.67470   0.00000  Uiso   1.00
C152   C     0.63673   0.10907   0.16914   0.00000  Uiso   1.00
C153   C     0.68431   0.12357   0.16497   0.00000  Uiso   1.00
C154   C     0.71913   0.09929   0.12323   0.00000  Uiso   1.00
C155   C     0.76016   0.11834   0.12688   0.00000  Uiso   1.00
C156   C     0.61095   0.14281   0.10032   0.00000  Uiso   1.00
C157   C     0.58408   0.13470   0.00423   0.00000  Uiso   1.00
C158   C     0.56334   0.16994   0.95345   0.00000  Uiso   1.00
C159   C     0.62244   0.11359   0.29742   0.00000  Uiso   1.00
C160   C     0.60522   0.08093   0.36703   0.00000  Uiso   1.00
C161   C     0.59415   0.09158   0.48219   0.00000  Uiso   1.00
H162   H     0.65233   0.21862   0.28397   0.00000  Uiso   1.00
H163   H     0.73585   0.21685   0.24644   0.00000  Uiso   1.00
H164   H     0.60081   0.25225   0.12747   0.00000  Uiso   1.00
H165   H     0.62196   0.19849   0.49022   0.00000  Uiso   1.00
H166   H     0.82582   0.19644   0.18547   0.00000  Uiso   1.00
H167   H     0.54108   0.27108   0.93463   0.00000  Uiso   1.00
H168   H     0.58567   0.15772   0.69956   0.00000  Uiso   1.00
H169   H     0.63210   0.07651   0.13501   0.00000  Uiso   1.00
H170   H     0.71451   0.06693   0.08931   0.00000  Uiso   1.00
H171   H     0.57948   0.10233   0.97033   0.00000  Uiso   1.00
H172   H     0.60062   0.04857   0.33308   0.00000  Uiso   1.00
H173   H     0.80851   0.07476   0.05792   0.00000  Uiso   1.00
H174   H     0.52376   0.14941   0.80709   0.00000  Uiso   1.00
H175   H     0.56835   0.03604   0.57202   0.00000  Uiso   1.00
O176   O     0.87174   0.13187   0.09428   0.00000  Uiso   1.00
O177   O     0.49816   0.22980   0.76522   0.00000  Uiso   1.00
O178   O     0.55666   0.08107   0.76878   0.00000  Uiso   1.00
N179   N     0.81044   0.16911   0.16174   0.00000  Uiso   1.00
N180   N     0.54422   0.23890   0.92721   0.00000  Uiso   1.00
N181   N     0.58590   0.13292   0.64235   0.00000  Uiso   1.00
N182   N     0.80112   0.10364   0.09311   0.00000  Uiso   1.00
N183   N     0.53491   0.17343   0.85859   0.00000  Uiso   1.00
N184   N     0.57658   0.06744   0.57372   0.00000  Uiso   1.00
C185   C     0.35885   0.37760   0.36309   0.00000  Uiso   1.00
C186   C     0.31891   0.39993   0.31074   0.00000  Uiso   1.00
C187   C     0.27702   0.38290   0.30568   0.00000  Uiso   1.00
C188   C     0.24496   0.40841   0.25428   0.00000  Uiso   1.00
C189   C     0.18151   0.43683   0.17974   0.00000  Uiso   1.00
C190   C     0.39300   0.37653   0.26519   0.00000  Uiso   1.00
C191   C     0.41340   0.33983   0.22184   0.00000  Uiso   1.00
C192   C     0.44372   0.34563   0.13211   0.00000  Uiso   1.00
C193   C     0.49531   0.33773   0.98691   0.00000  Uiso   1.00
C194   C     0.37666   0.40813   0.45696   0.00000  Uiso   1.00
C195   C     0.38334   0.39800   0.57484   0.00000  Uiso   1.00
C196   C     0.39990   0.43041   0.64656   0.00000  Uiso   1.00
C197   C     0.42612   0.47157   0.79911   0.00000  Uiso   1.00
C198   C     0.37640   0.45317   0.28083   0.00000  Uiso   1.00
C199   C     0.32845   0.44097   0.26606   0.00000  Uiso   1.00
C200   C     0.29644   0.46651   0.21466   0.00000  Uiso   1.00
C201   C     0.25451   0.44953   0.20953   0.00000  Uiso   1.00
C202   C     0.40253   0.41757   0.22051   0.00000  Uiso   1.00
C203   C     0.43283   0.42344   0.13083   0.00000  Uiso   1.00
C204   C     0.45327   0.38676   0.08735   0.00000  Uiso   1.00
C205   C     0.38619   0.44918   0.41228   0.00000  Uiso   1.00
C206   C     0.40276   0.48161   0.48383   0.00000  Uiso   1.00
C207   C     0.40946   0.47153   0.60180   0.00000  Uiso   1.00
H208   H     0.35142   0.34564   0.39787   0.00000  Uiso   1.00
H209   H     0.26965   0.35113   0.34025   0.00000  Uiso   1.00
H210   H     0.40602   0.30807   0.25644   0.00000  Uiso   1.00
H211   H     0.37595   0.36623   0.60939   0.00000  Uiso   1.00
H212   H     0.18321   0.37532   0.25663   0.00000  Uiso   1.00
H213   H     0.47075   0.28451   0.07994   0.00000  Uiso   1.00
H214   H     0.40735   0.40716   0.82419   0.00000  Uiso   1.00
H215   H     0.38383   0.48513   0.24604   0.00000  Uiso   1.00
H216   H     0.30383   0.49828   0.18009   0.00000  Uiso   1.00
H217   H     0.44020   0.45521   0.09628   0.00000  Uiso   1.00
H218   H     0.41013   0.51337   0.44922   0.00000  Uiso   1.00
H219   H     0.21095   0.49475   0.12663   0.00000  Uiso   1.00
H220   H     0.49850   0.40394   0.94994   0.00000  Uiso   1.00
H221   H     0.43509   0.52658   0.69419   0.00000  Uiso   1.00
O222   O     0.14387   0.44116   0.15095   0.00000  Uiso   1.00
O223   O     0.52113   0.32202   0.91916   0.00000  Uiso   1.00
O224   O     0.43795   0.48293   0.89560   0.00000  Uiso   1.00
N225   N     0.20071   0.40163   0.23511   0.00000  Uiso   1.00
N226   N     0.46955   0.31672   0.06990   0.00000  Uiso   1.00
N227   N     0.41028   0.43138   0.76570   0.00000  Uiso   1.00
N228   N     0.21564   0.46589   0.16516   0.00000  Uiso   1.00
N229   N     0.48447   0.38099   0.99995   0.00000  Uiso   1.00
N230   N     0.42521   0.49565   0.69576   0.00000  Uiso   1.00
C231   C     0.14769   0.31394   0.75015   0.00000  Uiso   1.00
C232   C     0.19027   0.33461   0.79119   0.00000  Uiso   1.00
C233   C     0.23126   0.31552   0.78748   0.00000  Uiso   1.00
C234   C     0.26613   0.33976   0.82921   0.00000  Uiso   1.00
C235   C     0.33314   0.36549   0.88631   0.00000  Uiso   1.00
C236   C     0.11690   0.31537   0.85584   0.00000  Uiso   1.00
C237   C     0.09620   0.28011   0.90648   0.00000  Uiso   1.00
C238   C     0.06931   0.28816   0.00263   0.00000  Uiso   1.00
C239   C     0.02239   0.28403   0.16005   0.00000  Uiso   1.00
C240   C     0.12840   0.34458   0.65875   0.00000  Uiso   1.00
C241   C     0.11735   0.33388   0.54367   0.00000  Uiso   1.00
C242   C     0.10012   0.36652   0.47389   0.00000  Uiso   1.00
C243   C     0.07105   0.40775   0.32530   0.00000  Uiso   1.00
C244   C     0.13673   0.39093   0.83086   0.00000  Uiso   1.00
C245   C     0.18431   0.37643   0.83503   0.00000  Uiso   1.00
C246   C     0.21913   0.40071   0.87677   0.00000  Uiso   1.00
C247   C     0.26016   0.38166   0.87312   0.00000  Uiso   1.00
C248   C     0.11095   0.35719   0.89968   0.00000  Uiso   1.00
C249   C     0.08408   0.36530   0.99577   0.00000  Uiso   1.00
C250   C     0.06334   0.33006   0.04655   0.00000  Uiso   1.00
C251   C     0.12244   0.38641   0.70258   0.00000  Uiso   1.00
C252   C     0.10522   0.41907   0.63297   0.00000  Uiso   1.00
C253   C     0.09415   0.40842   0.51781   0.00000  Uiso   1.00
H254   H     0.15233   0.28138   0.71603   0.00000  Uiso   1.00
H255   H     0.23585   0.28315   0.75356   0.00000  Uiso   1.00
H256   H     0.10081   0.24775   0.87253   0.00000  Uiso   1.00
H257   H     0.12196   0.30151   0.50978   0.00000  Uiso   1.00
H258   H     0.32582   0.30356   0.81453   0.00000  Uiso   1.00
H259   H     0.04108   0.22892   0.06537   0.00000  Uiso   1.00
H260   H     0.08567   0.34228   0.30044   0.00000  Uiso   1.00
H261   H     0.13210   0.42349   0.86499   0.00000  Uiso   1.00
H262   H     0.21451   0.43307   0.91069   0.00000  Uiso   1.00
H263   H     0.07948   0.39767   0.02967   0.00000  Uiso   1.00
H264   H     0.10062   0.45143   0.66692   0.00000  Uiso   1.00
H265   H     0.30851   0.42524   0.94208   0.00000  Uiso   1.00
H266   H     0.02376   0.35059   0.19291   0.00000  Uiso   1.00
H267   H     0.06835   0.46396   0.42798   0.00000  Uiso   1.00
O268   O     0.37174   0.36813   0.90572   0.00000  Uiso   1.00
O269   O     0.99816   0.27020   0.23478   0.00000  Uiso   1.00
O270   O     0.05666   0.41893   0.23122   0.00000  Uiso   1.00
N271   N     0.31044   0.33089   0.83826   0.00000  Uiso   1.00
N272   N     0.04422   0.26110   0.07279   0.00000  Uiso   1.00
N273   N     0.08590   0.36708   0.35765   0.00000  Uiso   1.00
N274   N     0.30112   0.39636   0.90689   0.00000  Uiso   1.00
N275   N     0.03491   0.32657   0.14141   0.00000  Uiso   1.00
N276   N     0.07658   0.43256   0.42628   0.00000  Uiso   1.00
C277   C     0.14115   0.62240   0.86309   0.00000  Uiso   1.00
C278   C     0.18109   0.60007   0.81074   0.00000  Uiso   1.00
C279   C     0.22298   0.61710   0.80568   0.00000  Uiso   1.00
C280   C     0.25504   0.59159   0.75428   0.00000  Uiso   1.00
C281   C     0.31849   0.56317   0.67974   0.00000  Uiso   1.00
C282   C     0.10700   0.62347   0.76519   0.00000  Uiso   1.00
C283   C     0.08660   0.66017   0.72184   0.00000  Uiso   1.00
C284   C     0.05628   0.65437   0.63211   0.00000  Uiso   1.00
C285   C     0.00469   0.66227   0.48691   0.00000  Uiso   1.00
C286   C     0.12334   0.59187   0.95696   0.00000  Uiso   1.00
C287   C     0.11666   0.60200   0.07484   0.00000  Uiso   1.00
C288   C     0.10010   0.56959   0.14656   0.00000  Uiso   1.00
C289   C     0.07388   0.52843   0.29911   0.00000  Uiso   1.00
C290   C     0.12360   0.54683   0.78083   0.00000  Uiso   1.00
C291   C     0.17155   0.55903   0.76606   0.00000  Uiso   1.00
C292   C     0.20356   0.53349   0.71466   0.00000  Uiso   1.00
C293   C     0.24549   0.55047   0.70953   0.00000  Uiso   1.00
C294   C     0.09747   0.58243   0.72051   0.00000  Uiso   1.00
C295   C     0.06717   0.57656   0.63083   0.00000  Uiso   1.00
C296   C     0.04673   0.61324   0.58735   0.00000  Uiso   1.00
C297   C     0.11381   0.55082   0.91228   0.00000  Uiso   1.00
C298   C     0.09724   0.51839   0.98383   0.00000  Uiso   1.00
C299   C     0.09054   0.52847   0.10180   0.00000  Uiso   1.00
H300   H     0.14858   0.65436   0.89787   0.00000  Uiso   1.00
H301   H     0.23035   0.64887   0.84025   0.00000  Uiso   1.00
H302   H     0.09398   0.69193   0.75644   0.00000  Uiso   1.00
H303   H     0.12405   0.63377   0.10939   0.00000  Uiso   1.00
H304   H     0.31679   0.62468   0.75663   0.00000  Uiso   1.00
H305   H     0.02925   0.71549   0.57994   0.00000  Uiso   1.00
H306   H     0.09265   0.59284   0.32419   0.00000  Uiso   1.00
H307   H     0.11617   0.51487   0.74604   0.00000  Uiso   1.00
H308   H     0.19617   0.50172   0.68009   0.00000  Uiso   1.00
H309   H     0.05980   0.54479   0.59628   0.00000  Uiso   1.00
H310   H     0.08987   0.48663   0.94922   0.00000  Uiso   1.00
H311   H     0.28905   0.50525   0.62663   0.00000  Uiso   1.00
H312   H     0.00150   0.59606   0.44994   0.00000  Uiso   1.00
H313   H     0.06491   0.47342   0.19419   0.00000  Uiso   1.00
O314   O     0.35613   0.55884   0.65095   0.00000  Uiso   1.00
O315   O     0.97887   0.67798   0.41916   0.00000  Uiso   1.00
O316   O     0.06205   0.51707   0.39560   0.00000  Uiso   1.00
N317   N     0.29929   0.59837   0.73511   0.00000  Uiso   1.00
N318   N     0.03045   0.68328   0.56990   0.00000  Uiso   1.00
N319   N     0.08972   0.56862   0.26570   0.00000  Uiso   1.00
N320   N     0.28436   0.53411   0.66516   0.00000  Uiso   1.00
N321   N     0.01553   0.61901   0.49995   0.00000  Uiso   1.00
N322   N     0.07479   0.50435   0.19576   0.00000  Uiso   1.00
C323   C     0.35231   0.68606   0.25015   0.00000  Uiso   1.00
C324   C     0.30973   0.66539   0.29119   0.00000  Uiso   1.00
C325   C     0.26874   0.68448   0.28748   0.00000  Uiso   1.00
C326   C     0.23387   0.66024   0.32921   0.00000  Uiso   1.00
C327   C     0.16686   0.63451   0.38631   0.00000  Uiso   1.00
C328   C     0.38310   0.68463   0.35584   0.00000  Uiso   1.00
C329   C     0.40380   0.71989   0.40648   0.00000  Uiso   1.00
C330   C     0.43069   0.71184   0.50263   0.00000  Uiso   1.00
C331   C     0.47761   0.71597   0.66005   0.00000  Uiso   1.00
C332   C     0.37160   0.65542   0.15875   0.00000  Uiso   1.00
C333   C     0.38265   0.66612   0.04367   0.00000  Uiso   1.00
C334   C     0.39988   0.63348   0.97389   0.00000  Uiso   1.00
C335   C     0.42895   0.59225   0.82530   0.00000  Uiso   1.00
C336   C     0.36327   0.60907   0.33086   0.00000  Uiso   1.00
C337   C     0.31569   0.62357   0.33503   0.00000  Uiso   1.00
C338   C     0.28087   0.59929   0.37677   0.00000  Uiso   1.00
C339   C     0.23984   0.61834   0.37312   0.00000  Uiso   1.00
C340   C     0.38905   0.64281   0.39968   0.00000  Uiso   1.00
C341   C     0.41592   0.63470   0.49577   0.00000  Uiso   1.00
C342   C     0.43666   0.66994   0.54655   0.00000  Uiso   1.00
C343   C     0.37756   0.61359   0.20258   0.00000  Uiso   1.00
C344   C     0.39478   0.58093   0.13297   0.00000  Uiso   1.00
C345   C     0.40585   0.59158   0.01781   0.00000  Uiso   1.00
H346   H     0.34767   0.71862   0.21603   0.00000  Uiso   1.00
H347   H     0.26415   0.71685   0.25356   0.00000  Uiso   1.00
H348   H     0.39919   0.75225   0.37253   0.00000  Uiso   1.00
H349   H     0.37804   0.69849   0.00978   0.00000  Uiso   1.00
H350   H     0.17418   0.69644   0.31453   0.00000  Uiso   1.00
H351   H     0.45892   0.77108   0.56537   0.00000  Uiso   1.00
H352   H     0.41433   0.65772   0.80044   0.00000  Uiso   1.00
H353   H     0.36790   0.57651   0.36499   0.00000  Uiso   1.00
H354   H     0.28549   0.56693   0.41069   0.00000  Uiso   1.00
H355   H     0.42052   0.60233   0.52967   0.00000  Uiso   1.00
H356   H     0.39938   0.54857   0.16692   0.00000  Uiso   1.00
H357   H     0.19149   0.57476   0.44208   0.00000  Uiso   1.00
H358   H     0.47624   0.64941   0.69291   0.00000  Uiso   1.00
H359   H     0.43165   0.53604   0.92798   0.00000  Uiso   1.00
O360   O     0.12826   0.63187   0.40572   0.00000  Uiso   1.00
O361   O     0.50184   0.72980   0.73478   0.00000  Uiso   1.00
O362   O     0.44334   0.58107   0.73122   0.00000  Uiso   1.00
N363   N     0.18956   0.66911   0.33826   0.00000  Uiso   1.00
N364   N     0.45578   0.73890   0.57279   0.00000  Uiso   1.00
N365   N     0.41410   0.63292   0.85765   0.00000  Uiso   1.00
N366   N     0.19888   0.60364   0.40689   0.00000  Uiso   1.00
N367   N     0.46509   0.67343   0.64141   0.00000  Uiso   1.00
N368   N     0.42342   0.56744   0.92628   0.00000  Uiso   1.00
C369   C     0.35885   0.12240   0.86309   0.00000  Uiso   1.00
C370   C     0.31891   0.10007   0.81074   0.00000  Uiso   1.00
C371   C     0.27702   0.11710   0.80568   0.00000  Uiso   1.00
C372   C     0.24496   0.09159   0.75428   0.00000  Uiso   1.00
C373   C     0.18151   0.06317   0.67974   0.00000  Uiso   1.00
C374   C     0.39300   0.12347   0.76519   0.00000  Uiso   1.00
C375   C     0.41340   0.16017   0.72184   0.00000  Uiso   1.00
C376   C     0.44372   0.15437   0.63211   0.00000  Uiso   1.00
C377   C     0.49531   0.16227   0.48691   0.00000  Uiso   1.00
C378   C     0.37666   0.09187   0.95696   0.00000  Uiso   1.00
C379   C     0.38334   0.10200   0.07484   0.00000  Uiso   1.00
C380   C     0.39990   0.06959   0.14656   0.00000  Uiso   1.00
C381   C     0.42612   0.02843   0.29911   0.00000  Uiso   1.00
C382   C     0.37640   0.04683   0.78083   0.00000  Uiso   1.00
C383   C     0.32845   0.05903   0.76606   0.00000  Uiso   1.00
C384   C     0.29644   0.03349   0.71466   0.00000  Uiso   1.00
C385   C     0.25451   0.05047   0.70953   0.00000  Uiso   1.00
C386   C     0.40253   0.08243   0.72051   0.00000  Uiso   1.00
C387   C     0.43283   0.07656   0.63083   0.00000  Uiso   1.00
C388   C     0.45327   0.11324   0.58735   0.00000  Uiso   1.00
C389   C     0.38619   0.05082   0.91228   0.00000  Uiso   1.00
C390   C     0.40276   0.01839   0.98383   0.00000  Uiso   1.00
C391   C     0.40946   0.02847   0.10180   0.00000  Uiso   1.00
H392   H     0.35142   0.15436   0.89787   0.00000  Uiso   1.00
H393   H     0.26965   0.14887   0.84025   0.00000  Uiso   1.00
H394   H     0.40602   0.19193   0.75644   0.00000  Uiso   1.00
H395   H     0.37595   0.13377   0.10939   0.00000  Uiso   1.00
H396   H     0.18321   0.12468   0.75663   0.00000  Uiso   1.00
H397   H     0.47075   0.21549   0.57994   0.00000  Uiso   1.00
H398   H     0.40735   0.09284   0.32419   0.00000  Uiso   1.00
H399   H     0.38383   0.01487   0.74604   0.00000  Uiso   1.00
H400   H     0.30383   0.00172   0.68009   0.00000  Uiso   1.00
H401   H     0.44020   0.04479   0.59628   0.00000  Uiso   1.00
H402   H     0.41013   0.98663   0.94922   0.00000  Uiso   1.00
H403   H     0.21095   0.00525   0.62663   0.00000  Uiso   1.00
H404   H     0.49850   0.09606   0.44994   0.00000  Uiso   1.00
H405   H     0.43509   0.97342   0.19419   0.00000  Uiso   1.00
O406   O     0.14387   0.05884   0.65095   0.00000  Uiso   1.00
O407   O     0.52113   0.17798   0.41916   0.00000  Uiso   1.00
O408   O     0.43795   0.01707   0.39560   0.00000  Uiso   1.00
N409   N     0.20071   0.09837   0.73511   0.00000  Uiso   1.00
N410   N     0.46955   0.18328   0.56990   0.00000  Uiso   1.00
N411   N     0.41028   0.06862   0.26570   0.00000  Uiso   1.00
N412   N     0.21564   0.03411   0.66516   0.00000  Uiso   1.00
N413   N     0.48447   0.11901   0.49995   0.00000  Uiso   1.00
N414   N     0.42521   0.00435   0.19576   0.00000  Uiso   1.00
C415   C     0.14769   0.18606   0.25015   0.00000  Uiso   1.00
C416   C     0.19027   0.16539   0.29119   0.00000  Uiso   1.00
C417   C     0.23126   0.18448   0.28748   0.00000  Uiso   1.00
C418   C     0.26613   0.16024   0.32921   0.00000  Uiso   1.00
C419   C     0.33314   0.13451   0.38631   0.00000  Uiso   1.00
C420   C     0.11690   0.18463   0.35584   0.00000  Uiso   1.00
C421   C     0.09620   0.21989   0.40648   0.00000  Uiso   1.00
C422   C     0.06931   0.21184   0.50263   0.00000  Uiso   1.00
C423   C     0.02239   0.21597   0.66005   0.00000  Uiso   1.00
C424   C     0.12840   0.15542   0.15875   0.00000  Uiso   1.00
C425   C     0.11735   0.16612   0.04367   0.00000  Uiso   1.00
C426   C     0.10012   0.13348   0.97389   0.00000  Uiso   1.00
C427   C     0.07105   0.09225   0.82530   0.00000  Uiso   1.00
C428   C     0.13673   0.10907   0.33086   0.00000  Uiso   1.00
C429   C     0.18431   0.12357   0.33503   0.00000  Uiso   1.00
C430   C     0.21913   0.09929   0.37677   0.00000  Uiso   1.00
C431   C     0.26016   0.11834   0.37312   0.00000  Uiso   1.00
C432   C     0.11095   0.14281   0.39968   0.00000  Uiso   1.00
C433   C     0.08408   0.13470   0.49577   0.00000  Uiso   1.00
C434   C     0.06334   0.16994   0.54655   0.00000  Uiso   1.00
C435   C     0.12244   0.11359   0.20258   0.00000  Uiso   1.00
C436   C     0.10522   0.08093   0.13297   0.00000  Uiso   1.00
C437   C     0.09415   0.09158   0.01781   0.00000  Uiso   1.00
H438   H     0.15233   0.21862   0.21603   0.00000  Uiso   1.00
H439   H     0.23585   0.21685   0.25356   0.00000  Uiso   1.00
H440   H     0.10081   0.25225   0.37253   0.00000  Uiso   1.00
H441   H     0.12196   0.19849   0.00978   0.00000  Uiso   1.00
H442   H     0.32582   0.19644   0.31453   0.00000  Uiso   1.00
H443   H     0.04108   0.27108   0.56537   0.00000  Uiso   1.00
H444   H     0.08567   0.15772   0.80044   0.00000  Uiso   1.00
H445   H     0.13210   0.07651   0.36499   0.00000  Uiso   1.00
H446   H     0.21451   0.06693   0.41069   0.00000  Uiso   1.00
H447   H     0.07948   0.10233   0.52967   0.00000  Uiso   1.00
H448   H     0.10062   0.04857   0.16692   0.00000  Uiso   1.00
H449   H     0.30851   0.07476   0.44208   0.00000  Uiso   1.00
H450   H     0.02376   0.14941   0.69291   0.00000  Uiso   1.00
H451   H     0.06835   0.03604   0.92798   0.00000  Uiso   1.00
O452   O     0.37174   0.13187   0.40572   0.00000  Uiso   1.00
O453   O     0.99816   0.22980   0.73478   0.00000  Uiso   1.00
O454   O     0.05666   0.08107   0.73122   0.00000  Uiso   1.00
N455   N     0.31044   0.16911   0.33826   0.00000  Uiso   1.00
N456   N     0.04422   0.23890   0.57279   0.00000  Uiso   1.00
N457   N     0.08590   0.13292   0.85765   0.00000  Uiso   1.00
N458   N     0.30112   0.10364   0.40689   0.00000  Uiso   1.00
N459   N     0.03491   0.17343   0.64141   0.00000  Uiso   1.00
N460   N     0.07658   0.06744   0.92628   0.00000  Uiso   1.00
C461   C     0.14115   0.87760   0.36309   0.00000  Uiso   1.00
C462   C     0.18109   0.89993   0.31074   0.00000  Uiso   1.00
C463   C     0.22298   0.88290   0.30568   0.00000  Uiso   1.00
C464   C     0.25504   0.90841   0.25428   0.00000  Uiso   1.00
C465   C     0.31849   0.93683   0.17974   0.00000  Uiso   1.00
C466   C     0.10700   0.87653   0.26519   0.00000  Uiso   1.00
C467   C     0.08660   0.83983   0.22184   0.00000  Uiso   1.00
C468   C     0.05628   0.84563   0.13211   0.00000  Uiso   1.00
C469   C     0.00469   0.83773   0.98691   0.00000  Uiso   1.00
C470   C     0.12334   0.90813   0.45696   0.00000  Uiso   1.00
C471   C     0.11666   0.89800   0.57484   0.00000  Uiso   1.00
C472   C     0.10010   0.93041   0.64656   0.00000  Uiso   1.00
C473   C     0.07388   0.97157   0.79911   0.00000  Uiso   1.00
C474   C     0.12360   0.95317   0.28083   0.00000  Uiso   1.00
C475   C     0.17155   0.94097   0.26606   0.00000  Uiso   1.00
C476   C     0.20356   0.96651   0.21466   0.00000  Uiso   1.00
C477   C     0.24549   0.94953   0.20953   0.00000  Uiso   1.00
C478   C     0.09747   0.91757   0.22051   0.00000  Uiso   1.00
C479   C     0.06717   0.92344   0.13083   0.00000  Uiso   1.00
C480   C     0.04673   0.88676   0.08735   0.00000  Uiso   1.00
C481   C     0.11381   0.94918   0.41228   0.00000  Uiso   1.00
C482   C     0.09724   0.98161   0.48383   0.00000  Uiso   1.00
C483   C     0.09054   0.97153   0.60180   0.00000  Uiso   1.00
H484   H     0.14858   0.84564   0.39787   0.00000  Uiso   1.00
H485   H     0.23035   0.85113   0.34025   0.00000  Uiso   1.00
H486   H     0.09398   0.80807   0.25644   0.00000  Uiso   1.00
H487   H     0.12405   0.86623   0.60939   0.00000  Uiso   1.00
H488   H     0.31679   0.87532   0.25663   0.00000  Uiso   1.00
H489   H     0.02925   0.78451   0.07994   0.00000  Uiso   1.00
H490   H     0.09265   0.90716   0.82419   0.00000  Uiso   1.00
H491   H     0.11617   0.98513   0.24604   0.00000  Uiso   1.00
H492   H     0.19617   0.99828   0.18009   0.00000  Uiso   1.00
H493   H     0.05980   0.95521   0.09628   0.00000  Uiso   1.00
H494   H     0.08987   0.01337   0.44922   0.00000  Uiso   1.00
H495   H     0.28905   0.99475   0.12663   0.00000  Uiso   1.00
H496   H     0.00150   0.90394   0.94994   0.00000  Uiso   1.00
H497   H     0.06491   0.02658   0.69419   0.00000  Uiso   1.00
O498   O     0.35613   0.94116   0.15095   0.00000  Uiso   1.00
O499   O     0.97887   0.82202   0.91916   0.00000  Uiso   1.00
O500   O     0.06205   0.98293   0.89560   0.00000  Uiso   1.00
N501   N     0.29929   0.90163   0.23511   0.00000  Uiso   1.00
N502   N     0.03045   0.81672   0.06990   0.00000  Uiso   1.00
N503   N     0.08972   0.93138   0.76570   0.00000  Uiso   1.00
N504   N     0.28436   0.96589   0.16516   0.00000  Uiso   1.00
N505   N     0.01553   0.88099   0.99995   0.00000  Uiso   1.00
N506   N     0.07479   0.99565   0.69576   0.00000  Uiso   1.00
C507   C     0.35231   0.81394   0.75015   0.00000  Uiso   1.00
C508   C     0.30973   0.83461   0.79119   0.00000  Uiso   1.00
C509   C     0.26874   0.81552   0.78748   0.00000  Uiso   1.00
C510   C     0.23387   0.83976   0.82921   0.00000  Uiso   1.00
C511   C     0.16686   0.86549   0.88631   0.00000  Uiso   1.00
C512   C     0.38310   0.81537   0.85584   0.00000  Uiso   1.00
C513   C     0.40380   0.78011   0.90648   0.00000  Uiso   1.00
C514   C     0.43069   0.78816   0.00263   0.00000  Uiso   1.00
C515   C     0.47761   0.78403   0.16005   0.00000  Uiso   1.00
C516   C     0.37160   0.84458   0.65875   0.00000  Uiso   1.00
C517   C     0.38265   0.83388   0.54367   0.00000  Uiso   1.00
C518   C     0.39988   0.86652   0.47389   0.00000  Uiso   1.00
C519   C     0.42895   0.90775   0.32530   0.00000  Uiso   1.00
C520   C     0.36327   0.89093   0.83086   0.00000  Uiso   1.00
C521   C     0.31569   0.87643   0.83503   0.00000  Uiso   1.00
C522   C     0.28087   0.90071   0.87677   0.00000  Uiso   1.00
C523   C     0.23984   0.88166   0.87312   0.00000  Uiso   1.00
C524   C     0.38905   0.85719   0.89968   0.00000  Uiso   1.00
C525   C     0.41592   0.86530   0.99577   0.00000  Uiso   1.00
C526   C     0.43666   0.83006   0.04655   0.00000  Uiso   1.00
C527   C     0.37756   0.88641   0.70258   0.00000  Uiso   1.00
C528   C     0.39478   0.91907   0.63297   0.00000  Uiso   1.00
C529   C     0.40585   0.90842   0.51781   0.00000  Uiso   1.00
H530   H     0.34767   0.78138   0.71603   0.00000  Uiso   1.00
H531   H     0.26415   0.78315   0.75356   0.00000  Uiso   1.00
H532   H     0.39919   0.74775   0.87253   0.00000  Uiso   1.00
H533   H     0.37804   0.80151   0.50978   0.00000  Uiso   1.00
H534   H     0.17418   0.80356   0.81453   0.00000  Uiso   1.00
H535   H     0.45892   0.72892   0.06537   0.00000  Uiso   1.00
H536   H     0.41433   0.84228   0.30044   0.00000  Uiso   1.00
H537   H     0.36790   0.92349   0.86499   0.00000  Uiso   1.00
H538   H     0.28549   0.93307   0.91069   0.00000  Uiso   1.00
H539   H     0.42052   0.89767   0.02967   0.00000  Uiso   1.00
H540   H     0.39938   0.95143   0.66692   0.00000  Uiso   1.00
H541   H     0.19149   0.92524   0.94208   0.00000  Uiso   1.00
H542   H     0.47624   0.85059   0.19291   0.00000  Uiso   1.00
H543   H     0.43165   0.96396   0.42798   0.00000  Uiso   1.00
O544   O     0.12826   0.86813   0.90572   0.00000  Uiso   1.00
O545   O     0.50184   0.77020   0.23478   0.00000  Uiso   1.00
O546   O     0.44334   0.91893   0.23122   0.00000  Uiso   1.00
N547   N     0.18956   0.83089   0.83826   0.00000  Uiso   1.00
N548   N     0.45578   0.76110   0.07279   0.00000  Uiso   1.00
N549   N     0.41410   0.86708   0.35765   0.00000  Uiso   1.00
N550   N     0.19888   0.89636   0.90689   0.00000  Uiso   1.00
N551   N     0.46509   0.82657   0.14141   0.00000  Uiso   1.00
N552   N     0.42342   0.93256   0.42628   0.00000  Uiso   1.00
C553   C     0.64115   0.62240   0.63691   0.00000  Uiso   1.00
C554   C     0.68109   0.60007   0.68926   0.00000  Uiso   1.00
C555   C     0.72298   0.61710   0.69432   0.00000  Uiso   1.00
C556   C     0.75504   0.59159   0.74572   0.00000  Uiso   1.00
C557   C     0.81849   0.56317   0.82026   0.00000  Uiso   1.00
C558   C     0.60700   0.62347   0.73481   0.00000  Uiso   1.00
C559   C     0.58660   0.66017   0.77816   0.00000  Uiso   1.00
C560   C     0.55628   0.65437   0.86789   0.00000  Uiso   1.00
C561   C     0.50469   0.66227   0.01309   0.00000  Uiso   1.00
C562   C     0.62334   0.59187   0.54304   0.00000  Uiso   1.00
C563   C     0.61666   0.60200   0.42516   0.00000  Uiso   1.00
C564   C     0.60010   0.56959   0.35344   0.00000  Uiso   1.00
C565   C     0.57388   0.52843   0.20089   0.00000  Uiso   1.00
C566   C     0.62360   0.54683   0.71917   0.00000  Uiso   1.00
C567   C     0.67155   0.55903   0.73394   0.00000  Uiso   1.00
C568   C     0.70356   0.53349   0.78534   0.00000  Uiso   1.00
C569   C     0.74549   0.55047   0.79047   0.00000  Uiso   1.00
C570   C     0.59747   0.58243   0.77949   0.00000  Uiso   1.00
C571   C     0.56717   0.57656   0.86917   0.00000  Uiso   1.00
C572   C     0.54673   0.61324   0.91265   0.00000  Uiso   1.00
C573   C     0.61381   0.55082   0.58772   0.00000  Uiso   1.00
C574   C     0.59724   0.51839   0.51617   0.00000  Uiso   1.00
C575   C     0.59054   0.52847   0.39820   0.00000  Uiso   1.00
H576   H     0.64858   0.65436   0.60213   0.00000  Uiso   1.00
H577   H     0.73035   0.64887   0.65975   0.00000  Uiso   1.00
H578   H     0.59398   0.69193   0.74356   0.00000  Uiso   1.00
H579   H     0.62405   0.63377   0.39061   0.00000  Uiso   1.00
H580   H     0.81679   0.62468   0.74337   0.00000  Uiso   1.00
H581   H     0.52925   0.71549   0.92006   0.00000  Uiso   1.00
H582   H     0.59265   0.59284   0.17581   0.00000  Uiso   1.00
H583   H     0.61617   0.51487   0.75396   0.00000  Uiso   1.00
H584   H     0.69617   0.50172   0.81991   0.00000  Uiso   1.00
H585   H     0.55980   0.54479   0.90372   0.00000  Uiso   1.00
H586   H     0.58987   0.48663   0.55078   0.00000  Uiso   1.00
H587   H     0.78905   0.50525   0.87337   0.00000  Uiso   1.00
H588   H     0.50150   0.59606   0.05006   0.00000  Uiso   1.00
H589   H     0.56491   0.47342   0.30581   0.00000  Uiso   1.00
O590   O     0.85613   0.55884   0.84905   0.00000  Uiso   1.00
O591   O     0.47887   0.67798   0.08084   0.00000  Uiso   1.00
O592   O     0.56205   0.51707   0.10440   0.00000  Uiso   1.00
N593   N     0.79929   0.59837   0.76489   0.00000  Uiso   1.00
N594   N     0.53045   0.68328   0.93010   0.00000  Uiso   1.00
N595   N     0.58972   0.56862   0.23430   0.00000  Uiso   1.00
N596   N     0.78436   0.53411   0.83484   0.00000  Uiso   1.00
N597   N     0.51553   0.61901   0.00005   0.00000  Uiso   1.00
N598   N     0.57479   0.50435   0.30424   0.00000  Uiso   1.00
C599   C     0.85231   0.68606   0.24985   0.00000  Uiso   1.00
C600   C     0.80973   0.66539   0.20881   0.00000  Uiso   1.00
C601   C     0.76874   0.68448   0.21252   0.00000  Uiso   1.00
C602   C     0.73387   0.66024   0.17079   0.00000  Uiso   1.00
C603   C     0.66686   0.63451   0.11369   0.00000  Uiso   1.00
C604   C     0.88310   0.68463   0.14416   0.00000  Uiso   1.00
C605   C     0.90380   0.71989   0.09352   0.00000  Uiso   1.00
C606   C     0.93069   0.71184   0.99737   0.00000  Uiso   1.00
C607   C     0.97761   0.71597   0.83995   0.00000  Uiso   1.00
C608   C     0.87160   0.65542   0.34125   0.00000  Uiso   1.00
C609   C     0.88265   0.66612   0.45633   0.00000  Uiso   1.00
C610   C     0.89988   0.63348   0.52611   0.00000  Uiso   1.00
C611   C     0.92895   0.59225   0.67470   0.00000  Uiso   1.00
C612   C     0.86327   0.60907   0.16914   0.00000  Uiso   1.00
C613   C     0.81569   0.62357   0.16497   0.00000  Uiso   1.00
C614   C     0.78087   0.59929   0.12323   0.00000  Uiso   1.00
C615   C     0.73984   0.61834   0.12688   0.00000  Uiso   1.00
C616   C     0.88905   0.64281   0.10032   0.00000  Uiso   1.00
C617   C     0.91592   0.63470   0.00423   0.00000  Uiso   1.00
C618   C     0.93666   0.66994   0.95345   0.00000  Uiso   1.00
C619   C     0.87756   0.61359   0.29742   0.00000  Uiso   1.00
C620   C     0.89478   0.58093   0.36703   0.00000  Uiso   1.00
C621   C     0.90585   0.59158   0.48219   0.00000  Uiso   1.00
H622   H     0.84767   0.71862   0.28397   0.00000  Uiso   1.00
H623   H     0.76415   0.71685   0.24644   0.00000  Uiso   1.00
H624   H     0.89919   0.75225   0.12747   0.00000  Uiso   1.00
H625   H     0.87804   0.69849   0.49022   0.00000  Uiso   1.00
H626   H     0.67418   0.69644   0.18547   0.00000  Uiso   1.00
H627   H     0.95892   0.77108   0.93463   0.00000  Uiso   1.00
H628   H     0.91433   0.65772   0.69956   0.00000  Uiso   1.00
H629   H     0.86790   0.57651   0.13501   0.00000  Uiso   1.00
H630   H     0.78549   0.56693   0.08931   0.00000  Uiso   1.00
H631   H     0.92052   0.60233   0.97033   0.00000  Uiso   1.00
H632   H     0.89938   0.54857   0.33308   0.00000  Uiso   1.00
H633   H     0.69149   0.57476   0.05792   0.00000  Uiso   1.00
H634   H     0.97624   0.64941   0.80709   0.00000  Uiso   1.00
H635   H     0.93165   0.53604   0.57202   0.00000  Uiso   1.00
O636   O     0.62826   0.63187   0.09428   0.00000  Uiso   1.00
O637   O     0.00184   0.72980   0.76522   0.00000  Uiso   1.00
O638   O     0.94334   0.58107   0.76878   0.00000  Uiso   1.00
N639   N     0.68956   0.66911   0.16174   0.00000  Uiso   1.00
N640   N     0.95578   0.73890   0.92721   0.00000  Uiso   1.00
N641   N     0.91410   0.63292   0.64235   0.00000  Uiso   1.00
N642   N     0.69888   0.60364   0.09311   0.00000  Uiso   1.00
N643   N     0.96509   0.67343   0.85859   0.00000  Uiso   1.00
N644   N     0.92342   0.56744   0.57372   0.00000  Uiso   1.00
C645   C     0.85885   0.37760   0.13691   0.00000  Uiso   1.00
C646   C     0.81891   0.39993   0.18926   0.00000  Uiso   1.00
C647   C     0.77702   0.38290   0.19432   0.00000  Uiso   1.00
C648   C     0.74496   0.40841   0.24572   0.00000  Uiso   1.00
C649   C     0.68151   0.43683   0.32026   0.00000  Uiso   1.00
C650   C     0.89300   0.37653   0.23481   0.00000  Uiso   1.00
C651   C     0.91340   0.33983   0.27816   0.00000  Uiso   1.00
C652   C     0.94372   0.34563   0.36789   0.00000  Uiso   1.00
C653   C     0.99531   0.33773   0.51309   0.00000  Uiso   1.00
C654   C     0.87666   0.40813   0.04304   0.00000  Uiso   1.00
C655   C     0.88334   0.39800   0.92516   0.00000  Uiso   1.00
C656   C     0.89990   0.43041   0.85344   0.00000  Uiso   1.00
C657   C     0.92612   0.47157   0.70089   0.00000  Uiso   1.00
C658   C     0.87640   0.45317   0.21917   0.00000  Uiso   1.00
C659   C     0.82845   0.44097   0.23394   0.00000  Uiso   1.00
C660   C     0.79644   0.46651   0.28534   0.00000  Uiso   1.00
C661   C     0.75451   0.44953   0.29047   0.00000  Uiso   1.00
C662   C     0.90253   0.41757   0.27949   0.00000  Uiso   1.00
C663   C     0.93283   0.42344   0.36917   0.00000  Uiso   1.00
C664   C     0.95327   0.38676   0.41265   0.00000  Uiso   1.00
C665   C     0.88619   0.44918   0.08772   0.00000  Uiso   1.00
C666   C     0.90276   0.48161   0.01617   0.00000  Uiso   1.00
C667   C     0.90946   0.47153   0.89820   0.00000  Uiso   1.00
H668   H     0.85142   0.34564   0.10213   0.00000  Uiso   1.00
H669   H     0.76965   0.35113   0.15975   0.00000  Uiso   1.00
H670   H     0.90602   0.30807   0.24356   0.00000  Uiso   1.00
H671   H     0.87595   0.36623   0.89061   0.00000  Uiso   1.00
H672   H     0.68321   0.37532   0.24337   0.00000  Uiso   1.00
H673   H     0.97075   0.28451   0.42006   0.00000  Uiso   1.00
H674   H     0.90735   0.40716   0.67581   0.00000  Uiso   1.00
H675   H     0.88383   0.48513   0.25396   0.00000  Uiso   1.00
H676   H     0.80383   0.49828   0.31991   0.00000  Uiso   1.00
H677   H     0.94020   0.45521   0.40372   0.00000  Uiso   1.00
H678   H     0.91013   0.51337   0.05078   0.00000  Uiso   1.00
H679   H     0.71095   0.49475   0.37337   0.00000  Uiso   1.00
H680   H     0.99850   0.40394   0.55006   0.00000  Uiso   1.00
H681   H     0.93509   0.52658   0.80581   0.00000  Uiso   1.00
O682   O     0.64387   0.44116   0.34905   0.00000  Uiso   1.00
O683   O     0.02113   0.32202   0.58084   0.00000  Uiso   1.00
O684   O     0.93795   0.48293   0.60440   0.00000  Uiso   1.00
N685   N     0.70071   0.40163   0.26489   0.00000  Uiso   1.00
N686   N     0.96955   0.31672   0.43010   0.00000  Uiso   1.00
N687   N     0.91028   0.43138   0.73430   0.00000  Uiso   1.00
N688   N     0.71564   0.46589   0.33484   0.00000  Uiso   1.00
N689   N     0.98447   0.38099   0.50005   0.00000  Uiso   1.00
N690   N     0.92521   0.49565   0.80424   0.00000  Uiso   1.00
C691   C     0.64769   0.31394   0.74985   0.00000  Uiso   1.00
C692   C     0.69027   0.33461   0.70881   0.00000  Uiso   1.00
C693   C     0.73126   0.31552   0.71252   0.00000  Uiso   1.00
C694   C     0.76613   0.33976   0.67079   0.00000  Uiso   1.00
C695   C     0.83314   0.36549   0.61369   0.00000  Uiso   1.00
C696   C     0.61690   0.31537   0.64416   0.00000  Uiso   1.00
C697   C     0.59620   0.28011   0.59352   0.00000  Uiso   1.00
C698   C     0.56931   0.28816   0.49737   0.00000  Uiso   1.00
C699   C     0.52239   0.28403   0.33995   0.00000  Uiso   1.00
C700   C     0.62840   0.34458   0.84125   0.00000  Uiso   1.00
C701   C     0.61735   0.33388   0.95633   0.00000  Uiso   1.00
C702   C     0.60012   0.36652   0.02611   0.00000  Uiso   1.00
C703   C     0.57105   0.40775   0.17470   0.00000  Uiso   1.00
C704   C     0.63673   0.39093   0.66914   0.00000  Uiso   1.00
C705   C     0.68431   0.37643   0.66497   0.00000  Uiso   1.00
C706   C     0.71913   0.40071   0.62323   0.00000  Uiso   1.00
C707   C     0.76016   0.38166   0.62688   0.00000  Uiso   1.00
C708   C     0.61095   0.35719   0.60032   0.00000  Uiso   1.00
C709   C     0.58408   0.36530   0.50423   0.00000  Uiso   1.00
C710   C     0.56334   0.33006   0.45345   0.00000  Uiso   1.00
C711   C     0.62244   0.38641   0.79742   0.00000  Uiso   1.00
C712   C     0.60522   0.41907   0.86703   0.00000  Uiso   1.00
C713   C     0.59415   0.40842   0.98219   0.00000  Uiso   1.00
H714   H     0.65233   0.28138   0.78397   0.00000  Uiso   1.00
H715   H     0.73585   0.28315   0.74644   0.00000  Uiso   1.00
H716   H     0.60081   0.24775   0.62747   0.00000  Uiso   1.00
H717   H     0.62196   0.30151   0.99022   0.00000  Uiso   1.00
H718   H     0.82582   0.30356   0.68547   0.00000  Uiso   1.00
H719   H     0.54108   0.22892   0.43463   0.00000  Uiso   1.00
H720   H     0.58567   0.34228   0.19956   0.00000  Uiso   1.00
H721   H     0.63210   0.42349   0.63501   0.00000  Uiso   1.00
H722   H     0.71451   0.43307   0.58931   0.00000  Uiso   1.00
H723   H     0.57948   0.39767   0.47033   0.00000  Uiso   1.00
H724   H     0.60062   0.45143   0.83308   0.00000  Uiso   1.00
H725   H     0.80851   0.42524   0.55792   0.00000  Uiso   1.00
H726   H     0.52376   0.35059   0.30709   0.00000  Uiso   1.00
H727   H     0.56835   0.46396   0.07202   0.00000  Uiso   1.00
O728   O     0.87174   0.36813   0.59428   0.00000  Uiso   1.00
O729   O     0.49816   0.27020   0.26522   0.00000  Uiso   1.00
O730   O     0.55666   0.41893   0.26878   0.00000  Uiso   1.00
N731   N     0.81044   0.33089   0.66174   0.00000  Uiso   1.00
N732   N     0.54422   0.26110   0.42721   0.00000  Uiso   1.00
N733   N     0.58590   0.36708   0.14235   0.00000  Uiso   1.00
N734   N     0.80112   0.39636   0.59311   0.00000  Uiso   1.00
N735   N     0.53491   0.32657   0.35859   0.00000  Uiso   1.00
N736   N     0.57658   0.43256   0.07372   0.00000  Uiso   1.00
