data_job_05799
_audit_creation_date              2018-12-19
_audit_creation_method            'Materials Studio'
_symmetry_space_group_name_H-M    'P1'
_symmetry_Int_Tables_number       1
_symmetry_cell_setting            triclinic
loop_
_symmetry_equiv_pos_as_xyz
  x,y,z
_cell_length_a                    23.7257
_cell_length_b                    22.0265
_cell_length_c                    23.3620
_cell_angle_alpha                 90.0000
_cell_angle_beta                  90.0000
_cell_angle_gamma                 90.0000
loop_
_atom_site_label
_atom_site_type_symbol
_atom_site_fract_x
_atom_site_fract_y
_atom_site_fract_z
_atom_site_U_iso_or_equiv
_atom_site_adp_type
_atom_site_occupancy
C1     C     0.15399   0.31933   0.36170   0.00000  Uiso   1.00
C2     C     0.11048   0.33576   0.31622   0.00000  Uiso   1.00
C3     C     0.09009   0.29710   0.27413   0.00000  Uiso   1.00
C4     C     0.05043   0.32077   0.23656   0.00000  Uiso   1.00
C5     C     0.98572   0.33714   0.16526   0.00000  Uiso   1.00
C6     C     0.20171   0.36519   0.35521   0.00000  Uiso   1.00
C7     C     0.25802   0.35128   0.34592   0.00000  Uiso   1.00
C8     C     0.29517   0.39973   0.34119   0.00000  Uiso   1.00
C9     C     0.37209   0.46180   0.33047   0.00000  Uiso   1.00
C10    C     0.12637   0.33296   0.41921   0.00000  Uiso   1.00
C11    C     0.11935   0.29194   0.46375   0.00000  Uiso   1.00
C12    C     0.09307   0.31326   0.51290   0.00000  Uiso   1.00
C13    C     0.05302   0.32527   0.60155   0.00000  Uiso   1.00
C14    C     0.11982   0.43011   0.36981   0.00000  Uiso   1.00
C15    C     0.09192   0.39593   0.32063   0.00000  Uiso   1.00
C16    C     0.05228   0.41967   0.28311   0.00000  Uiso   1.00
C17    C     0.03184   0.38106   0.24098   0.00000  Uiso   1.00
C18    C     0.18315   0.42537   0.35962   0.00000  Uiso   1.00
C19    C     0.22022   0.47385   0.35490   0.00000  Uiso   1.00
C20    C     0.27658   0.46002   0.34560   0.00000  Uiso   1.00
C21    C     0.10781   0.39313   0.42363   0.00000  Uiso   1.00
C22    C     0.08154   0.41451   0.47272   0.00000  Uiso   1.00
C23    C     0.07448   0.37354   0.51732   0.00000  Uiso   1.00
H24    H     0.16844   0.27248   0.35826   0.00000  Uiso   1.00
H25    H     0.10446   0.25054   0.27073   0.00000  Uiso   1.00
H26    H     0.27237   0.30471   0.34252   0.00000  Uiso   1.00
H27    H     0.13371   0.24538   0.46032   0.00000  Uiso   1.00
H28    H     0.02536   0.25275   0.17561   0.00000  Uiso   1.00
H29    H     0.37941   0.36698   0.32700   0.00000  Uiso   1.00
H30    H     0.08703   0.24187   0.57541   0.00000  Uiso   1.00
H31    H     0.10537   0.47696   0.37325   0.00000  Uiso   1.00
H32    H     0.03793   0.46624   0.28653   0.00000  Uiso   1.00
H33    H     0.20584   0.52041   0.35832   0.00000  Uiso   1.00
H34    H     0.06719   0.46108   0.47612   0.00000  Uiso   1.00
H35    H     0.97137   0.42782   0.18844   0.00000  Uiso   1.00
H36    H     0.32542   0.54205   0.33983   0.00000  Uiso   1.00
H37    H     0.03303   0.41694   0.58823   0.00000  Uiso   1.00
O38    O     0.95515   0.32955   0.12470   0.00000  Uiso   1.00
O39    O     0.41965   0.47940   0.32333   0.00000  Uiso   1.00
O40    O     0.03604   0.31527   0.64923   0.00000  Uiso   1.00
N41    N     0.02190   0.29542   0.19054   0.00000  Uiso   1.00
N42    N     0.35292   0.40222   0.33207   0.00000  Uiso   1.00
N43    N     0.07957   0.28525   0.56431   0.00000  Uiso   1.00
N44    N     0.99285   0.38963   0.19744   0.00000  Uiso   1.00
N45    N     0.32386   0.49642   0.33897   0.00000  Uiso   1.00
N46    N     0.05052   0.37946   0.57121   0.00000  Uiso   1.00
C47    C     0.65399   0.81933   0.36170   0.00000  Uiso   1.00
C48    C     0.61048   0.83576   0.31622   0.00000  Uiso   1.00
C49    C     0.59009   0.79710   0.27413   0.00000  Uiso   1.00
C50    C     0.55043   0.82077   0.23656   0.00000  Uiso   1.00
C51    C     0.48572   0.83714   0.16526   0.00000  Uiso   1.00
C52    C     0.70171   0.86519   0.35521   0.00000  Uiso   1.00
C53    C     0.75802   0.85128   0.34592   0.00000  Uiso   1.00
C54    C     0.79517   0.89973   0.34119   0.00000  Uiso   1.00
C55    C     0.87209   0.96180   0.33047   0.00000  Uiso   1.00
C56    C     0.62637   0.83296   0.41921   0.00000  Uiso   1.00
C57    C     0.61935   0.79194   0.46375   0.00000  Uiso   1.00
C58    C     0.59307   0.81326   0.51290   0.00000  Uiso   1.00
C59    C     0.55302   0.82527   0.60155   0.00000  Uiso   1.00
C60    C     0.61982   0.93011   0.36981   0.00000  Uiso   1.00
C61    C     0.59192   0.89593   0.32063   0.00000  Uiso   1.00
C62    C     0.55228   0.91967   0.28311   0.00000  Uiso   1.00
C63    C     0.53184   0.88106   0.24098   0.00000  Uiso   1.00
C64    C     0.68315   0.92537   0.35962   0.00000  Uiso   1.00
C65    C     0.72022   0.97385   0.35490   0.00000  Uiso   1.00
C66    C     0.77658   0.96002   0.34560   0.00000  Uiso   1.00
C67    C     0.60781   0.89313   0.42363   0.00000  Uiso   1.00
C68    C     0.58154   0.91451   0.47272   0.00000  Uiso   1.00
C69    C     0.57448   0.87354   0.51732   0.00000  Uiso   1.00
H70    H     0.66844   0.77248   0.35826   0.00000  Uiso   1.00
H71    H     0.60446   0.75054   0.27073   0.00000  Uiso   1.00
H72    H     0.77237   0.80471   0.34252   0.00000  Uiso   1.00
H73    H     0.63371   0.74538   0.46032   0.00000  Uiso   1.00
H74    H     0.52536   0.75275   0.17561   0.00000  Uiso   1.00
H75    H     0.87941   0.86698   0.32700   0.00000  Uiso   1.00
H76    H     0.58703   0.74187   0.57541   0.00000  Uiso   1.00
H77    H     0.60537   0.97696   0.37325   0.00000  Uiso   1.00
H78    H     0.53793   0.96624   0.28653   0.00000  Uiso   1.00
H79    H     0.70584   0.02041   0.35832   0.00000  Uiso   1.00
H80    H     0.56719   0.96108   0.47612   0.00000  Uiso   1.00
H81    H     0.47137   0.92782   0.18844   0.00000  Uiso   1.00
H82    H     0.82542   0.04205   0.33983   0.00000  Uiso   1.00
H83    H     0.53303   0.91694   0.58823   0.00000  Uiso   1.00
O84    O     0.45515   0.82955   0.12470   0.00000  Uiso   1.00
O85    O     0.91965   0.97940   0.32333   0.00000  Uiso   1.00
O86    O     0.53604   0.81527   0.64923   0.00000  Uiso   1.00
N87    N     0.52190   0.79542   0.19054   0.00000  Uiso   1.00
N88    N     0.85292   0.90222   0.33207   0.00000  Uiso   1.00
N89    N     0.57957   0.78525   0.56431   0.00000  Uiso   1.00
N90    N     0.49285   0.88963   0.19744   0.00000  Uiso   1.00
N91    N     0.82386   0.99642   0.33897   0.00000  Uiso   1.00
N92    N     0.55052   0.87946   0.57121   0.00000  Uiso   1.00
C93    C     0.34601   0.18067   0.36170   0.00000  Uiso   1.00
C94    C     0.38952   0.16424   0.31622   0.00000  Uiso   1.00
C95    C     0.40991   0.20290   0.27413   0.00000  Uiso   1.00
C96    C     0.44957   0.17923   0.23656   0.00000  Uiso   1.00
C97    C     0.51428   0.16286   0.16526   0.00000  Uiso   1.00
C98    C     0.29829   0.13481   0.35521   0.00000  Uiso   1.00
C99    C     0.24198   0.14872   0.34592   0.00000  Uiso   1.00
C100   C     0.20483   0.10027   0.34119   0.00000  Uiso   1.00
C101   C     0.12791   0.03820   0.33047   0.00000  Uiso   1.00
C102   C     0.37363   0.16704   0.41921   0.00000  Uiso   1.00
C103   C     0.38065   0.20806   0.46375   0.00000  Uiso   1.00
C104   C     0.40693   0.18674   0.51290   0.00000  Uiso   1.00
C105   C     0.44698   0.17473   0.60155   0.00000  Uiso   1.00
C106   C     0.38018   0.06989   0.36981   0.00000  Uiso   1.00
C107   C     0.40808   0.10407   0.32063   0.00000  Uiso   1.00
C108   C     0.44772   0.08033   0.28311   0.00000  Uiso   1.00
C109   C     0.46816   0.11894   0.24098   0.00000  Uiso   1.00
C110   C     0.31685   0.07463   0.35962   0.00000  Uiso   1.00
C111   C     0.27978   0.02615   0.35490   0.00000  Uiso   1.00
C112   C     0.22342   0.03998   0.34560   0.00000  Uiso   1.00
C113   C     0.39219   0.10687   0.42363   0.00000  Uiso   1.00
C114   C     0.41846   0.08549   0.47272   0.00000  Uiso   1.00
C115   C     0.42552   0.12646   0.51732   0.00000  Uiso   1.00
H116   H     0.33156   0.22752   0.35826   0.00000  Uiso   1.00
H117   H     0.39554   0.24946   0.27073   0.00000  Uiso   1.00
H118   H     0.22763   0.19529   0.34252   0.00000  Uiso   1.00
H119   H     0.36629   0.25462   0.46032   0.00000  Uiso   1.00
H120   H     0.47464   0.24725   0.17561   0.00000  Uiso   1.00
H121   H     0.12059   0.13302   0.32700   0.00000  Uiso   1.00
H122   H     0.41297   0.25813   0.57541   0.00000  Uiso   1.00
H123   H     0.39463   0.02304   0.37325   0.00000  Uiso   1.00
H124   H     0.46207   0.03376   0.28653   0.00000  Uiso   1.00
H125   H     0.29416   0.97959   0.35832   0.00000  Uiso   1.00
H126   H     0.43281   0.03892   0.47612   0.00000  Uiso   1.00
H127   H     0.52863   0.07218   0.18844   0.00000  Uiso   1.00
H128   H     0.17458   0.95795   0.33983   0.00000  Uiso   1.00
H129   H     0.46697   0.08306   0.58823   0.00000  Uiso   1.00
O130   O     0.54485   0.17045   0.12470   0.00000  Uiso   1.00
O131   O     0.08035   0.02060   0.32333   0.00000  Uiso   1.00
O132   O     0.46396   0.18473   0.64923   0.00000  Uiso   1.00
N133   N     0.47810   0.20458   0.19054   0.00000  Uiso   1.00
N134   N     0.14708   0.09778   0.33207   0.00000  Uiso   1.00
N135   N     0.42043   0.21475   0.56431   0.00000  Uiso   1.00
N136   N     0.50715   0.11037   0.19744   0.00000  Uiso   1.00
N137   N     0.17614   0.00358   0.33897   0.00000  Uiso   1.00
N138   N     0.44948   0.12054   0.57121   0.00000  Uiso   1.00
C139   C     0.84601   0.68067   0.36170   0.00000  Uiso   1.00
C140   C     0.88952   0.66424   0.31622   0.00000  Uiso   1.00
C141   C     0.90991   0.70290   0.27413   0.00000  Uiso   1.00
C142   C     0.94957   0.67923   0.23656   0.00000  Uiso   1.00
C143   C     0.01428   0.66286   0.16526   0.00000  Uiso   1.00
C144   C     0.79829   0.63481   0.35521   0.00000  Uiso   1.00
C145   C     0.74198   0.64872   0.34592   0.00000  Uiso   1.00
C146   C     0.70483   0.60027   0.34119   0.00000  Uiso   1.00
C147   C     0.62791   0.53820   0.33047   0.00000  Uiso   1.00
C148   C     0.87363   0.66704   0.41921   0.00000  Uiso   1.00
C149   C     0.88065   0.70806   0.46375   0.00000  Uiso   1.00
C150   C     0.90693   0.68674   0.51290   0.00000  Uiso   1.00
C151   C     0.94698   0.67473   0.60155   0.00000  Uiso   1.00
C152   C     0.88018   0.56989   0.36981   0.00000  Uiso   1.00
C153   C     0.90808   0.60407   0.32063   0.00000  Uiso   1.00
C154   C     0.94772   0.58033   0.28311   0.00000  Uiso   1.00
C155   C     0.96816   0.61894   0.24098   0.00000  Uiso   1.00
C156   C     0.81685   0.57463   0.35962   0.00000  Uiso   1.00
C157   C     0.77978   0.52615   0.35490   0.00000  Uiso   1.00
C158   C     0.72342   0.53998   0.34560   0.00000  Uiso   1.00
C159   C     0.89219   0.60687   0.42363   0.00000  Uiso   1.00
C160   C     0.91846   0.58549   0.47272   0.00000  Uiso   1.00
C161   C     0.92552   0.62646   0.51732   0.00000  Uiso   1.00
H162   H     0.83156   0.72752   0.35826   0.00000  Uiso   1.00
H163   H     0.89554   0.74946   0.27073   0.00000  Uiso   1.00
H164   H     0.72763   0.69529   0.34252   0.00000  Uiso   1.00
H165   H     0.86629   0.75462   0.46032   0.00000  Uiso   1.00
H166   H     0.97464   0.74725   0.17561   0.00000  Uiso   1.00
H167   H     0.62059   0.63302   0.32700   0.00000  Uiso   1.00
H168   H     0.91297   0.75813   0.57541   0.00000  Uiso   1.00
H169   H     0.89463   0.52304   0.37325   0.00000  Uiso   1.00
H170   H     0.96207   0.53376   0.28653   0.00000  Uiso   1.00
H171   H     0.79416   0.47959   0.35832   0.00000  Uiso   1.00
H172   H     0.93281   0.53892   0.47612   0.00000  Uiso   1.00
H173   H     0.02863   0.57218   0.18844   0.00000  Uiso   1.00
H174   H     0.67458   0.45795   0.33983   0.00000  Uiso   1.00
H175   H     0.96697   0.58306   0.58823   0.00000  Uiso   1.00
O176   O     0.04485   0.67045   0.12470   0.00000  Uiso   1.00
O177   O     0.58035   0.52060   0.32333   0.00000  Uiso   1.00
O178   O     0.96396   0.68473   0.64923   0.00000  Uiso   1.00
N179   N     0.97810   0.70458   0.19054   0.00000  Uiso   1.00
N180   N     0.64708   0.59778   0.33207   0.00000  Uiso   1.00
N181   N     0.92043   0.71475   0.56431   0.00000  Uiso   1.00
N182   N     0.00715   0.61037   0.19744   0.00000  Uiso   1.00
N183   N     0.67614   0.50358   0.33897   0.00000  Uiso   1.00
N184   N     0.94948   0.62054   0.57121   0.00000  Uiso   1.00
C185   C     0.84601   0.31933   0.63830   0.00000  Uiso   1.00
C186   C     0.88952   0.33576   0.68378   0.00000  Uiso   1.00
C187   C     0.90991   0.29710   0.72587   0.00000  Uiso   1.00
C188   C     0.94957   0.32077   0.76344   0.00000  Uiso   1.00
C189   C     0.01428   0.33714   0.83474   0.00000  Uiso   1.00
C190   C     0.79829   0.36519   0.64479   0.00000  Uiso   1.00
C191   C     0.74198   0.35128   0.65408   0.00000  Uiso   1.00
C192   C     0.70483   0.39973   0.65881   0.00000  Uiso   1.00
C193   C     0.62791   0.46180   0.66953   0.00000  Uiso   1.00
C194   C     0.87363   0.33296   0.58079   0.00000  Uiso   1.00
C195   C     0.88065   0.29194   0.53625   0.00000  Uiso   1.00
C196   C     0.90693   0.31326   0.48710   0.00000  Uiso   1.00
C197   C     0.94698   0.32527   0.39845   0.00000  Uiso   1.00
C198   C     0.88018   0.43011   0.63019   0.00000  Uiso   1.00
C199   C     0.90808   0.39593   0.67937   0.00000  Uiso   1.00
C200   C     0.94772   0.41967   0.71689   0.00000  Uiso   1.00
C201   C     0.96816   0.38106   0.75902   0.00000  Uiso   1.00
C202   C     0.81685   0.42537   0.64038   0.00000  Uiso   1.00
C203   C     0.77978   0.47385   0.64510   0.00000  Uiso   1.00
C204   C     0.72342   0.46002   0.65440   0.00000  Uiso   1.00
C205   C     0.89219   0.39313   0.57637   0.00000  Uiso   1.00
C206   C     0.91846   0.41451   0.52728   0.00000  Uiso   1.00
C207   C     0.92552   0.37354   0.48268   0.00000  Uiso   1.00
H208   H     0.83156   0.27248   0.64174   0.00000  Uiso   1.00
H209   H     0.89554   0.25054   0.72927   0.00000  Uiso   1.00
H210   H     0.72763   0.30471   0.65748   0.00000  Uiso   1.00
H211   H     0.86629   0.24538   0.53968   0.00000  Uiso   1.00
H212   H     0.97464   0.25275   0.82439   0.00000  Uiso   1.00
H213   H     0.62059   0.36698   0.67300   0.00000  Uiso   1.00
H214   H     0.91297   0.24187   0.42459   0.00000  Uiso   1.00
H215   H     0.89463   0.47696   0.62675   0.00000  Uiso   1.00
H216   H     0.96207   0.46624   0.71347   0.00000  Uiso   1.00
H217   H     0.79416   0.52041   0.64168   0.00000  Uiso   1.00
H218   H     0.93281   0.46108   0.52388   0.00000  Uiso   1.00
H219   H     0.02863   0.42782   0.81156   0.00000  Uiso   1.00
H220   H     0.67458   0.54205   0.66017   0.00000  Uiso   1.00
H221   H     0.96697   0.41694   0.41177   0.00000  Uiso   1.00
O222   O     0.04485   0.32955   0.87530   0.00000  Uiso   1.00
O223   O     0.58035   0.47940   0.67667   0.00000  Uiso   1.00
O224   O     0.96396   0.31527   0.35077   0.00000  Uiso   1.00
N225   N     0.97810   0.29542   0.80946   0.00000  Uiso   1.00
N226   N     0.64708   0.40222   0.66793   0.00000  Uiso   1.00
N227   N     0.92043   0.28525   0.43569   0.00000  Uiso   1.00
N228   N     0.00715   0.38963   0.80256   0.00000  Uiso   1.00
N229   N     0.67614   0.49642   0.66103   0.00000  Uiso   1.00
N230   N     0.94948   0.37946   0.42879   0.00000  Uiso   1.00
C231   C     0.34601   0.81933   0.63830   0.00000  Uiso   1.00
C232   C     0.38952   0.83576   0.68378   0.00000  Uiso   1.00
C233   C     0.40991   0.79710   0.72587   0.00000  Uiso   1.00
C234   C     0.44957   0.82077   0.76344   0.00000  Uiso   1.00
C235   C     0.51428   0.83714   0.83474   0.00000  Uiso   1.00
C236   C     0.29829   0.86519   0.64479   0.00000  Uiso   1.00
C237   C     0.24198   0.85128   0.65408   0.00000  Uiso   1.00
C238   C     0.20483   0.89973   0.65881   0.00000  Uiso   1.00
C239   C     0.12791   0.96180   0.66953   0.00000  Uiso   1.00
C240   C     0.37363   0.83296   0.58079   0.00000  Uiso   1.00
C241   C     0.38065   0.79194   0.53625   0.00000  Uiso   1.00
C242   C     0.40693   0.81326   0.48710   0.00000  Uiso   1.00
C243   C     0.44698   0.82527   0.39845   0.00000  Uiso   1.00
C244   C     0.38018   0.93011   0.63019   0.00000  Uiso   1.00
C245   C     0.40808   0.89593   0.67937   0.00000  Uiso   1.00
C246   C     0.44772   0.91967   0.71689   0.00000  Uiso   1.00
C247   C     0.46816   0.88106   0.75902   0.00000  Uiso   1.00
C248   C     0.31685   0.92537   0.64038   0.00000  Uiso   1.00
C249   C     0.27978   0.97385   0.64510   0.00000  Uiso   1.00
C250   C     0.22342   0.96002   0.65440   0.00000  Uiso   1.00
C251   C     0.39219   0.89313   0.57637   0.00000  Uiso   1.00
C252   C     0.41846   0.91451   0.52728   0.00000  Uiso   1.00
C253   C     0.42552   0.87354   0.48268   0.00000  Uiso   1.00
H254   H     0.33156   0.77248   0.64174   0.00000  Uiso   1.00
H255   H     0.39554   0.75054   0.72927   0.00000  Uiso   1.00
H256   H     0.22763   0.80471   0.65748   0.00000  Uiso   1.00
H257   H     0.36629   0.74538   0.53968   0.00000  Uiso   1.00
H258   H     0.47464   0.75275   0.82439   0.00000  Uiso   1.00
H259   H     0.12059   0.86698   0.67300   0.00000  Uiso   1.00
H260   H     0.41297   0.74187   0.42459   0.00000  Uiso   1.00
H261   H     0.39463   0.97696   0.62675   0.00000  Uiso   1.00
H262   H     0.46207   0.96624   0.71347   0.00000  Uiso   1.00
H263   H     0.29416   0.02041   0.64168   0.00000  Uiso   1.00
H264   H     0.43281   0.96108   0.52388   0.00000  Uiso   1.00
H265   H     0.52863   0.92782   0.81156   0.00000  Uiso   1.00
H266   H     0.17458   0.04205   0.66017   0.00000  Uiso   1.00
H267   H     0.46697   0.91694   0.41177   0.00000  Uiso   1.00
O268   O     0.54485   0.82955   0.87530   0.00000  Uiso   1.00
O269   O     0.08035   0.97940   0.67667   0.00000  Uiso   1.00
O270   O     0.46396   0.81527   0.35077   0.00000  Uiso   1.00
N271   N     0.47810   0.79542   0.80946   0.00000  Uiso   1.00
N272   N     0.14708   0.90222   0.66793   0.00000  Uiso   1.00
N273   N     0.42043   0.78525   0.43569   0.00000  Uiso   1.00
N274   N     0.50715   0.88963   0.80256   0.00000  Uiso   1.00
N275   N     0.17614   0.99642   0.66103   0.00000  Uiso   1.00
N276   N     0.44948   0.87946   0.42879   0.00000  Uiso   1.00
C277   C     0.65399   0.18067   0.63830   0.00000  Uiso   1.00
C278   C     0.61048   0.16424   0.68378   0.00000  Uiso   1.00
C279   C     0.59009   0.20290   0.72587   0.00000  Uiso   1.00
C280   C     0.55043   0.17923   0.76344   0.00000  Uiso   1.00
C281   C     0.48572   0.16286   0.83474   0.00000  Uiso   1.00
C282   C     0.70171   0.13481   0.64479   0.00000  Uiso   1.00
C283   C     0.75802   0.14872   0.65408   0.00000  Uiso   1.00
C284   C     0.79517   0.10027   0.65881   0.00000  Uiso   1.00
C285   C     0.87209   0.03820   0.66953   0.00000  Uiso   1.00
C286   C     0.62637   0.16704   0.58079   0.00000  Uiso   1.00
C287   C     0.61935   0.20806   0.53625   0.00000  Uiso   1.00
C288   C     0.59307   0.18674   0.48710   0.00000  Uiso   1.00
C289   C     0.55302   0.17473   0.39845   0.00000  Uiso   1.00
C290   C     0.61982   0.06989   0.63019   0.00000  Uiso   1.00
C291   C     0.59192   0.10407   0.67937   0.00000  Uiso   1.00
C292   C     0.55228   0.08033   0.71689   0.00000  Uiso   1.00
C293   C     0.53184   0.11894   0.75902   0.00000  Uiso   1.00
C294   C     0.68315   0.07463   0.64038   0.00000  Uiso   1.00
C295   C     0.72022   0.02615   0.64510   0.00000  Uiso   1.00
C296   C     0.77658   0.03998   0.65440   0.00000  Uiso   1.00
C297   C     0.60781   0.10687   0.57637   0.00000  Uiso   1.00
C298   C     0.58154   0.08549   0.52728   0.00000  Uiso   1.00
C299   C     0.57448   0.12646   0.48268   0.00000  Uiso   1.00
H300   H     0.66844   0.22752   0.64174   0.00000  Uiso   1.00
H301   H     0.60446   0.24946   0.72927   0.00000  Uiso   1.00
H302   H     0.77237   0.19529   0.65748   0.00000  Uiso   1.00
H303   H     0.63371   0.25462   0.53968   0.00000  Uiso   1.00
H304   H     0.52536   0.24725   0.82439   0.00000  Uiso   1.00
H305   H     0.87941   0.13302   0.67300   0.00000  Uiso   1.00
H306   H     0.58703   0.25813   0.42459   0.00000  Uiso   1.00
H307   H     0.60537   0.02304   0.62675   0.00000  Uiso   1.00
H308   H     0.53793   0.03376   0.71347   0.00000  Uiso   1.00
H309   H     0.70584   0.97959   0.64168   0.00000  Uiso   1.00
H310   H     0.56719   0.03892   0.52388   0.00000  Uiso   1.00
H311   H     0.47137   0.07218   0.81156   0.00000  Uiso   1.00
H312   H     0.82542   0.95795   0.66017   0.00000  Uiso   1.00
H313   H     0.53303   0.08306   0.41177   0.00000  Uiso   1.00
O314   O     0.45515   0.17045   0.87530   0.00000  Uiso   1.00
O315   O     0.91965   0.02060   0.67667   0.00000  Uiso   1.00
O316   O     0.53604   0.18473   0.35077   0.00000  Uiso   1.00
N317   N     0.52190   0.20458   0.80946   0.00000  Uiso   1.00
N318   N     0.85292   0.09778   0.66793   0.00000  Uiso   1.00
N319   N     0.57957   0.21475   0.43569   0.00000  Uiso   1.00
N320   N     0.49285   0.11037   0.80256   0.00000  Uiso   1.00
N321   N     0.82386   0.00358   0.66103   0.00000  Uiso   1.00
N322   N     0.55052   0.12054   0.42879   0.00000  Uiso   1.00
C323   C     0.15399   0.68067   0.63830   0.00000  Uiso   1.00
C324   C     0.11048   0.66424   0.68378   0.00000  Uiso   1.00
C325   C     0.09009   0.70290   0.72587   0.00000  Uiso   1.00
C326   C     0.05043   0.67923   0.76344   0.00000  Uiso   1.00
C327   C     0.98572   0.66286   0.83474   0.00000  Uiso   1.00
C328   C     0.20171   0.63481   0.64479   0.00000  Uiso   1.00
C329   C     0.25802   0.64872   0.65408   0.00000  Uiso   1.00
C330   C     0.29517   0.60027   0.65881   0.00000  Uiso   1.00
C331   C     0.37209   0.53820   0.66953   0.00000  Uiso   1.00
C332   C     0.12637   0.66704   0.58079   0.00000  Uiso   1.00
C333   C     0.11935   0.70806   0.53625   0.00000  Uiso   1.00
C334   C     0.09307   0.68674   0.48710   0.00000  Uiso   1.00
C335   C     0.05302   0.67473   0.39845   0.00000  Uiso   1.00
C336   C     0.11982   0.56989   0.63019   0.00000  Uiso   1.00
C337   C     0.09192   0.60407   0.67937   0.00000  Uiso   1.00
C338   C     0.05228   0.58033   0.71689   0.00000  Uiso   1.00
C339   C     0.03184   0.61894   0.75902   0.00000  Uiso   1.00
C340   C     0.18315   0.57463   0.64038   0.00000  Uiso   1.00
C341   C     0.22022   0.52615   0.64510   0.00000  Uiso   1.00
C342   C     0.27658   0.53998   0.65440   0.00000  Uiso   1.00
C343   C     0.10781   0.60687   0.57637   0.00000  Uiso   1.00
C344   C     0.08154   0.58549   0.52728   0.00000  Uiso   1.00
C345   C     0.07448   0.62646   0.48268   0.00000  Uiso   1.00
H346   H     0.16844   0.72752   0.64174   0.00000  Uiso   1.00
H347   H     0.10446   0.74946   0.72927   0.00000  Uiso   1.00
H348   H     0.27237   0.69529   0.65748   0.00000  Uiso   1.00
H349   H     0.13371   0.75462   0.53968   0.00000  Uiso   1.00
H350   H     0.02536   0.74725   0.82439   0.00000  Uiso   1.00
H351   H     0.37941   0.63302   0.67300   0.00000  Uiso   1.00
H352   H     0.08703   0.75813   0.42459   0.00000  Uiso   1.00
H353   H     0.10537   0.52304   0.62675   0.00000  Uiso   1.00
H354   H     0.03793   0.53376   0.71347   0.00000  Uiso   1.00
H355   H     0.20584   0.47959   0.64168   0.00000  Uiso   1.00
H356   H     0.06719   0.53892   0.52388   0.00000  Uiso   1.00
H357   H     0.97137   0.57218   0.81156   0.00000  Uiso   1.00
H358   H     0.32542   0.45795   0.66017   0.00000  Uiso   1.00
H359   H     0.03303   0.58306   0.41177   0.00000  Uiso   1.00
O360   O     0.95515   0.67045   0.87530   0.00000  Uiso   1.00
O361   O     0.41965   0.52060   0.67667   0.00000  Uiso   1.00
O362   O     0.03604   0.68473   0.35077   0.00000  Uiso   1.00
N363   N     0.02190   0.70458   0.80946   0.00000  Uiso   1.00
N364   N     0.35292   0.59778   0.66793   0.00000  Uiso   1.00
N365   N     0.07957   0.71475   0.43569   0.00000  Uiso   1.00
N366   N     0.99285   0.61037   0.80256   0.00000  Uiso   1.00
N367   N     0.32386   0.50358   0.66103   0.00000  Uiso   1.00
N368   N     0.05052   0.62054   0.42879   0.00000  Uiso   1.00
C369   C     0.84601   0.18067   0.13830   0.00000  Uiso   1.00
C370   C     0.88952   0.16424   0.18378   0.00000  Uiso   1.00
C371   C     0.90991   0.20290   0.22587   0.00000  Uiso   1.00
C372   C     0.94957   0.17923   0.26344   0.00000  Uiso   1.00
C373   C     0.01428   0.16286   0.33474   0.00000  Uiso   1.00
C374   C     0.79829   0.13481   0.14479   0.00000  Uiso   1.00
C375   C     0.74198   0.14872   0.15408   0.00000  Uiso   1.00
C376   C     0.70483   0.10027   0.15881   0.00000  Uiso   1.00
C377   C     0.62791   0.03820   0.16953   0.00000  Uiso   1.00
C378   C     0.87363   0.16704   0.08079   0.00000  Uiso   1.00
C379   C     0.88065   0.20806   0.03625   0.00000  Uiso   1.00
C380   C     0.90693   0.18674   0.98710   0.00000  Uiso   1.00
C381   C     0.94698   0.17473   0.89845   0.00000  Uiso   1.00
C382   C     0.88018   0.06989   0.13019   0.00000  Uiso   1.00
C383   C     0.90808   0.10407   0.17937   0.00000  Uiso   1.00
C384   C     0.94772   0.08033   0.21689   0.00000  Uiso   1.00
C385   C     0.96816   0.11894   0.25902   0.00000  Uiso   1.00
C386   C     0.81685   0.07463   0.14038   0.00000  Uiso   1.00
C387   C     0.77978   0.02615   0.14510   0.00000  Uiso   1.00
C388   C     0.72342   0.03998   0.15440   0.00000  Uiso   1.00
C389   C     0.89219   0.10687   0.07637   0.00000  Uiso   1.00
C390   C     0.91846   0.08549   0.02728   0.00000  Uiso   1.00
C391   C     0.92552   0.12646   0.98268   0.00000  Uiso   1.00
H392   H     0.83156   0.22752   0.14174   0.00000  Uiso   1.00
H393   H     0.89554   0.24946   0.22927   0.00000  Uiso   1.00
H394   H     0.72763   0.19529   0.15748   0.00000  Uiso   1.00
H395   H     0.86629   0.25462   0.03968   0.00000  Uiso   1.00
H396   H     0.97464   0.24725   0.32439   0.00000  Uiso   1.00
H397   H     0.62059   0.13302   0.17300   0.00000  Uiso   1.00
H398   H     0.91297   0.25813   0.92459   0.00000  Uiso   1.00
H399   H     0.89463   0.02304   0.12675   0.00000  Uiso   1.00
H400   H     0.96207   0.03376   0.21347   0.00000  Uiso   1.00
H401   H     0.79416   0.97959   0.14168   0.00000  Uiso   1.00
H402   H     0.93281   0.03892   0.02388   0.00000  Uiso   1.00
H403   H     0.02863   0.07218   0.31156   0.00000  Uiso   1.00
H404   H     0.67458   0.95795   0.16017   0.00000  Uiso   1.00
H405   H     0.96697   0.08306   0.91177   0.00000  Uiso   1.00
O406   O     0.04485   0.17045   0.37530   0.00000  Uiso   1.00
O407   O     0.58035   0.02060   0.17667   0.00000  Uiso   1.00
O408   O     0.96396   0.18473   0.85077   0.00000  Uiso   1.00
N409   N     0.97810   0.20458   0.30946   0.00000  Uiso   1.00
N410   N     0.64708   0.09778   0.16793   0.00000  Uiso   1.00
N411   N     0.92043   0.21475   0.93569   0.00000  Uiso   1.00
N412   N     0.00715   0.11037   0.30256   0.00000  Uiso   1.00
N413   N     0.67614   0.00358   0.16103   0.00000  Uiso   1.00
N414   N     0.94948   0.12054   0.92879   0.00000  Uiso   1.00
C415   C     0.34601   0.68067   0.13830   0.00000  Uiso   1.00
C416   C     0.38952   0.66424   0.18378   0.00000  Uiso   1.00
C417   C     0.40991   0.70290   0.22587   0.00000  Uiso   1.00
C418   C     0.44957   0.67923   0.26344   0.00000  Uiso   1.00
C419   C     0.51428   0.66286   0.33474   0.00000  Uiso   1.00
C420   C     0.29829   0.63481   0.14479   0.00000  Uiso   1.00
C421   C     0.24198   0.64872   0.15408   0.00000  Uiso   1.00
C422   C     0.20483   0.60027   0.15881   0.00000  Uiso   1.00
C423   C     0.12791   0.53820   0.16953   0.00000  Uiso   1.00
C424   C     0.37363   0.66704   0.08079   0.00000  Uiso   1.00
C425   C     0.38065   0.70806   0.03625   0.00000  Uiso   1.00
C426   C     0.40693   0.68674   0.98710   0.00000  Uiso   1.00
C427   C     0.44698   0.67473   0.89845   0.00000  Uiso   1.00
C428   C     0.38018   0.56989   0.13019   0.00000  Uiso   1.00
C429   C     0.40808   0.60407   0.17937   0.00000  Uiso   1.00
C430   C     0.44772   0.58033   0.21689   0.00000  Uiso   1.00
C431   C     0.46816   0.61894   0.25902   0.00000  Uiso   1.00
C432   C     0.31685   0.57463   0.14038   0.00000  Uiso   1.00
C433   C     0.27978   0.52615   0.14510   0.00000  Uiso   1.00
C434   C     0.22342   0.53998   0.15440   0.00000  Uiso   1.00
C435   C     0.39219   0.60687   0.07637   0.00000  Uiso   1.00
C436   C     0.41846   0.58549   0.02728   0.00000  Uiso   1.00
C437   C     0.42552   0.62646   0.98268   0.00000  Uiso   1.00
H438   H     0.33156   0.72752   0.14174   0.00000  Uiso   1.00
H439   H     0.39554   0.74946   0.22927   0.00000  Uiso   1.00
H440   H     0.22763   0.69529   0.15748   0.00000  Uiso   1.00
H441   H     0.36629   0.75462   0.03968   0.00000  Uiso   1.00
H442   H     0.47464   0.74725   0.32439   0.00000  Uiso   1.00
H443   H     0.12059   0.63302   0.17300   0.00000  Uiso   1.00
H444   H     0.41297   0.75813   0.92459   0.00000  Uiso   1.00
H445   H     0.39463   0.52304   0.12675   0.00000  Uiso   1.00
H446   H     0.46207   0.53376   0.21347   0.00000  Uiso   1.00
H447   H     0.29416   0.47959   0.14168   0.00000  Uiso   1.00
H448   H     0.43281   0.53892   0.02388   0.00000  Uiso   1.00
H449   H     0.52863   0.57218   0.31156   0.00000  Uiso   1.00
H450   H     0.17458   0.45795   0.16017   0.00000  Uiso   1.00
H451   H     0.46697   0.58306   0.91177   0.00000  Uiso   1.00
O452   O     0.54485   0.67045   0.37530   0.00000  Uiso   1.00
O453   O     0.08035   0.52060   0.17667   0.00000  Uiso   1.00
O454   O     0.46396   0.68473   0.85077   0.00000  Uiso   1.00
N455   N     0.47810   0.70458   0.30946   0.00000  Uiso   1.00
N456   N     0.14708   0.59778   0.16793   0.00000  Uiso   1.00
N457   N     0.42043   0.71475   0.93569   0.00000  Uiso   1.00
N458   N     0.50715   0.61037   0.30256   0.00000  Uiso   1.00
N459   N     0.17614   0.50358   0.16103   0.00000  Uiso   1.00
N460   N     0.44948   0.62054   0.92879   0.00000  Uiso   1.00
C461   C     0.65399   0.31933   0.13830   0.00000  Uiso   1.00
C462   C     0.61048   0.33576   0.18378   0.00000  Uiso   1.00
C463   C     0.59009   0.29710   0.22587   0.00000  Uiso   1.00
C464   C     0.55043   0.32077   0.26344   0.00000  Uiso   1.00
C465   C     0.48572   0.33714   0.33474   0.00000  Uiso   1.00
C466   C     0.70171   0.36519   0.14479   0.00000  Uiso   1.00
C467   C     0.75802   0.35128   0.15408   0.00000  Uiso   1.00
C468   C     0.79517   0.39973   0.15881   0.00000  Uiso   1.00
C469   C     0.87209   0.46180   0.16953   0.00000  Uiso   1.00
C470   C     0.62637   0.33296   0.08079   0.00000  Uiso   1.00
C471   C     0.61935   0.29194   0.03625   0.00000  Uiso   1.00
C472   C     0.59307   0.31326   0.98710   0.00000  Uiso   1.00
C473   C     0.55302   0.32527   0.89845   0.00000  Uiso   1.00
C474   C     0.61982   0.43011   0.13019   0.00000  Uiso   1.00
C475   C     0.59192   0.39593   0.17937   0.00000  Uiso   1.00
C476   C     0.55228   0.41967   0.21689   0.00000  Uiso   1.00
C477   C     0.53184   0.38106   0.25902   0.00000  Uiso   1.00
C478   C     0.68315   0.42537   0.14038   0.00000  Uiso   1.00
C479   C     0.72022   0.47385   0.14510   0.00000  Uiso   1.00
C480   C     0.77658   0.46002   0.15440   0.00000  Uiso   1.00
C481   C     0.60781   0.39313   0.07637   0.00000  Uiso   1.00
C482   C     0.58154   0.41451   0.02728   0.00000  Uiso   1.00
C483   C     0.57448   0.37354   0.98268   0.00000  Uiso   1.00
H484   H     0.66844   0.27248   0.14174   0.00000  Uiso   1.00
H485   H     0.60446   0.25054   0.22927   0.00000  Uiso   1.00
H486   H     0.77237   0.30471   0.15748   0.00000  Uiso   1.00
H487   H     0.63371   0.24538   0.03968   0.00000  Uiso   1.00
H488   H     0.52536   0.25275   0.32439   0.00000  Uiso   1.00
H489   H     0.87941   0.36698   0.17300   0.00000  Uiso   1.00
H490   H     0.58703   0.24187   0.92459   0.00000  Uiso   1.00
H491   H     0.60537   0.47696   0.12675   0.00000  Uiso   1.00
H492   H     0.53793   0.46624   0.21347   0.00000  Uiso   1.00
H493   H     0.70584   0.52041   0.14168   0.00000  Uiso   1.00
H494   H     0.56719   0.46108   0.02388   0.00000  Uiso   1.00
H495   H     0.47137   0.42782   0.31156   0.00000  Uiso   1.00
H496   H     0.82542   0.54205   0.16017   0.00000  Uiso   1.00
H497   H     0.53303   0.41694   0.91177   0.00000  Uiso   1.00
O498   O     0.45515   0.32955   0.37530   0.00000  Uiso   1.00
O499   O     0.91965   0.47940   0.17667   0.00000  Uiso   1.00
O500   O     0.53604   0.31527   0.85077   0.00000  Uiso   1.00
N501   N     0.52190   0.29542   0.30946   0.00000  Uiso   1.00
N502   N     0.85292   0.40222   0.16793   0.00000  Uiso   1.00
N503   N     0.57957   0.28525   0.93569   0.00000  Uiso   1.00
N504   N     0.49285   0.38963   0.30256   0.00000  Uiso   1.00
N505   N     0.82386   0.49642   0.16103   0.00000  Uiso   1.00
N506   N     0.55052   0.37946   0.92879   0.00000  Uiso   1.00
C507   C     0.15399   0.81933   0.13830   0.00000  Uiso   1.00
C508   C     0.11048   0.83576   0.18378   0.00000  Uiso   1.00
C509   C     0.09009   0.79710   0.22587   0.00000  Uiso   1.00
C510   C     0.05043   0.82077   0.26344   0.00000  Uiso   1.00
C511   C     0.98572   0.83714   0.33474   0.00000  Uiso   1.00
C512   C     0.20171   0.86519   0.14479   0.00000  Uiso   1.00
C513   C     0.25802   0.85128   0.15408   0.00000  Uiso   1.00
C514   C     0.29517   0.89973   0.15881   0.00000  Uiso   1.00
C515   C     0.37209   0.96180   0.16953   0.00000  Uiso   1.00
C516   C     0.12637   0.83296   0.08079   0.00000  Uiso   1.00
C517   C     0.11935   0.79194   0.03625   0.00000  Uiso   1.00
C518   C     0.09307   0.81326   0.98710   0.00000  Uiso   1.00
C519   C     0.05302   0.82527   0.89845   0.00000  Uiso   1.00
C520   C     0.11982   0.93011   0.13019   0.00000  Uiso   1.00
C521   C     0.09192   0.89593   0.17937   0.00000  Uiso   1.00
C522   C     0.05228   0.91967   0.21689   0.00000  Uiso   1.00
C523   C     0.03184   0.88106   0.25902   0.00000  Uiso   1.00
C524   C     0.18315   0.92537   0.14038   0.00000  Uiso   1.00
C525   C     0.22022   0.97385   0.14510   0.00000  Uiso   1.00
C526   C     0.27658   0.96002   0.15440   0.00000  Uiso   1.00
C527   C     0.10781   0.89313   0.07637   0.00000  Uiso   1.00
C528   C     0.08154   0.91451   0.02728   0.00000  Uiso   1.00
C529   C     0.07448   0.87354   0.98268   0.00000  Uiso   1.00
H530   H     0.16844   0.77248   0.14174   0.00000  Uiso   1.00
H531   H     0.10446   0.75054   0.22927   0.00000  Uiso   1.00
H532   H     0.27237   0.80471   0.15748   0.00000  Uiso   1.00
H533   H     0.13371   0.74538   0.03968   0.00000  Uiso   1.00
H534   H     0.02536   0.75275   0.32439   0.00000  Uiso   1.00
H535   H     0.37941   0.86698   0.17300   0.00000  Uiso   1.00
H536   H     0.08703   0.74187   0.92459   0.00000  Uiso   1.00
H537   H     0.10537   0.97696   0.12675   0.00000  Uiso   1.00
H538   H     0.03793   0.96624   0.21347   0.00000  Uiso   1.00
H539   H     0.20584   0.02041   0.14168   0.00000  Uiso   1.00
H540   H     0.06719   0.96108   0.02388   0.00000  Uiso   1.00
H541   H     0.97137   0.92782   0.31156   0.00000  Uiso   1.00
H542   H     0.32542   0.04205   0.16017   0.00000  Uiso   1.00
H543   H     0.03303   0.91694   0.91177   0.00000  Uiso   1.00
O544   O     0.95515   0.82955   0.37530   0.00000  Uiso   1.00
O545   O     0.41965   0.97940   0.17667   0.00000  Uiso   1.00
O546   O     0.03604   0.81527   0.85077   0.00000  Uiso   1.00
N547   N     0.02190   0.79542   0.30946   0.00000  Uiso   1.00
N548   N     0.35292   0.90222   0.16793   0.00000  Uiso   1.00
N549   N     0.07957   0.78525   0.93569   0.00000  Uiso   1.00
N550   N     0.99285   0.88963   0.30256   0.00000  Uiso   1.00
N551   N     0.32386   0.99642   0.16103   0.00000  Uiso   1.00
N552   N     0.05052   0.87946   0.92879   0.00000  Uiso   1.00
C553   C     0.15399   0.18067   0.86170   0.00000  Uiso   1.00
C554   C     0.11048   0.16424   0.81622   0.00000  Uiso   1.00
C555   C     0.09009   0.20290   0.77413   0.00000  Uiso   1.00
C556   C     0.05043   0.17923   0.73656   0.00000  Uiso   1.00
C557   C     0.98572   0.16286   0.66526   0.00000  Uiso   1.00
C558   C     0.20171   0.13481   0.85521   0.00000  Uiso   1.00
C559   C     0.25802   0.14872   0.84592   0.00000  Uiso   1.00
C560   C     0.29517   0.10027   0.84119   0.00000  Uiso   1.00
C561   C     0.37209   0.03820   0.83047   0.00000  Uiso   1.00
C562   C     0.12637   0.16704   0.91921   0.00000  Uiso   1.00
C563   C     0.11935   0.20806   0.96375   0.00000  Uiso   1.00
C564   C     0.09307   0.18674   0.01290   0.00000  Uiso   1.00
C565   C     0.05302   0.17473   0.10155   0.00000  Uiso   1.00
C566   C     0.11982   0.06989   0.86981   0.00000  Uiso   1.00
C567   C     0.09192   0.10407   0.82063   0.00000  Uiso   1.00
C568   C     0.05228   0.08033   0.78311   0.00000  Uiso   1.00
C569   C     0.03184   0.11894   0.74098   0.00000  Uiso   1.00
C570   C     0.18315   0.07463   0.85962   0.00000  Uiso   1.00
C571   C     0.22022   0.02615   0.85490   0.00000  Uiso   1.00
C572   C     0.27658   0.03998   0.84560   0.00000  Uiso   1.00
C573   C     0.10781   0.10687   0.92363   0.00000  Uiso   1.00
C574   C     0.08154   0.08549   0.97272   0.00000  Uiso   1.00
C575   C     0.07448   0.12646   0.01732   0.00000  Uiso   1.00
H576   H     0.16844   0.22752   0.85826   0.00000  Uiso   1.00
H577   H     0.10446   0.24946   0.77073   0.00000  Uiso   1.00
H578   H     0.27237   0.19529   0.84252   0.00000  Uiso   1.00
H579   H     0.13371   0.25462   0.96032   0.00000  Uiso   1.00
H580   H     0.02536   0.24725   0.67561   0.00000  Uiso   1.00
H581   H     0.37941   0.13302   0.82700   0.00000  Uiso   1.00
H582   H     0.08703   0.25813   0.07541   0.00000  Uiso   1.00
H583   H     0.10537   0.02304   0.87325   0.00000  Uiso   1.00
H584   H     0.03793   0.03376   0.78653   0.00000  Uiso   1.00
H585   H     0.20584   0.97959   0.85832   0.00000  Uiso   1.00
H586   H     0.06719   0.03892   0.97612   0.00000  Uiso   1.00
H587   H     0.97137   0.07218   0.68844   0.00000  Uiso   1.00
H588   H     0.32542   0.95795   0.83983   0.00000  Uiso   1.00
H589   H     0.03303   0.08306   0.08823   0.00000  Uiso   1.00
O590   O     0.95515   0.17045   0.62470   0.00000  Uiso   1.00
O591   O     0.41965   0.02060   0.82333   0.00000  Uiso   1.00
O592   O     0.03604   0.18473   0.14923   0.00000  Uiso   1.00
N593   N     0.02190   0.20458   0.69054   0.00000  Uiso   1.00
N594   N     0.35292   0.09778   0.83207   0.00000  Uiso   1.00
N595   N     0.07957   0.21475   0.06431   0.00000  Uiso   1.00
N596   N     0.99285   0.11037   0.69744   0.00000  Uiso   1.00
N597   N     0.32386   0.00358   0.83897   0.00000  Uiso   1.00
N598   N     0.05052   0.12054   0.07121   0.00000  Uiso   1.00
C599   C     0.65399   0.68067   0.86170   0.00000  Uiso   1.00
C600   C     0.61048   0.66424   0.81622   0.00000  Uiso   1.00
C601   C     0.59009   0.70290   0.77413   0.00000  Uiso   1.00
C602   C     0.55043   0.67923   0.73656   0.00000  Uiso   1.00
C603   C     0.48572   0.66286   0.66526   0.00000  Uiso   1.00
C604   C     0.70171   0.63481   0.85521   0.00000  Uiso   1.00
C605   C     0.75802   0.64872   0.84592   0.00000  Uiso   1.00
C606   C     0.79517   0.60027   0.84119   0.00000  Uiso   1.00
C607   C     0.87209   0.53820   0.83047   0.00000  Uiso   1.00
C608   C     0.62637   0.66704   0.91921   0.00000  Uiso   1.00
C609   C     0.61935   0.70806   0.96375   0.00000  Uiso   1.00
C610   C     0.59307   0.68674   0.01290   0.00000  Uiso   1.00
C611   C     0.55302   0.67473   0.10155   0.00000  Uiso   1.00
C612   C     0.61982   0.56989   0.86981   0.00000  Uiso   1.00
C613   C     0.59192   0.60407   0.82063   0.00000  Uiso   1.00
C614   C     0.55228   0.58033   0.78311   0.00000  Uiso   1.00
C615   C     0.53184   0.61894   0.74098   0.00000  Uiso   1.00
C616   C     0.68315   0.57463   0.85962   0.00000  Uiso   1.00
C617   C     0.72022   0.52615   0.85490   0.00000  Uiso   1.00
C618   C     0.77658   0.53998   0.84560   0.00000  Uiso   1.00
C619   C     0.60781   0.60687   0.92363   0.00000  Uiso   1.00
C620   C     0.58154   0.58549   0.97272   0.00000  Uiso   1.00
C621   C     0.57448   0.62646   0.01732   0.00000  Uiso   1.00
H622   H     0.66844   0.72752   0.85826   0.00000  Uiso   1.00
H623   H     0.60446   0.74946   0.77073   0.00000  Uiso   1.00
H624   H     0.77237   0.69529   0.84252   0.00000  Uiso   1.00
H625   H     0.63371   0.75462   0.96032   0.00000  Uiso   1.00
H626   H     0.52536   0.74725   0.67561   0.00000  Uiso   1.00
H627   H     0.87941   0.63302   0.82700   0.00000  Uiso   1.00
H628   H     0.58703   0.75813   0.07541   0.00000  Uiso   1.00
H629   H     0.60537   0.52304   0.87325   0.00000  Uiso   1.00
H630   H     0.53793   0.53376   0.78653   0.00000  Uiso   1.00
H631   H     0.70584   0.47959   0.85832   0.00000  Uiso   1.00
H632   H     0.56719   0.53892   0.97612   0.00000  Uiso   1.00
H633   H     0.47137   0.57218   0.68844   0.00000  Uiso   1.00
H634   H     0.82542   0.45795   0.83983   0.00000  Uiso   1.00
H635   H     0.53303   0.58306   0.08823   0.00000  Uiso   1.00
O636   O     0.45515   0.67045   0.62470   0.00000  Uiso   1.00
O637   O     0.91965   0.52060   0.82333   0.00000  Uiso   1.00
O638   O     0.53604   0.68473   0.14923   0.00000  Uiso   1.00
N639   N     0.52190   0.70458   0.69054   0.00000  Uiso   1.00
N640   N     0.85292   0.59778   0.83207   0.00000  Uiso   1.00
N641   N     0.57957   0.71475   0.06431   0.00000  Uiso   1.00
N642   N     0.49285   0.61037   0.69744   0.00000  Uiso   1.00
N643   N     0.82386   0.50358   0.83897   0.00000  Uiso   1.00
N644   N     0.55052   0.62054   0.07121   0.00000  Uiso   1.00
C645   C     0.34601   0.31933   0.86170   0.00000  Uiso   1.00
C646   C     0.38952   0.33576   0.81622   0.00000  Uiso   1.00
C647   C     0.40991   0.29710   0.77413   0.00000  Uiso   1.00
C648   C     0.44957   0.32077   0.73656   0.00000  Uiso   1.00
C649   C     0.51428   0.33714   0.66526   0.00000  Uiso   1.00
C650   C     0.29829   0.36519   0.85521   0.00000  Uiso   1.00
C651   C     0.24198   0.35128   0.84592   0.00000  Uiso   1.00
C652   C     0.20483   0.39973   0.84119   0.00000  Uiso   1.00
C653   C     0.12791   0.46180   0.83047   0.00000  Uiso   1.00
C654   C     0.37363   0.33296   0.91921   0.00000  Uiso   1.00
C655   C     0.38065   0.29194   0.96375   0.00000  Uiso   1.00
C656   C     0.40693   0.31326   0.01290   0.00000  Uiso   1.00
C657   C     0.44698   0.32527   0.10155   0.00000  Uiso   1.00
C658   C     0.38018   0.43011   0.86981   0.00000  Uiso   1.00
C659   C     0.40808   0.39593   0.82063   0.00000  Uiso   1.00
C660   C     0.44772   0.41967   0.78311   0.00000  Uiso   1.00
C661   C     0.46816   0.38106   0.74098   0.00000  Uiso   1.00
C662   C     0.31685   0.42537   0.85962   0.00000  Uiso   1.00
C663   C     0.27978   0.47385   0.85490   0.00000  Uiso   1.00
C664   C     0.22342   0.46002   0.84560   0.00000  Uiso   1.00
C665   C     0.39219   0.39313   0.92363   0.00000  Uiso   1.00
C666   C     0.41846   0.41451   0.97272   0.00000  Uiso   1.00
C667   C     0.42552   0.37354   0.01732   0.00000  Uiso   1.00
H668   H     0.33156   0.27248   0.85826   0.00000  Uiso   1.00
H669   H     0.39554   0.25054   0.77073   0.00000  Uiso   1.00
H670   H     0.22763   0.30471   0.84252   0.00000  Uiso   1.00
H671   H     0.36629   0.24538   0.96032   0.00000  Uiso   1.00
H672   H     0.47464   0.25275   0.67561   0.00000  Uiso   1.00
H673   H     0.12059   0.36698   0.82700   0.00000  Uiso   1.00
H674   H     0.41297   0.24187   0.07541   0.00000  Uiso   1.00
H675   H     0.39463   0.47696   0.87325   0.00000  Uiso   1.00
H676   H     0.46207   0.46624   0.78653   0.00000  Uiso   1.00
H677   H     0.29416   0.52041   0.85832   0.00000  Uiso   1.00
H678   H     0.43281   0.46108   0.97612   0.00000  Uiso   1.00
H679   H     0.52863   0.42782   0.68844   0.00000  Uiso   1.00
H680   H     0.17458   0.54205   0.83983   0.00000  Uiso   1.00
H681   H     0.46697   0.41694   0.08823   0.00000  Uiso   1.00
O682   O     0.54485   0.32955   0.62470   0.00000  Uiso   1.00
O683   O     0.08035   0.47940   0.82333   0.00000  Uiso   1.00
O684   O     0.46396   0.31527   0.14923   0.00000  Uiso   1.00
N685   N     0.47810   0.29542   0.69054   0.00000  Uiso   1.00
N686   N     0.14708   0.40222   0.83207   0.00000  Uiso   1.00
N687   N     0.42043   0.28525   0.06431   0.00000  Uiso   1.00
N688   N     0.50715   0.38963   0.69744   0.00000  Uiso   1.00
N689   N     0.17614   0.49642   0.83897   0.00000  Uiso   1.00
N690   N     0.44948   0.37946   0.07121   0.00000  Uiso   1.00
C691   C     0.84601   0.81933   0.86170   0.00000  Uiso   1.00
C692   C     0.88952   0.83576   0.81622   0.00000  Uiso   1.00
C693   C     0.90991   0.79710   0.77413   0.00000  Uiso   1.00
C694   C     0.94957   0.82077   0.73656   0.00000  Uiso   1.00
C695   C     0.01428   0.83714   0.66526   0.00000  Uiso   1.00
C696   C     0.79829   0.86519   0.85521   0.00000  Uiso   1.00
C697   C     0.74198   0.85128   0.84592   0.00000  Uiso   1.00
C698   C     0.70483   0.89973   0.84119   0.00000  Uiso   1.00
C699   C     0.62791   0.96180   0.83047   0.00000  Uiso   1.00
C700   C     0.87363   0.83296   0.91921   0.00000  Uiso   1.00
C701   C     0.88065   0.79194   0.96375   0.00000  Uiso   1.00
C702   C     0.90693   0.81326   0.01290   0.00000  Uiso   1.00
C703   C     0.94698   0.82527   0.10155   0.00000  Uiso   1.00
C704   C     0.88018   0.93011   0.86981   0.00000  Uiso   1.00
C705   C     0.90808   0.89593   0.82063   0.00000  Uiso   1.00
C706   C     0.94772   0.91967   0.78311   0.00000  Uiso   1.00
C707   C     0.96816   0.88106   0.74098   0.00000  Uiso   1.00
C708   C     0.81685   0.92537   0.85962   0.00000  Uiso   1.00
C709   C     0.77978   0.97385   0.85490   0.00000  Uiso   1.00
C710   C     0.72342   0.96002   0.84560   0.00000  Uiso   1.00
C711   C     0.89219   0.89313   0.92363   0.00000  Uiso   1.00
C712   C     0.91846   0.91451   0.97272   0.00000  Uiso   1.00
C713   C     0.92552   0.87354   0.01732   0.00000  Uiso   1.00
H714   H     0.83156   0.77248   0.85826   0.00000  Uiso   1.00
H715   H     0.89554   0.75054   0.77073   0.00000  Uiso   1.00
H716   H     0.72763   0.80471   0.84252   0.00000  Uiso   1.00
H717   H     0.86629   0.74538   0.96032   0.00000  Uiso   1.00
H718   H     0.97464   0.75275   0.67561   0.00000  Uiso   1.00
H719   H     0.62059   0.86698   0.82700   0.00000  Uiso   1.00
H720   H     0.91297   0.74187   0.07541   0.00000  Uiso   1.00
H721   H     0.89463   0.97696   0.87325   0.00000  Uiso   1.00
H722   H     0.96207   0.96624   0.78653   0.00000  Uiso   1.00
H723   H     0.79416   0.02041   0.85832   0.00000  Uiso   1.00
H724   H     0.93281   0.96108   0.97612   0.00000  Uiso   1.00
H725   H     0.02863   0.92782   0.68844   0.00000  Uiso   1.00
H726   H     0.67458   0.04205   0.83983   0.00000  Uiso   1.00
H727   H     0.96697   0.91694   0.08823   0.00000  Uiso   1.00
O728   O     0.04485   0.82955   0.62470   0.00000  Uiso   1.00
O729   O     0.58035   0.97940   0.82333   0.00000  Uiso   1.00
O730   O     0.96396   0.81527   0.14923   0.00000  Uiso   1.00
N731   N     0.97810   0.79542   0.69054   0.00000  Uiso   1.00
N732   N     0.64708   0.90222   0.83207   0.00000  Uiso   1.00
N733   N     0.92043   0.78525   0.06431   0.00000  Uiso   1.00
N734   N     0.00715   0.88963   0.69744   0.00000  Uiso   1.00
N735   N     0.67614   0.99642   0.83897   0.00000  Uiso   1.00
N736   N     0.94948   0.87946   0.07121   0.00000  Uiso   1.00
