data_job_04984
_audit_creation_date              2018-12-19
_audit_creation_method            'Materials Studio'
_symmetry_space_group_name_H-M    'P1'
_symmetry_Int_Tables_number       1
_symmetry_cell_setting            triclinic
loop_
_symmetry_equiv_pos_as_xyz
  x,y,z
_cell_length_a                    16.3250
_cell_length_b                    16.3250
_cell_length_c                    38.9644
_cell_angle_alpha                 90.0000
_cell_angle_beta                  90.0000
_cell_angle_gamma                 90.0000
loop_
_atom_site_label
_atom_site_type_symbol
_atom_site_fract_x
_atom_site_fract_y
_atom_site_fract_z
_atom_site_U_iso_or_equiv
_atom_site_adp_type
_atom_site_occupancy
C1     C     0.27041   0.79843   0.19995   0.00000  Uiso   1.00
C2     C     0.18428   0.76586   0.19338   0.00000  Uiso   1.00
C3     C     0.16396   0.68486   0.18673   0.00000  Uiso   1.00
C4     C     0.08168   0.66749   0.18140   0.00000  Uiso   1.00
C5     C     0.95703   0.60757   0.17098   0.00000  Uiso   1.00
C6     C     0.28451   0.86563   0.17342   0.00000  Uiso   1.00
C7     C     0.34848   0.86852   0.14999   0.00000  Uiso   1.00
C8     C     0.35058   0.93515   0.12786   0.00000  Uiso   1.00
C9     C     0.38158   0.03015   0.08647   0.00000  Uiso   1.00
C10    C     0.26707   0.84137   0.23468   0.00000  Uiso   1.00
C11    C     0.31637   0.82388   0.26275   0.00000  Uiso   1.00
C12    C     0.30380   0.87011   0.29220   0.00000  Uiso   1.00
C13    C     0.30772   0.92746   0.34592   0.00000  Uiso   1.00
C14    C     0.16042   0.91163   0.20232   0.00000  Uiso   1.00
C15    C     0.12454   0.82735   0.19467   0.00000  Uiso   1.00
C16    C     0.04227   0.81010   0.18935   0.00000  Uiso   1.00
C17    C     0.02183   0.72909   0.18269   0.00000  Uiso   1.00
C18    C     0.22478   0.92711   0.17471   0.00000  Uiso   1.00
C19    C     0.22679   0.99376   0.15261   0.00000  Uiso   1.00
C20    C     0.29073   0.99674   0.12915   0.00000  Uiso   1.00
C21    C     0.20732   0.90286   0.23597   0.00000  Uiso   1.00
C22    C     0.19468   0.94913   0.26537   0.00000  Uiso   1.00
C23    C     0.24396   0.93171   0.29348   0.00000  Uiso   1.00
H24    H     0.31692   0.75056   0.19895   0.00000  Uiso   1.00
H25    H     0.21021   0.63729   0.18573   0.00000  Uiso   1.00
H26    H     0.39470   0.82093   0.14900   0.00000  Uiso   1.00
H27    H     0.36260   0.77630   0.26175   0.00000  Uiso   1.00
H28    H     0.06555   0.53883   0.17163   0.00000  Uiso   1.00
H29    H     0.45458   0.92605   0.09419   0.00000  Uiso   1.00
H30    H     0.38689   0.83195   0.33194   0.00000  Uiso   1.00
H31    H     0.11391   0.95950   0.20332   0.00000  Uiso   1.00
H32    H     0.99605   0.85770   0.19034   0.00000  Uiso   1.00
H33    H     0.18055   0.04133   0.15361   0.00000  Uiso   1.00
H34    H     0.14845   0.99670   0.26636   0.00000  Uiso   1.00
H35    H     0.89174   0.71772   0.17537   0.00000  Uiso   1.00
H36    H     0.28078   0.10494   0.09793   0.00000  Uiso   1.00
H37    H     0.21308   0.01084   0.33568   0.00000  Uiso   1.00
O38    O     0.90478   0.55754   0.16487   0.00000  Uiso   1.00
O39    O     0.41519   0.06556   0.06328   0.00000  Uiso   1.00
O40    O     0.32637   0.94209   0.37520   0.00000  Uiso   1.00
N41    N     0.04082   0.59490   0.17430   0.00000  Uiso   1.00
N42    N     0.40453   0.95692   0.10189   0.00000  Uiso   1.00
N43    N     0.34126   0.86896   0.32416   0.00000  Uiso   1.00
N44    N     0.94729   0.69116   0.17631   0.00000  Uiso   1.00
N45    N     0.31101   0.05318   0.10391   0.00000  Uiso   1.00
N46    N     0.24773   0.96522   0.32618   0.00000  Uiso   1.00
C47    C     0.77041   0.29843   0.69995   0.00000  Uiso   1.00
C48    C     0.68428   0.26586   0.69338   0.00000  Uiso   1.00
C49    C     0.66396   0.18486   0.68673   0.00000  Uiso   1.00
C50    C     0.58168   0.16749   0.68140   0.00000  Uiso   1.00
C51    C     0.45703   0.10757   0.67098   0.00000  Uiso   1.00
C52    C     0.78451   0.36563   0.67342   0.00000  Uiso   1.00
C53    C     0.84848   0.36852   0.64999   0.00000  Uiso   1.00
C54    C     0.85058   0.43515   0.62786   0.00000  Uiso   1.00
C55    C     0.88158   0.53015   0.58647   0.00000  Uiso   1.00
C56    C     0.76707   0.34137   0.73468   0.00000  Uiso   1.00
C57    C     0.81637   0.32388   0.76275   0.00000  Uiso   1.00
C58    C     0.80380   0.37011   0.79220   0.00000  Uiso   1.00
C59    C     0.80772   0.42746   0.84592   0.00000  Uiso   1.00
C60    C     0.66042   0.41163   0.70232   0.00000  Uiso   1.00
C61    C     0.62454   0.32735   0.69467   0.00000  Uiso   1.00
C62    C     0.54227   0.31010   0.68935   0.00000  Uiso   1.00
C63    C     0.52183   0.22909   0.68269   0.00000  Uiso   1.00
C64    C     0.72478   0.42711   0.67471   0.00000  Uiso   1.00
C65    C     0.72679   0.49376   0.65261   0.00000  Uiso   1.00
C66    C     0.79073   0.49674   0.62915   0.00000  Uiso   1.00
C67    C     0.70732   0.40286   0.73597   0.00000  Uiso   1.00
C68    C     0.69468   0.44913   0.76537   0.00000  Uiso   1.00
C69    C     0.74396   0.43171   0.79348   0.00000  Uiso   1.00
H70    H     0.81692   0.25056   0.69895   0.00000  Uiso   1.00
H71    H     0.71021   0.13729   0.68573   0.00000  Uiso   1.00
H72    H     0.89470   0.32093   0.64900   0.00000  Uiso   1.00
H73    H     0.86260   0.27630   0.76175   0.00000  Uiso   1.00
H74    H     0.56555   0.03883   0.67163   0.00000  Uiso   1.00
H75    H     0.95458   0.42605   0.59419   0.00000  Uiso   1.00
H76    H     0.88689   0.33195   0.83194   0.00000  Uiso   1.00
H77    H     0.61391   0.45950   0.70332   0.00000  Uiso   1.00
H78    H     0.49605   0.35770   0.69034   0.00000  Uiso   1.00
H79    H     0.68055   0.54133   0.65361   0.00000  Uiso   1.00
H80    H     0.64845   0.49670   0.76636   0.00000  Uiso   1.00
H81    H     0.39174   0.21772   0.67537   0.00000  Uiso   1.00
H82    H     0.78078   0.60494   0.59793   0.00000  Uiso   1.00
H83    H     0.71308   0.51084   0.83568   0.00000  Uiso   1.00
O84    O     0.40478   0.05754   0.66487   0.00000  Uiso   1.00
O85    O     0.91519   0.56556   0.56328   0.00000  Uiso   1.00
O86    O     0.82637   0.44209   0.87520   0.00000  Uiso   1.00
N87    N     0.54082   0.09490   0.67430   0.00000  Uiso   1.00
N88    N     0.90453   0.45692   0.60189   0.00000  Uiso   1.00
N89    N     0.84126   0.36896   0.82416   0.00000  Uiso   1.00
N90    N     0.44729   0.19116   0.67631   0.00000  Uiso   1.00
N91    N     0.81101   0.55318   0.60391   0.00000  Uiso   1.00
N92    N     0.74773   0.46522   0.82618   0.00000  Uiso   1.00
C93    C     0.22959   0.70157   0.69995   0.00000  Uiso   1.00
C94    C     0.31572   0.73414   0.69338   0.00000  Uiso   1.00
C95    C     0.33604   0.81514   0.68673   0.00000  Uiso   1.00
C96    C     0.41832   0.83251   0.68140   0.00000  Uiso   1.00
C97    C     0.54297   0.89243   0.67098   0.00000  Uiso   1.00
C98    C     0.21549   0.63437   0.67342   0.00000  Uiso   1.00
C99    C     0.15152   0.63148   0.64999   0.00000  Uiso   1.00
C100   C     0.14942   0.56485   0.62786   0.00000  Uiso   1.00
C101   C     0.11842   0.46985   0.58647   0.00000  Uiso   1.00
C102   C     0.23293   0.65863   0.73468   0.00000  Uiso   1.00
C103   C     0.18363   0.67612   0.76275   0.00000  Uiso   1.00
C104   C     0.19620   0.62989   0.79220   0.00000  Uiso   1.00
C105   C     0.19228   0.57254   0.84592   0.00000  Uiso   1.00
C106   C     0.33958   0.58837   0.70232   0.00000  Uiso   1.00
C107   C     0.37546   0.67265   0.69467   0.00000  Uiso   1.00
C108   C     0.45773   0.68990   0.68935   0.00000  Uiso   1.00
C109   C     0.47817   0.77091   0.68269   0.00000  Uiso   1.00
C110   C     0.27522   0.57289   0.67471   0.00000  Uiso   1.00
C111   C     0.27321   0.50624   0.65261   0.00000  Uiso   1.00
C112   C     0.20927   0.50326   0.62915   0.00000  Uiso   1.00
C113   C     0.29268   0.59714   0.73597   0.00000  Uiso   1.00
C114   C     0.30532   0.55087   0.76537   0.00000  Uiso   1.00
C115   C     0.25604   0.56829   0.79348   0.00000  Uiso   1.00
H116   H     0.18308   0.74944   0.69895   0.00000  Uiso   1.00
H117   H     0.28979   0.86271   0.68573   0.00000  Uiso   1.00
H118   H     0.10530   0.67907   0.64900   0.00000  Uiso   1.00
H119   H     0.13740   0.72370   0.76175   0.00000  Uiso   1.00
H120   H     0.43445   0.96117   0.67163   0.00000  Uiso   1.00
H121   H     0.04542   0.57395   0.59419   0.00000  Uiso   1.00
H122   H     0.11311   0.66805   0.83194   0.00000  Uiso   1.00
H123   H     0.38609   0.54050   0.70332   0.00000  Uiso   1.00
H124   H     0.50395   0.64230   0.69034   0.00000  Uiso   1.00
H125   H     0.31945   0.45867   0.65361   0.00000  Uiso   1.00
H126   H     0.35155   0.50330   0.76636   0.00000  Uiso   1.00
H127   H     0.60826   0.78228   0.67537   0.00000  Uiso   1.00
H128   H     0.21922   0.39506   0.59793   0.00000  Uiso   1.00
H129   H     0.28692   0.48916   0.83568   0.00000  Uiso   1.00
O130   O     0.59522   0.94246   0.66487   0.00000  Uiso   1.00
O131   O     0.08481   0.43444   0.56328   0.00000  Uiso   1.00
O132   O     0.17363   0.55791   0.87520   0.00000  Uiso   1.00
N133   N     0.45918   0.90510   0.67430   0.00000  Uiso   1.00
N134   N     0.09547   0.54308   0.60189   0.00000  Uiso   1.00
N135   N     0.15874   0.63104   0.82416   0.00000  Uiso   1.00
N136   N     0.55271   0.80884   0.67631   0.00000  Uiso   1.00
N137   N     0.18899   0.44682   0.60391   0.00000  Uiso   1.00
N138   N     0.25227   0.53478   0.82618   0.00000  Uiso   1.00
C139   C     0.72959   0.20157   0.19995   0.00000  Uiso   1.00
C140   C     0.81572   0.23414   0.19338   0.00000  Uiso   1.00
C141   C     0.83604   0.31514   0.18673   0.00000  Uiso   1.00
C142   C     0.91832   0.33251   0.18140   0.00000  Uiso   1.00
C143   C     0.04297   0.39243   0.17098   0.00000  Uiso   1.00
C144   C     0.71549   0.13437   0.17342   0.00000  Uiso   1.00
C145   C     0.65152   0.13148   0.14999   0.00000  Uiso   1.00
C146   C     0.64942   0.06485   0.12786   0.00000  Uiso   1.00
C147   C     0.61842   0.96985   0.08647   0.00000  Uiso   1.00
C148   C     0.73293   0.15863   0.23468   0.00000  Uiso   1.00
C149   C     0.68363   0.17612   0.26275   0.00000  Uiso   1.00
C150   C     0.69620   0.12989   0.29220   0.00000  Uiso   1.00
C151   C     0.69228   0.07254   0.34592   0.00000  Uiso   1.00
C152   C     0.83958   0.08837   0.20232   0.00000  Uiso   1.00
C153   C     0.87546   0.17265   0.19467   0.00000  Uiso   1.00
C154   C     0.95773   0.18990   0.18935   0.00000  Uiso   1.00
C155   C     0.97817   0.27091   0.18269   0.00000  Uiso   1.00
C156   C     0.77522   0.07289   0.17471   0.00000  Uiso   1.00
C157   C     0.77321   0.00624   0.15261   0.00000  Uiso   1.00
C158   C     0.70927   0.00326   0.12915   0.00000  Uiso   1.00
C159   C     0.79268   0.09714   0.23597   0.00000  Uiso   1.00
C160   C     0.80532   0.05087   0.26537   0.00000  Uiso   1.00
C161   C     0.75604   0.06829   0.29348   0.00000  Uiso   1.00
H162   H     0.68308   0.24944   0.19895   0.00000  Uiso   1.00
H163   H     0.78979   0.36271   0.18573   0.00000  Uiso   1.00
H164   H     0.60530   0.17907   0.14900   0.00000  Uiso   1.00
H165   H     0.63740   0.22370   0.26175   0.00000  Uiso   1.00
H166   H     0.93445   0.46117   0.17163   0.00000  Uiso   1.00
H167   H     0.54542   0.07395   0.09419   0.00000  Uiso   1.00
H168   H     0.61311   0.16805   0.33194   0.00000  Uiso   1.00
H169   H     0.88609   0.04050   0.20332   0.00000  Uiso   1.00
H170   H     0.00395   0.14230   0.19034   0.00000  Uiso   1.00
H171   H     0.81945   0.95867   0.15361   0.00000  Uiso   1.00
H172   H     0.85155   0.00330   0.26636   0.00000  Uiso   1.00
H173   H     0.10826   0.28228   0.17537   0.00000  Uiso   1.00
H174   H     0.71922   0.89506   0.09793   0.00000  Uiso   1.00
H175   H     0.78692   0.98916   0.33568   0.00000  Uiso   1.00
O176   O     0.09522   0.44246   0.16487   0.00000  Uiso   1.00
O177   O     0.58481   0.93444   0.06328   0.00000  Uiso   1.00
O178   O     0.67363   0.05791   0.37520   0.00000  Uiso   1.00
N179   N     0.95918   0.40510   0.17430   0.00000  Uiso   1.00
N180   N     0.59547   0.04308   0.10189   0.00000  Uiso   1.00
N181   N     0.65874   0.13104   0.32416   0.00000  Uiso   1.00
N182   N     0.05271   0.30884   0.17631   0.00000  Uiso   1.00
N183   N     0.68899   0.94682   0.10391   0.00000  Uiso   1.00
N184   N     0.75227   0.03478   0.32618   0.00000  Uiso   1.00
C185   C     0.20157   0.77041   0.44995   0.00000  Uiso   1.00
C186   C     0.23414   0.68428   0.44338   0.00000  Uiso   1.00
C187   C     0.31514   0.66396   0.43673   0.00000  Uiso   1.00
C188   C     0.33251   0.58168   0.43140   0.00000  Uiso   1.00
C189   C     0.39243   0.45703   0.42098   0.00000  Uiso   1.00
C190   C     0.13437   0.78451   0.42342   0.00000  Uiso   1.00
C191   C     0.13148   0.84848   0.39999   0.00000  Uiso   1.00
C192   C     0.06485   0.85058   0.37786   0.00000  Uiso   1.00
C193   C     0.96985   0.88158   0.33647   0.00000  Uiso   1.00
C194   C     0.15863   0.76707   0.48468   0.00000  Uiso   1.00
C195   C     0.17612   0.81637   0.51275   0.00000  Uiso   1.00
C196   C     0.12989   0.80380   0.54220   0.00000  Uiso   1.00
C197   C     0.07254   0.80772   0.59592   0.00000  Uiso   1.00
C198   C     0.08837   0.66042   0.45232   0.00000  Uiso   1.00
C199   C     0.17265   0.62454   0.44467   0.00000  Uiso   1.00
C200   C     0.18990   0.54227   0.43935   0.00000  Uiso   1.00
C201   C     0.27091   0.52183   0.43269   0.00000  Uiso   1.00
C202   C     0.07289   0.72478   0.42471   0.00000  Uiso   1.00
C203   C     0.00624   0.72679   0.40261   0.00000  Uiso   1.00
C204   C     0.00326   0.79073   0.37915   0.00000  Uiso   1.00
C205   C     0.09714   0.70732   0.48597   0.00000  Uiso   1.00
C206   C     0.05087   0.69468   0.51537   0.00000  Uiso   1.00
C207   C     0.06829   0.74396   0.54348   0.00000  Uiso   1.00
H208   H     0.24944   0.81692   0.44895   0.00000  Uiso   1.00
H209   H     0.36271   0.71021   0.43573   0.00000  Uiso   1.00
H210   H     0.17907   0.89470   0.39900   0.00000  Uiso   1.00
H211   H     0.22370   0.86260   0.51175   0.00000  Uiso   1.00
H212   H     0.46117   0.56555   0.42163   0.00000  Uiso   1.00
H213   H     0.07395   0.95458   0.34419   0.00000  Uiso   1.00
H214   H     0.16805   0.88689   0.58194   0.00000  Uiso   1.00
H215   H     0.04050   0.61391   0.45332   0.00000  Uiso   1.00
H216   H     0.14230   0.49605   0.44034   0.00000  Uiso   1.00
H217   H     0.95867   0.68055   0.40361   0.00000  Uiso   1.00
H218   H     0.00330   0.64845   0.51636   0.00000  Uiso   1.00
H219   H     0.28228   0.39174   0.42537   0.00000  Uiso   1.00
H220   H     0.89506   0.78078   0.34793   0.00000  Uiso   1.00
H221   H     0.98916   0.71308   0.58568   0.00000  Uiso   1.00
O222   O     0.44246   0.40478   0.41487   0.00000  Uiso   1.00
O223   O     0.93444   0.91519   0.31328   0.00000  Uiso   1.00
O224   O     0.05791   0.82637   0.62520   0.00000  Uiso   1.00
N225   N     0.40510   0.54082   0.42430   0.00000  Uiso   1.00
N226   N     0.04308   0.90453   0.35189   0.00000  Uiso   1.00
N227   N     0.13104   0.84126   0.57416   0.00000  Uiso   1.00
N228   N     0.30884   0.44729   0.42631   0.00000  Uiso   1.00
N229   N     0.94682   0.81101   0.35391   0.00000  Uiso   1.00
N230   N     0.03478   0.74773   0.57618   0.00000  Uiso   1.00
C231   C     0.70157   0.27041   0.94995   0.00000  Uiso   1.00
C232   C     0.73414   0.18428   0.94338   0.00000  Uiso   1.00
C233   C     0.81514   0.16396   0.93673   0.00000  Uiso   1.00
C234   C     0.83251   0.08168   0.93140   0.00000  Uiso   1.00
C235   C     0.89243   0.95703   0.92098   0.00000  Uiso   1.00
C236   C     0.63437   0.28451   0.92342   0.00000  Uiso   1.00
C237   C     0.63148   0.34848   0.89999   0.00000  Uiso   1.00
C238   C     0.56485   0.35058   0.87786   0.00000  Uiso   1.00
C239   C     0.46985   0.38158   0.83647   0.00000  Uiso   1.00
C240   C     0.65863   0.26707   0.98468   0.00000  Uiso   1.00
C241   C     0.67612   0.31637   0.01275   0.00000  Uiso   1.00
C242   C     0.62989   0.30380   0.04220   0.00000  Uiso   1.00
C243   C     0.57254   0.30772   0.09592   0.00000  Uiso   1.00
C244   C     0.58837   0.16042   0.95232   0.00000  Uiso   1.00
C245   C     0.67265   0.12454   0.94467   0.00000  Uiso   1.00
C246   C     0.68990   0.04227   0.93935   0.00000  Uiso   1.00
C247   C     0.77091   0.02183   0.93269   0.00000  Uiso   1.00
C248   C     0.57289   0.22478   0.92471   0.00000  Uiso   1.00
C249   C     0.50624   0.22679   0.90261   0.00000  Uiso   1.00
C250   C     0.50326   0.29073   0.87915   0.00000  Uiso   1.00
C251   C     0.59714   0.20732   0.98597   0.00000  Uiso   1.00
C252   C     0.55087   0.19468   0.01537   0.00000  Uiso   1.00
C253   C     0.56829   0.24396   0.04348   0.00000  Uiso   1.00
H254   H     0.74944   0.31692   0.94895   0.00000  Uiso   1.00
H255   H     0.86271   0.21021   0.93573   0.00000  Uiso   1.00
H256   H     0.67907   0.39470   0.89900   0.00000  Uiso   1.00
H257   H     0.72370   0.36260   0.01175   0.00000  Uiso   1.00
H258   H     0.96117   0.06555   0.92163   0.00000  Uiso   1.00
H259   H     0.57395   0.45458   0.84419   0.00000  Uiso   1.00
H260   H     0.66805   0.38689   0.08194   0.00000  Uiso   1.00
H261   H     0.54050   0.11391   0.95332   0.00000  Uiso   1.00
H262   H     0.64230   0.99605   0.94034   0.00000  Uiso   1.00
H263   H     0.45867   0.18055   0.90361   0.00000  Uiso   1.00
H264   H     0.50330   0.14845   0.01636   0.00000  Uiso   1.00
H265   H     0.78228   0.89174   0.92537   0.00000  Uiso   1.00
H266   H     0.39506   0.28078   0.84793   0.00000  Uiso   1.00
H267   H     0.48916   0.21308   0.08568   0.00000  Uiso   1.00
O268   O     0.94246   0.90478   0.91487   0.00000  Uiso   1.00
O269   O     0.43444   0.41519   0.81328   0.00000  Uiso   1.00
O270   O     0.55791   0.32637   0.12520   0.00000  Uiso   1.00
N271   N     0.90510   0.04082   0.92430   0.00000  Uiso   1.00
N272   N     0.54308   0.40453   0.85189   0.00000  Uiso   1.00
N273   N     0.63104   0.34126   0.07416   0.00000  Uiso   1.00
N274   N     0.80884   0.94729   0.92631   0.00000  Uiso   1.00
N275   N     0.44682   0.31101   0.85391   0.00000  Uiso   1.00
N276   N     0.53478   0.24773   0.07618   0.00000  Uiso   1.00
C277   C     0.29843   0.72959   0.94995   0.00000  Uiso   1.00
C278   C     0.26586   0.81572   0.94338   0.00000  Uiso   1.00
C279   C     0.18486   0.83604   0.93673   0.00000  Uiso   1.00
C280   C     0.16749   0.91832   0.93140   0.00000  Uiso   1.00
C281   C     0.10757   0.04297   0.92098   0.00000  Uiso   1.00
C282   C     0.36563   0.71549   0.92342   0.00000  Uiso   1.00
C283   C     0.36852   0.65152   0.89999   0.00000  Uiso   1.00
C284   C     0.43515   0.64942   0.87786   0.00000  Uiso   1.00
C285   C     0.53015   0.61842   0.83647   0.00000  Uiso   1.00
C286   C     0.34137   0.73293   0.98468   0.00000  Uiso   1.00
C287   C     0.32388   0.68363   0.01275   0.00000  Uiso   1.00
C288   C     0.37011   0.69620   0.04220   0.00000  Uiso   1.00
C289   C     0.42746   0.69228   0.09592   0.00000  Uiso   1.00
C290   C     0.41163   0.83958   0.95232   0.00000  Uiso   1.00
C291   C     0.32735   0.87546   0.94467   0.00000  Uiso   1.00
C292   C     0.31010   0.95773   0.93935   0.00000  Uiso   1.00
C293   C     0.22909   0.97817   0.93269   0.00000  Uiso   1.00
C294   C     0.42711   0.77522   0.92471   0.00000  Uiso   1.00
C295   C     0.49376   0.77321   0.90261   0.00000  Uiso   1.00
C296   C     0.49674   0.70927   0.87915   0.00000  Uiso   1.00
C297   C     0.40286   0.79268   0.98597   0.00000  Uiso   1.00
C298   C     0.44913   0.80532   0.01537   0.00000  Uiso   1.00
C299   C     0.43171   0.75604   0.04348   0.00000  Uiso   1.00
H300   H     0.25056   0.68308   0.94895   0.00000  Uiso   1.00
H301   H     0.13729   0.78979   0.93573   0.00000  Uiso   1.00
H302   H     0.32093   0.60530   0.89900   0.00000  Uiso   1.00
H303   H     0.27630   0.63740   0.01175   0.00000  Uiso   1.00
H304   H     0.03883   0.93445   0.92163   0.00000  Uiso   1.00
H305   H     0.42605   0.54542   0.84419   0.00000  Uiso   1.00
H306   H     0.33195   0.61311   0.08194   0.00000  Uiso   1.00
H307   H     0.45950   0.88609   0.95332   0.00000  Uiso   1.00
H308   H     0.35770   0.00395   0.94034   0.00000  Uiso   1.00
H309   H     0.54133   0.81945   0.90361   0.00000  Uiso   1.00
H310   H     0.49670   0.85155   0.01636   0.00000  Uiso   1.00
H311   H     0.21772   0.10826   0.92537   0.00000  Uiso   1.00
H312   H     0.60494   0.71922   0.84793   0.00000  Uiso   1.00
H313   H     0.51084   0.78692   0.08568   0.00000  Uiso   1.00
O314   O     0.05754   0.09522   0.91487   0.00000  Uiso   1.00
O315   O     0.56556   0.58481   0.81328   0.00000  Uiso   1.00
O316   O     0.44209   0.67363   0.12520   0.00000  Uiso   1.00
N317   N     0.09490   0.95918   0.92430   0.00000  Uiso   1.00
N318   N     0.45692   0.59547   0.85189   0.00000  Uiso   1.00
N319   N     0.36896   0.65874   0.07416   0.00000  Uiso   1.00
N320   N     0.19116   0.05271   0.92631   0.00000  Uiso   1.00
N321   N     0.55318   0.68899   0.85391   0.00000  Uiso   1.00
N322   N     0.46522   0.75227   0.07618   0.00000  Uiso   1.00
C323   C     0.79843   0.22959   0.44995   0.00000  Uiso   1.00
C324   C     0.76586   0.31572   0.44338   0.00000  Uiso   1.00
C325   C     0.68486   0.33604   0.43673   0.00000  Uiso   1.00
C326   C     0.66749   0.41832   0.43140   0.00000  Uiso   1.00
C327   C     0.60757   0.54297   0.42098   0.00000  Uiso   1.00
C328   C     0.86563   0.21549   0.42342   0.00000  Uiso   1.00
C329   C     0.86852   0.15152   0.39999   0.00000  Uiso   1.00
C330   C     0.93515   0.14942   0.37786   0.00000  Uiso   1.00
C331   C     0.03015   0.11842   0.33647   0.00000  Uiso   1.00
C332   C     0.84137   0.23293   0.48468   0.00000  Uiso   1.00
C333   C     0.82388   0.18363   0.51275   0.00000  Uiso   1.00
C334   C     0.87011   0.19620   0.54220   0.00000  Uiso   1.00
C335   C     0.92746   0.19228   0.59592   0.00000  Uiso   1.00
C336   C     0.91163   0.33958   0.45232   0.00000  Uiso   1.00
C337   C     0.82735   0.37546   0.44467   0.00000  Uiso   1.00
C338   C     0.81010   0.45773   0.43935   0.00000  Uiso   1.00
C339   C     0.72909   0.47817   0.43269   0.00000  Uiso   1.00
C340   C     0.92711   0.27522   0.42471   0.00000  Uiso   1.00
C341   C     0.99376   0.27321   0.40261   0.00000  Uiso   1.00
C342   C     0.99674   0.20927   0.37915   0.00000  Uiso   1.00
C343   C     0.90286   0.29268   0.48597   0.00000  Uiso   1.00
C344   C     0.94913   0.30532   0.51537   0.00000  Uiso   1.00
C345   C     0.93171   0.25604   0.54348   0.00000  Uiso   1.00
H346   H     0.75056   0.18308   0.44895   0.00000  Uiso   1.00
H347   H     0.63729   0.28979   0.43573   0.00000  Uiso   1.00
H348   H     0.82093   0.10530   0.39900   0.00000  Uiso   1.00
H349   H     0.77630   0.13740   0.51175   0.00000  Uiso   1.00
H350   H     0.53883   0.43445   0.42163   0.00000  Uiso   1.00
H351   H     0.92605   0.04542   0.34419   0.00000  Uiso   1.00
H352   H     0.83195   0.11311   0.58194   0.00000  Uiso   1.00
H353   H     0.95950   0.38609   0.45332   0.00000  Uiso   1.00
H354   H     0.85770   0.50395   0.44034   0.00000  Uiso   1.00
H355   H     0.04133   0.31945   0.40361   0.00000  Uiso   1.00
H356   H     0.99670   0.35155   0.51636   0.00000  Uiso   1.00
H357   H     0.71772   0.60826   0.42537   0.00000  Uiso   1.00
H358   H     0.10494   0.21922   0.34793   0.00000  Uiso   1.00
H359   H     0.01084   0.28692   0.58568   0.00000  Uiso   1.00
O360   O     0.55754   0.59522   0.41487   0.00000  Uiso   1.00
O361   O     0.06556   0.08481   0.31328   0.00000  Uiso   1.00
O362   O     0.94209   0.17363   0.62520   0.00000  Uiso   1.00
N363   N     0.59490   0.45918   0.42430   0.00000  Uiso   1.00
N364   N     0.95692   0.09547   0.35189   0.00000  Uiso   1.00
N365   N     0.86896   0.15874   0.57416   0.00000  Uiso   1.00
N366   N     0.69116   0.55271   0.42631   0.00000  Uiso   1.00
N367   N     0.05318   0.18899   0.35391   0.00000  Uiso   1.00
N368   N     0.96522   0.25227   0.57618   0.00000  Uiso   1.00
C369   C     0.72959   0.70157   0.05005   0.00000  Uiso   1.00
C370   C     0.81572   0.73414   0.05662   0.00000  Uiso   1.00
C371   C     0.83604   0.81514   0.06327   0.00000  Uiso   1.00
C372   C     0.91832   0.83251   0.06860   0.00000  Uiso   1.00
C373   C     0.04297   0.89243   0.07902   0.00000  Uiso   1.00
C374   C     0.71549   0.63437   0.07658   0.00000  Uiso   1.00
C375   C     0.65152   0.63148   0.10001   0.00000  Uiso   1.00
C376   C     0.64942   0.56485   0.12214   0.00000  Uiso   1.00
C377   C     0.61842   0.46985   0.16353   0.00000  Uiso   1.00
C378   C     0.73293   0.65863   0.01532   0.00000  Uiso   1.00
C379   C     0.68363   0.67612   0.98725   0.00000  Uiso   1.00
C380   C     0.69620   0.62989   0.95780   0.00000  Uiso   1.00
C381   C     0.69228   0.57254   0.90408   0.00000  Uiso   1.00
C382   C     0.83958   0.58837   0.04768   0.00000  Uiso   1.00
C383   C     0.87546   0.67265   0.05533   0.00000  Uiso   1.00
C384   C     0.95773   0.68990   0.06065   0.00000  Uiso   1.00
C385   C     0.97817   0.77091   0.06731   0.00000  Uiso   1.00
C386   C     0.77522   0.57289   0.07529   0.00000  Uiso   1.00
C387   C     0.77321   0.50624   0.09739   0.00000  Uiso   1.00
C388   C     0.70927   0.50326   0.12085   0.00000  Uiso   1.00
C389   C     0.79268   0.59714   0.01403   0.00000  Uiso   1.00
C390   C     0.80532   0.55087   0.98463   0.00000  Uiso   1.00
C391   C     0.75604   0.56829   0.95652   0.00000  Uiso   1.00
H392   H     0.68308   0.74944   0.05105   0.00000  Uiso   1.00
H393   H     0.78979   0.86271   0.06427   0.00000  Uiso   1.00
H394   H     0.60530   0.67907   0.10100   0.00000  Uiso   1.00
H395   H     0.63740   0.72370   0.98825   0.00000  Uiso   1.00
H396   H     0.93445   0.96117   0.07837   0.00000  Uiso   1.00
H397   H     0.54542   0.57395   0.15581   0.00000  Uiso   1.00
H398   H     0.61311   0.66805   0.91806   0.00000  Uiso   1.00
H399   H     0.88609   0.54050   0.04668   0.00000  Uiso   1.00
H400   H     0.00395   0.64230   0.05966   0.00000  Uiso   1.00
H401   H     0.81945   0.45867   0.09639   0.00000  Uiso   1.00
H402   H     0.85155   0.50330   0.98364   0.00000  Uiso   1.00
H403   H     0.10826   0.78228   0.07463   0.00000  Uiso   1.00
H404   H     0.71922   0.39506   0.15207   0.00000  Uiso   1.00
H405   H     0.78692   0.48916   0.91432   0.00000  Uiso   1.00
O406   O     0.09522   0.94246   0.08513   0.00000  Uiso   1.00
O407   O     0.58481   0.43444   0.18672   0.00000  Uiso   1.00
O408   O     0.67363   0.55791   0.87480   0.00000  Uiso   1.00
N409   N     0.95918   0.90510   0.07570   0.00000  Uiso   1.00
N410   N     0.59547   0.54308   0.14811   0.00000  Uiso   1.00
N411   N     0.65874   0.63104   0.92584   0.00000  Uiso   1.00
N412   N     0.05271   0.80884   0.07369   0.00000  Uiso   1.00
N413   N     0.68899   0.44682   0.14609   0.00000  Uiso   1.00
N414   N     0.75227   0.53478   0.92382   0.00000  Uiso   1.00
C415   C     0.22959   0.20157   0.55005   0.00000  Uiso   1.00
C416   C     0.31572   0.23414   0.55662   0.00000  Uiso   1.00
C417   C     0.33604   0.31514   0.56327   0.00000  Uiso   1.00
C418   C     0.41832   0.33251   0.56860   0.00000  Uiso   1.00
C419   C     0.54297   0.39243   0.57902   0.00000  Uiso   1.00
C420   C     0.21549   0.13437   0.57658   0.00000  Uiso   1.00
C421   C     0.15152   0.13148   0.60001   0.00000  Uiso   1.00
C422   C     0.14942   0.06485   0.62214   0.00000  Uiso   1.00
C423   C     0.11842   0.96985   0.66353   0.00000  Uiso   1.00
C424   C     0.23293   0.15863   0.51532   0.00000  Uiso   1.00
C425   C     0.18363   0.17612   0.48725   0.00000  Uiso   1.00
C426   C     0.19620   0.12989   0.45780   0.00000  Uiso   1.00
C427   C     0.19228   0.07254   0.40408   0.00000  Uiso   1.00
C428   C     0.33958   0.08837   0.54768   0.00000  Uiso   1.00
C429   C     0.37546   0.17265   0.55533   0.00000  Uiso   1.00
C430   C     0.45773   0.18990   0.56065   0.00000  Uiso   1.00
C431   C     0.47817   0.27091   0.56731   0.00000  Uiso   1.00
C432   C     0.27522   0.07289   0.57529   0.00000  Uiso   1.00
C433   C     0.27321   0.00624   0.59739   0.00000  Uiso   1.00
C434   C     0.20927   0.00326   0.62085   0.00000  Uiso   1.00
C435   C     0.29268   0.09714   0.51403   0.00000  Uiso   1.00
C436   C     0.30532   0.05087   0.48463   0.00000  Uiso   1.00
C437   C     0.25604   0.06829   0.45652   0.00000  Uiso   1.00
H438   H     0.18308   0.24944   0.55105   0.00000  Uiso   1.00
H439   H     0.28979   0.36271   0.56427   0.00000  Uiso   1.00
H440   H     0.10530   0.17907   0.60100   0.00000  Uiso   1.00
H441   H     0.13740   0.22370   0.48825   0.00000  Uiso   1.00
H442   H     0.43445   0.46117   0.57837   0.00000  Uiso   1.00
H443   H     0.04542   0.07395   0.65581   0.00000  Uiso   1.00
H444   H     0.11311   0.16805   0.41806   0.00000  Uiso   1.00
H445   H     0.38609   0.04050   0.54668   0.00000  Uiso   1.00
H446   H     0.50395   0.14230   0.55966   0.00000  Uiso   1.00
H447   H     0.31945   0.95867   0.59639   0.00000  Uiso   1.00
H448   H     0.35155   0.00330   0.48364   0.00000  Uiso   1.00
H449   H     0.60826   0.28228   0.57463   0.00000  Uiso   1.00
H450   H     0.21922   0.89506   0.65207   0.00000  Uiso   1.00
H451   H     0.28692   0.98916   0.41432   0.00000  Uiso   1.00
O452   O     0.59522   0.44246   0.58513   0.00000  Uiso   1.00
O453   O     0.08481   0.93444   0.68672   0.00000  Uiso   1.00
O454   O     0.17363   0.05791   0.37480   0.00000  Uiso   1.00
N455   N     0.45918   0.40510   0.57570   0.00000  Uiso   1.00
N456   N     0.09547   0.04308   0.64811   0.00000  Uiso   1.00
N457   N     0.15874   0.13104   0.42584   0.00000  Uiso   1.00
N458   N     0.55271   0.30884   0.57369   0.00000  Uiso   1.00
N459   N     0.18899   0.94682   0.64609   0.00000  Uiso   1.00
N460   N     0.25227   0.03478   0.42382   0.00000  Uiso   1.00
C461   C     0.77041   0.79843   0.55005   0.00000  Uiso   1.00
C462   C     0.68428   0.76586   0.55662   0.00000  Uiso   1.00
C463   C     0.66396   0.68486   0.56327   0.00000  Uiso   1.00
C464   C     0.58168   0.66749   0.56860   0.00000  Uiso   1.00
C465   C     0.45703   0.60757   0.57902   0.00000  Uiso   1.00
C466   C     0.78451   0.86563   0.57658   0.00000  Uiso   1.00
C467   C     0.84848   0.86852   0.60001   0.00000  Uiso   1.00
C468   C     0.85058   0.93515   0.62214   0.00000  Uiso   1.00
C469   C     0.88158   0.03015   0.66353   0.00000  Uiso   1.00
C470   C     0.76707   0.84137   0.51532   0.00000  Uiso   1.00
C471   C     0.81637   0.82388   0.48725   0.00000  Uiso   1.00
C472   C     0.80380   0.87011   0.45780   0.00000  Uiso   1.00
C473   C     0.80772   0.92746   0.40408   0.00000  Uiso   1.00
C474   C     0.66042   0.91163   0.54768   0.00000  Uiso   1.00
C475   C     0.62454   0.82735   0.55533   0.00000  Uiso   1.00
C476   C     0.54227   0.81010   0.56065   0.00000  Uiso   1.00
C477   C     0.52183   0.72909   0.56731   0.00000  Uiso   1.00
C478   C     0.72478   0.92711   0.57529   0.00000  Uiso   1.00
C479   C     0.72679   0.99376   0.59739   0.00000  Uiso   1.00
C480   C     0.79073   0.99674   0.62085   0.00000  Uiso   1.00
C481   C     0.70732   0.90286   0.51403   0.00000  Uiso   1.00
C482   C     0.69468   0.94913   0.48463   0.00000  Uiso   1.00
C483   C     0.74396   0.93171   0.45652   0.00000  Uiso   1.00
H484   H     0.81692   0.75056   0.55105   0.00000  Uiso   1.00
H485   H     0.71021   0.63729   0.56427   0.00000  Uiso   1.00
H486   H     0.89470   0.82093   0.60100   0.00000  Uiso   1.00
H487   H     0.86260   0.77630   0.48825   0.00000  Uiso   1.00
H488   H     0.56555   0.53883   0.57837   0.00000  Uiso   1.00
H489   H     0.95458   0.92605   0.65581   0.00000  Uiso   1.00
H490   H     0.88689   0.83195   0.41806   0.00000  Uiso   1.00
H491   H     0.61391   0.95950   0.54668   0.00000  Uiso   1.00
H492   H     0.49605   0.85770   0.55966   0.00000  Uiso   1.00
H493   H     0.68055   0.04133   0.59639   0.00000  Uiso   1.00
H494   H     0.64845   0.99670   0.48364   0.00000  Uiso   1.00
H495   H     0.39174   0.71772   0.57463   0.00000  Uiso   1.00
H496   H     0.78078   0.10494   0.65207   0.00000  Uiso   1.00
H497   H     0.71308   0.01084   0.41432   0.00000  Uiso   1.00
O498   O     0.40478   0.55754   0.58513   0.00000  Uiso   1.00
O499   O     0.91519   0.06556   0.68672   0.00000  Uiso   1.00
O500   O     0.82637   0.94209   0.37480   0.00000  Uiso   1.00
N501   N     0.54082   0.59490   0.57570   0.00000  Uiso   1.00
N502   N     0.90453   0.95692   0.64811   0.00000  Uiso   1.00
N503   N     0.84126   0.86896   0.42584   0.00000  Uiso   1.00
N504   N     0.44729   0.69116   0.57369   0.00000  Uiso   1.00
N505   N     0.81101   0.05318   0.64609   0.00000  Uiso   1.00
N506   N     0.74773   0.96522   0.42382   0.00000  Uiso   1.00
C507   C     0.27041   0.29843   0.05005   0.00000  Uiso   1.00
C508   C     0.18428   0.26586   0.05662   0.00000  Uiso   1.00
C509   C     0.16396   0.18486   0.06327   0.00000  Uiso   1.00
C510   C     0.08168   0.16749   0.06860   0.00000  Uiso   1.00
C511   C     0.95703   0.10757   0.07902   0.00000  Uiso   1.00
C512   C     0.28451   0.36563   0.07658   0.00000  Uiso   1.00
C513   C     0.34848   0.36852   0.10001   0.00000  Uiso   1.00
C514   C     0.35058   0.43515   0.12214   0.00000  Uiso   1.00
C515   C     0.38158   0.53015   0.16353   0.00000  Uiso   1.00
C516   C     0.26707   0.34137   0.01532   0.00000  Uiso   1.00
C517   C     0.31637   0.32388   0.98725   0.00000  Uiso   1.00
C518   C     0.30380   0.37011   0.95780   0.00000  Uiso   1.00
C519   C     0.30772   0.42746   0.90408   0.00000  Uiso   1.00
C520   C     0.16042   0.41163   0.04768   0.00000  Uiso   1.00
C521   C     0.12454   0.32735   0.05533   0.00000  Uiso   1.00
C522   C     0.04227   0.31010   0.06065   0.00000  Uiso   1.00
C523   C     0.02183   0.22909   0.06731   0.00000  Uiso   1.00
C524   C     0.22478   0.42711   0.07529   0.00000  Uiso   1.00
C525   C     0.22679   0.49376   0.09739   0.00000  Uiso   1.00
C526   C     0.29073   0.49674   0.12085   0.00000  Uiso   1.00
C527   C     0.20732   0.40286   0.01403   0.00000  Uiso   1.00
C528   C     0.19468   0.44913   0.98463   0.00000  Uiso   1.00
C529   C     0.24396   0.43171   0.95652   0.00000  Uiso   1.00
H530   H     0.31692   0.25056   0.05105   0.00000  Uiso   1.00
H531   H     0.21021   0.13729   0.06427   0.00000  Uiso   1.00
H532   H     0.39470   0.32093   0.10100   0.00000  Uiso   1.00
H533   H     0.36260   0.27630   0.98825   0.00000  Uiso   1.00
H534   H     0.06555   0.03883   0.07837   0.00000  Uiso   1.00
H535   H     0.45458   0.42605   0.15581   0.00000  Uiso   1.00
H536   H     0.38689   0.33195   0.91806   0.00000  Uiso   1.00
H537   H     0.11391   0.45950   0.04668   0.00000  Uiso   1.00
H538   H     0.99605   0.35770   0.05966   0.00000  Uiso   1.00
H539   H     0.18055   0.54133   0.09639   0.00000  Uiso   1.00
H540   H     0.14845   0.49670   0.98364   0.00000  Uiso   1.00
H541   H     0.89174   0.21772   0.07463   0.00000  Uiso   1.00
H542   H     0.28078   0.60494   0.15207   0.00000  Uiso   1.00
H543   H     0.21308   0.51084   0.91432   0.00000  Uiso   1.00
O544   O     0.90478   0.05754   0.08513   0.00000  Uiso   1.00
O545   O     0.41519   0.56556   0.18672   0.00000  Uiso   1.00
O546   O     0.32637   0.44209   0.87480   0.00000  Uiso   1.00
N547   N     0.04082   0.09490   0.07570   0.00000  Uiso   1.00
N548   N     0.40453   0.45692   0.14811   0.00000  Uiso   1.00
N549   N     0.34126   0.36896   0.92584   0.00000  Uiso   1.00
N550   N     0.94729   0.19116   0.07369   0.00000  Uiso   1.00
N551   N     0.31101   0.55318   0.14609   0.00000  Uiso   1.00
N552   N     0.24773   0.46522   0.92382   0.00000  Uiso   1.00
C553   C     0.79843   0.72959   0.80005   0.00000  Uiso   1.00
C554   C     0.76586   0.81572   0.80662   0.00000  Uiso   1.00
C555   C     0.68486   0.83604   0.81327   0.00000  Uiso   1.00
C556   C     0.66749   0.91832   0.81860   0.00000  Uiso   1.00
C557   C     0.60757   0.04297   0.82902   0.00000  Uiso   1.00
C558   C     0.86563   0.71549   0.82658   0.00000  Uiso   1.00
C559   C     0.86852   0.65152   0.85001   0.00000  Uiso   1.00
C560   C     0.93515   0.64942   0.87214   0.00000  Uiso   1.00
C561   C     0.03015   0.61842   0.91353   0.00000  Uiso   1.00
C562   C     0.84137   0.73293   0.76532   0.00000  Uiso   1.00
C563   C     0.82388   0.68363   0.73725   0.00000  Uiso   1.00
C564   C     0.87011   0.69620   0.70780   0.00000  Uiso   1.00
C565   C     0.92746   0.69228   0.65408   0.00000  Uiso   1.00
C566   C     0.91163   0.83958   0.79768   0.00000  Uiso   1.00
C567   C     0.82735   0.87546   0.80533   0.00000  Uiso   1.00
C568   C     0.81010   0.95773   0.81065   0.00000  Uiso   1.00
C569   C     0.72909   0.97817   0.81731   0.00000  Uiso   1.00
C570   C     0.92711   0.77522   0.82529   0.00000  Uiso   1.00
C571   C     0.99376   0.77321   0.84739   0.00000  Uiso   1.00
C572   C     0.99674   0.70927   0.87085   0.00000  Uiso   1.00
C573   C     0.90286   0.79268   0.76403   0.00000  Uiso   1.00
C574   C     0.94913   0.80532   0.73463   0.00000  Uiso   1.00
C575   C     0.93171   0.75604   0.70652   0.00000  Uiso   1.00
H576   H     0.75056   0.68308   0.80105   0.00000  Uiso   1.00
H577   H     0.63729   0.78979   0.81427   0.00000  Uiso   1.00
H578   H     0.82093   0.60530   0.85100   0.00000  Uiso   1.00
H579   H     0.77630   0.63740   0.73825   0.00000  Uiso   1.00
H580   H     0.53883   0.93445   0.82837   0.00000  Uiso   1.00
H581   H     0.92605   0.54542   0.90581   0.00000  Uiso   1.00
H582   H     0.83195   0.61311   0.66806   0.00000  Uiso   1.00
H583   H     0.95950   0.88609   0.79668   0.00000  Uiso   1.00
H584   H     0.85770   0.00395   0.80966   0.00000  Uiso   1.00
H585   H     0.04133   0.81945   0.84639   0.00000  Uiso   1.00
H586   H     0.99670   0.85155   0.73364   0.00000  Uiso   1.00
H587   H     0.71772   0.10826   0.82463   0.00000  Uiso   1.00
H588   H     0.10494   0.71922   0.90207   0.00000  Uiso   1.00
H589   H     0.01084   0.78692   0.66432   0.00000  Uiso   1.00
O590   O     0.55754   0.09522   0.83513   0.00000  Uiso   1.00
O591   O     0.06556   0.58481   0.93672   0.00000  Uiso   1.00
O592   O     0.94209   0.67363   0.62480   0.00000  Uiso   1.00
N593   N     0.59490   0.95918   0.82570   0.00000  Uiso   1.00
N594   N     0.95692   0.59547   0.89811   0.00000  Uiso   1.00
N595   N     0.86896   0.65874   0.67584   0.00000  Uiso   1.00
N596   N     0.69116   0.05271   0.82369   0.00000  Uiso   1.00
N597   N     0.05318   0.68899   0.89609   0.00000  Uiso   1.00
N598   N     0.96522   0.75227   0.67382   0.00000  Uiso   1.00
C599   C     0.29843   0.22959   0.30005   0.00000  Uiso   1.00
C600   C     0.26586   0.31572   0.30662   0.00000  Uiso   1.00
C601   C     0.18486   0.33604   0.31327   0.00000  Uiso   1.00
C602   C     0.16749   0.41832   0.31860   0.00000  Uiso   1.00
C603   C     0.10757   0.54297   0.32902   0.00000  Uiso   1.00
C604   C     0.36563   0.21549   0.32658   0.00000  Uiso   1.00
C605   C     0.36852   0.15152   0.35001   0.00000  Uiso   1.00
C606   C     0.43515   0.14942   0.37214   0.00000  Uiso   1.00
C607   C     0.53015   0.11842   0.41353   0.00000  Uiso   1.00
C608   C     0.34137   0.23293   0.26532   0.00000  Uiso   1.00
C609   C     0.32388   0.18363   0.23725   0.00000  Uiso   1.00
C610   C     0.37011   0.19620   0.20780   0.00000  Uiso   1.00
C611   C     0.42746   0.19228   0.15408   0.00000  Uiso   1.00
C612   C     0.41163   0.33958   0.29768   0.00000  Uiso   1.00
C613   C     0.32735   0.37546   0.30533   0.00000  Uiso   1.00
C614   C     0.31010   0.45773   0.31065   0.00000  Uiso   1.00
C615   C     0.22909   0.47817   0.31731   0.00000  Uiso   1.00
C616   C     0.42711   0.27522   0.32529   0.00000  Uiso   1.00
C617   C     0.49376   0.27321   0.34739   0.00000  Uiso   1.00
C618   C     0.49674   0.20927   0.37085   0.00000  Uiso   1.00
C619   C     0.40286   0.29268   0.26403   0.00000  Uiso   1.00
C620   C     0.44913   0.30532   0.23463   0.00000  Uiso   1.00
C621   C     0.43171   0.25604   0.20652   0.00000  Uiso   1.00
H622   H     0.25056   0.18308   0.30105   0.00000  Uiso   1.00
H623   H     0.13729   0.28979   0.31427   0.00000  Uiso   1.00
H624   H     0.32093   0.10530   0.35100   0.00000  Uiso   1.00
H625   H     0.27630   0.13740   0.23825   0.00000  Uiso   1.00
H626   H     0.03883   0.43445   0.32837   0.00000  Uiso   1.00
H627   H     0.42605   0.04542   0.40581   0.00000  Uiso   1.00
H628   H     0.33195   0.11311   0.16806   0.00000  Uiso   1.00
H629   H     0.45950   0.38609   0.29668   0.00000  Uiso   1.00
H630   H     0.35770   0.50395   0.30966   0.00000  Uiso   1.00
H631   H     0.54133   0.31945   0.34639   0.00000  Uiso   1.00
H632   H     0.49670   0.35155   0.23364   0.00000  Uiso   1.00
H633   H     0.21772   0.60826   0.32463   0.00000  Uiso   1.00
H634   H     0.60494   0.21922   0.40207   0.00000  Uiso   1.00
H635   H     0.51084   0.28692   0.16432   0.00000  Uiso   1.00
O636   O     0.05754   0.59522   0.33513   0.00000  Uiso   1.00
O637   O     0.56556   0.08481   0.43672   0.00000  Uiso   1.00
O638   O     0.44209   0.17363   0.12480   0.00000  Uiso   1.00
N639   N     0.09490   0.45918   0.32570   0.00000  Uiso   1.00
N640   N     0.45692   0.09547   0.39811   0.00000  Uiso   1.00
N641   N     0.36896   0.15874   0.17584   0.00000  Uiso   1.00
N642   N     0.19116   0.55271   0.32369   0.00000  Uiso   1.00
N643   N     0.55318   0.18899   0.39609   0.00000  Uiso   1.00
N644   N     0.46522   0.25227   0.17382   0.00000  Uiso   1.00
C645   C     0.70157   0.77041   0.30005   0.00000  Uiso   1.00
C646   C     0.73414   0.68428   0.30662   0.00000  Uiso   1.00
C647   C     0.81514   0.66396   0.31327   0.00000  Uiso   1.00
C648   C     0.83251   0.58168   0.31860   0.00000  Uiso   1.00
C649   C     0.89243   0.45703   0.32902   0.00000  Uiso   1.00
C650   C     0.63437   0.78451   0.32658   0.00000  Uiso   1.00
C651   C     0.63148   0.84848   0.35001   0.00000  Uiso   1.00
C652   C     0.56485   0.85058   0.37214   0.00000  Uiso   1.00
C653   C     0.46985   0.88158   0.41353   0.00000  Uiso   1.00
C654   C     0.65863   0.76707   0.26532   0.00000  Uiso   1.00
C655   C     0.67612   0.81637   0.23725   0.00000  Uiso   1.00
C656   C     0.62989   0.80380   0.20780   0.00000  Uiso   1.00
C657   C     0.57254   0.80772   0.15408   0.00000  Uiso   1.00
C658   C     0.58837   0.66042   0.29768   0.00000  Uiso   1.00
C659   C     0.67265   0.62454   0.30533   0.00000  Uiso   1.00
C660   C     0.68990   0.54227   0.31065   0.00000  Uiso   1.00
C661   C     0.77091   0.52183   0.31731   0.00000  Uiso   1.00
C662   C     0.57289   0.72478   0.32529   0.00000  Uiso   1.00
C663   C     0.50624   0.72679   0.34739   0.00000  Uiso   1.00
C664   C     0.50326   0.79073   0.37085   0.00000  Uiso   1.00
C665   C     0.59714   0.70732   0.26403   0.00000  Uiso   1.00
C666   C     0.55087   0.69468   0.23463   0.00000  Uiso   1.00
C667   C     0.56829   0.74396   0.20652   0.00000  Uiso   1.00
H668   H     0.74944   0.81692   0.30105   0.00000  Uiso   1.00
H669   H     0.86271   0.71021   0.31427   0.00000  Uiso   1.00
H670   H     0.67907   0.89470   0.35100   0.00000  Uiso   1.00
H671   H     0.72370   0.86260   0.23825   0.00000  Uiso   1.00
H672   H     0.96117   0.56555   0.32837   0.00000  Uiso   1.00
H673   H     0.57395   0.95458   0.40581   0.00000  Uiso   1.00
H674   H     0.66805   0.88689   0.16806   0.00000  Uiso   1.00
H675   H     0.54050   0.61391   0.29668   0.00000  Uiso   1.00
H676   H     0.64230   0.49605   0.30966   0.00000  Uiso   1.00
H677   H     0.45867   0.68055   0.34639   0.00000  Uiso   1.00
H678   H     0.50330   0.64845   0.23364   0.00000  Uiso   1.00
H679   H     0.78228   0.39174   0.32463   0.00000  Uiso   1.00
H680   H     0.39506   0.78078   0.40207   0.00000  Uiso   1.00
H681   H     0.48916   0.71308   0.16432   0.00000  Uiso   1.00
O682   O     0.94246   0.40478   0.33513   0.00000  Uiso   1.00
O683   O     0.43444   0.91519   0.43672   0.00000  Uiso   1.00
O684   O     0.55791   0.82637   0.12480   0.00000  Uiso   1.00
N685   N     0.90510   0.54082   0.32570   0.00000  Uiso   1.00
N686   N     0.54308   0.90453   0.39811   0.00000  Uiso   1.00
N687   N     0.63104   0.84126   0.17584   0.00000  Uiso   1.00
N688   N     0.80884   0.44729   0.32369   0.00000  Uiso   1.00
N689   N     0.44682   0.81101   0.39609   0.00000  Uiso   1.00
N690   N     0.53478   0.74773   0.17382   0.00000  Uiso   1.00
C691   C     0.20157   0.27041   0.80005   0.00000  Uiso   1.00
C692   C     0.23414   0.18428   0.80662   0.00000  Uiso   1.00
C693   C     0.31514   0.16396   0.81327   0.00000  Uiso   1.00
C694   C     0.33251   0.08168   0.81860   0.00000  Uiso   1.00
C695   C     0.39243   0.95703   0.82902   0.00000  Uiso   1.00
C696   C     0.13437   0.28451   0.82658   0.00000  Uiso   1.00
C697   C     0.13148   0.34848   0.85001   0.00000  Uiso   1.00
C698   C     0.06485   0.35058   0.87214   0.00000  Uiso   1.00
C699   C     0.96985   0.38158   0.91353   0.00000  Uiso   1.00
C700   C     0.15863   0.26707   0.76532   0.00000  Uiso   1.00
C701   C     0.17612   0.31637   0.73725   0.00000  Uiso   1.00
C702   C     0.12989   0.30380   0.70780   0.00000  Uiso   1.00
C703   C     0.07254   0.30772   0.65408   0.00000  Uiso   1.00
C704   C     0.08837   0.16042   0.79768   0.00000  Uiso   1.00
C705   C     0.17265   0.12454   0.80533   0.00000  Uiso   1.00
C706   C     0.18990   0.04227   0.81065   0.00000  Uiso   1.00
C707   C     0.27091   0.02183   0.81731   0.00000  Uiso   1.00
C708   C     0.07289   0.22478   0.82529   0.00000  Uiso   1.00
C709   C     0.00624   0.22679   0.84739   0.00000  Uiso   1.00
C710   C     0.00326   0.29073   0.87085   0.00000  Uiso   1.00
C711   C     0.09714   0.20732   0.76403   0.00000  Uiso   1.00
C712   C     0.05087   0.19468   0.73463   0.00000  Uiso   1.00
C713   C     0.06829   0.24396   0.70652   0.00000  Uiso   1.00
H714   H     0.24944   0.31692   0.80105   0.00000  Uiso   1.00
H715   H     0.36271   0.21021   0.81427   0.00000  Uiso   1.00
H716   H     0.17907   0.39470   0.85100   0.00000  Uiso   1.00
H717   H     0.22370   0.36260   0.73825   0.00000  Uiso   1.00
H718   H     0.46117   0.06555   0.82837   0.00000  Uiso   1.00
H719   H     0.07395   0.45458   0.90581   0.00000  Uiso   1.00
H720   H     0.16805   0.38689   0.66806   0.00000  Uiso   1.00
H721   H     0.04050   0.11391   0.79668   0.00000  Uiso   1.00
H722   H     0.14230   0.99605   0.80966   0.00000  Uiso   1.00
H723   H     0.95867   0.18055   0.84639   0.00000  Uiso   1.00
H724   H     0.00330   0.14845   0.73364   0.00000  Uiso   1.00
H725   H     0.28228   0.89174   0.82463   0.00000  Uiso   1.00
H726   H     0.89506   0.28078   0.90207   0.00000  Uiso   1.00
H727   H     0.98916   0.21308   0.66432   0.00000  Uiso   1.00
O728   O     0.44246   0.90478   0.83513   0.00000  Uiso   1.00
O729   O     0.93444   0.41519   0.93672   0.00000  Uiso   1.00
O730   O     0.05791   0.32637   0.62480   0.00000  Uiso   1.00
N731   N     0.40510   0.04082   0.82570   0.00000  Uiso   1.00
N732   N     0.04308   0.40453   0.89811   0.00000  Uiso   1.00
N733   N     0.13104   0.34126   0.67584   0.00000  Uiso   1.00
N734   N     0.30884   0.94729   0.82369   0.00000  Uiso   1.00
N735   N     0.94682   0.31101   0.89609   0.00000  Uiso   1.00
N736   N     0.03478   0.24773   0.67382   0.00000  Uiso   1.00
