data_job_03423
_audit_creation_date              2018-12-19
_audit_creation_method            'Materials Studio'
_symmetry_space_group_name_H-M    'P1'
_symmetry_Int_Tables_number       1
_symmetry_cell_setting            triclinic
loop_
_symmetry_equiv_pos_as_xyz
  x,y,z
_cell_length_a                    30.2905
_cell_length_b                    30.2905
_cell_length_c                    18.2518
_cell_angle_alpha                 90.0000
_cell_angle_beta                  90.0000
_cell_angle_gamma                 90.0000
loop_
_atom_site_label
_atom_site_type_symbol
_atom_site_fract_x
_atom_site_fract_y
_atom_site_fract_z
_atom_site_U_iso_or_equiv
_atom_site_adp_type
_atom_site_occupancy
C1     C     0.31158   0.41882   0.79275   0.00000  Uiso   1.00
C2     C     0.29485   0.44956   0.73268   0.00000  Uiso   1.00
C3     C     0.29659   0.49533   0.73409   0.00000  Uiso   1.00
C4     C     0.27953   0.51747   0.67380   0.00000  Uiso   1.00
C5     C     0.25629   0.56867   0.58960   0.00000  Uiso   1.00
C6     C     0.27236   0.39009   0.81445   0.00000  Uiso   1.00
C7     C     0.25520   0.38586   0.88460   0.00000  Uiso   1.00
C8     C     0.21921   0.35794   0.89314   0.00000  Uiso   1.00
C9     C     0.16108   0.31680   0.93589   0.00000  Uiso   1.00
C10    C     0.34464   0.38798   0.75602   0.00000  Uiso   1.00
C11    C     0.38826   0.38196   0.77707   0.00000  Uiso   1.00
C12    C     0.41313   0.35225   0.73642   0.00000  Uiso   1.00
C13    C     0.46723   0.30782   0.68847   0.00000  Uiso   1.00
C14    C     0.27819   0.37674   0.68317   0.00000  Uiso   1.00
C15    C     0.27671   0.42670   0.67316   0.00000  Uiso   1.00
C16    C     0.25965   0.44877   0.61285   0.00000  Uiso   1.00
C17    C     0.26136   0.49457   0.61417   0.00000  Uiso   1.00
C18    C     0.25422   0.36723   0.75493   0.00000  Uiso   1.00
C19    C     0.21826   0.33931   0.76336   0.00000  Uiso   1.00
C20    C     0.20104   0.33504   0.83351   0.00000  Uiso   1.00
C21    C     0.32651   0.36512   0.69650   0.00000  Uiso   1.00
C22    C     0.35132   0.33541   0.65583   0.00000  Uiso   1.00
C23    C     0.39496   0.32935   0.67680   0.00000  Uiso   1.00
H24    H     0.32569   0.43661   0.83909   0.00000  Uiso   1.00
H25    H     0.31062   0.51301   0.78017   0.00000  Uiso   1.00
H26    H     0.26924   0.40355   0.93065   0.00000  Uiso   1.00
H27    H     0.40228   0.39965   0.82313   0.00000  Uiso   1.00
H28    H     0.28590   0.58762   0.68860   0.00000  Uiso   1.00
H29    H     0.19865   0.35682   0.00591   0.00000  Uiso   1.00
H30    H     0.47919   0.34860   0.77919   0.00000  Uiso   1.00
H31    H     0.26407   0.35894   0.63683   0.00000  Uiso   1.00
H32    H     0.24561   0.43108   0.56680   0.00000  Uiso   1.00
H33    H     0.20423   0.32162   0.71729   0.00000  Uiso   1.00
H34    H     0.33727   0.31772   0.60977   0.00000  Uiso   1.00
H35    H     0.23313   0.52113   0.51543   0.00000  Uiso   1.00
H36    H     0.14589   0.29032   0.83275   0.00000  Uiso   1.00
H37    H     0.42643   0.28210   0.60602   0.00000  Uiso   1.00
O38    O     0.24848   0.60323   0.55961   0.00000  Uiso   1.00
O39    O     0.13402   0.30042   0.97592   0.00000  Uiso   1.00
O40    O     0.50208   0.28964   0.67845   0.00000  Uiso   1.00
N41    N     0.27602   0.56207   0.65745   0.00000  Uiso   1.00
N42    N     0.19445   0.34629   0.95412   0.00000  Uiso   1.00
N43    N     0.45672   0.33860   0.74216   0.00000  Uiso   1.00
N44    N     0.24763   0.52629   0.56427   0.00000  Uiso   1.00
N45    N     0.16606   0.31051   0.86093   0.00000  Uiso   1.00
N46    N     0.42833   0.30282   0.64897   0.00000  Uiso   1.00
C47    C     0.81158   0.91882   0.29275   0.00000  Uiso   1.00
C48    C     0.79485   0.94956   0.23268   0.00000  Uiso   1.00
C49    C     0.79659   0.99533   0.23409   0.00000  Uiso   1.00
C50    C     0.77953   0.01747   0.17380   0.00000  Uiso   1.00
C51    C     0.75629   0.06867   0.08960   0.00000  Uiso   1.00
C52    C     0.77236   0.89009   0.31445   0.00000  Uiso   1.00
C53    C     0.75520   0.88586   0.38460   0.00000  Uiso   1.00
C54    C     0.71921   0.85794   0.39314   0.00000  Uiso   1.00
C55    C     0.66108   0.81680   0.43589   0.00000  Uiso   1.00
C56    C     0.84464   0.88798   0.25602   0.00000  Uiso   1.00
C57    C     0.88826   0.88196   0.27707   0.00000  Uiso   1.00
C58    C     0.91313   0.85225   0.23642   0.00000  Uiso   1.00
C59    C     0.96723   0.80782   0.18847   0.00000  Uiso   1.00
C60    C     0.77819   0.87674   0.18317   0.00000  Uiso   1.00
C61    C     0.77671   0.92670   0.17316   0.00000  Uiso   1.00
C62    C     0.75965   0.94877   0.11285   0.00000  Uiso   1.00
C63    C     0.76136   0.99457   0.11417   0.00000  Uiso   1.00
C64    C     0.75422   0.86723   0.25493   0.00000  Uiso   1.00
C65    C     0.71826   0.83931   0.26336   0.00000  Uiso   1.00
C66    C     0.70104   0.83504   0.33351   0.00000  Uiso   1.00
C67    C     0.82651   0.86512   0.19650   0.00000  Uiso   1.00
C68    C     0.85132   0.83541   0.15583   0.00000  Uiso   1.00
C69    C     0.89496   0.82935   0.17680   0.00000  Uiso   1.00
H70    H     0.82569   0.93661   0.33909   0.00000  Uiso   1.00
H71    H     0.81062   0.01301   0.28017   0.00000  Uiso   1.00
H72    H     0.76924   0.90355   0.43065   0.00000  Uiso   1.00
H73    H     0.90228   0.89965   0.32313   0.00000  Uiso   1.00
H74    H     0.78590   0.08762   0.18860   0.00000  Uiso   1.00
H75    H     0.69865   0.85682   0.50591   0.00000  Uiso   1.00
H76    H     0.97919   0.84860   0.27919   0.00000  Uiso   1.00
H77    H     0.76407   0.85894   0.13683   0.00000  Uiso   1.00
H78    H     0.74561   0.93108   0.06680   0.00000  Uiso   1.00
H79    H     0.70423   0.82162   0.21729   0.00000  Uiso   1.00
H80    H     0.83727   0.81772   0.10977   0.00000  Uiso   1.00
H81    H     0.73313   0.02113   0.01543   0.00000  Uiso   1.00
H82    H     0.64589   0.79032   0.33275   0.00000  Uiso   1.00
H83    H     0.92643   0.78210   0.10602   0.00000  Uiso   1.00
O84    O     0.74848   0.10323   0.05961   0.00000  Uiso   1.00
O85    O     0.63402   0.80042   0.47592   0.00000  Uiso   1.00
O86    O     0.00208   0.78964   0.17845   0.00000  Uiso   1.00
N87    N     0.77602   0.06207   0.15745   0.00000  Uiso   1.00
N88    N     0.69445   0.84629   0.45412   0.00000  Uiso   1.00
N89    N     0.95672   0.83860   0.24216   0.00000  Uiso   1.00
N90    N     0.74763   0.02629   0.06427   0.00000  Uiso   1.00
N91    N     0.66606   0.81051   0.36093   0.00000  Uiso   1.00
N92    N     0.92833   0.80282   0.14897   0.00000  Uiso   1.00
C93    C     0.18842   0.08118   0.29275   0.00000  Uiso   1.00
C94    C     0.20515   0.05044   0.23268   0.00000  Uiso   1.00
C95    C     0.20341   0.00467   0.23409   0.00000  Uiso   1.00
C96    C     0.22047   0.98253   0.17380   0.00000  Uiso   1.00
C97    C     0.24371   0.93133   0.08960   0.00000  Uiso   1.00
C98    C     0.22764   0.10991   0.31445   0.00000  Uiso   1.00
C99    C     0.24480   0.11414   0.38460   0.00000  Uiso   1.00
C100   C     0.28079   0.14206   0.39314   0.00000  Uiso   1.00
C101   C     0.33892   0.18320   0.43589   0.00000  Uiso   1.00
C102   C     0.15536   0.11202   0.25602   0.00000  Uiso   1.00
C103   C     0.11174   0.11804   0.27707   0.00000  Uiso   1.00
C104   C     0.08687   0.14775   0.23642   0.00000  Uiso   1.00
C105   C     0.03277   0.19218   0.18847   0.00000  Uiso   1.00
C106   C     0.22181   0.12326   0.18317   0.00000  Uiso   1.00
C107   C     0.22329   0.07330   0.17316   0.00000  Uiso   1.00
C108   C     0.24035   0.05123   0.11285   0.00000  Uiso   1.00
C109   C     0.23864   0.00543   0.11417   0.00000  Uiso   1.00
C110   C     0.24578   0.13277   0.25493   0.00000  Uiso   1.00
C111   C     0.28174   0.16069   0.26336   0.00000  Uiso   1.00
C112   C     0.29896   0.16496   0.33351   0.00000  Uiso   1.00
C113   C     0.17349   0.13488   0.19650   0.00000  Uiso   1.00
C114   C     0.14868   0.16459   0.15583   0.00000  Uiso   1.00
C115   C     0.10504   0.17065   0.17680   0.00000  Uiso   1.00
H116   H     0.17431   0.06339   0.33909   0.00000  Uiso   1.00
H117   H     0.18938   0.98699   0.28017   0.00000  Uiso   1.00
H118   H     0.23076   0.09645   0.43065   0.00000  Uiso   1.00
H119   H     0.09772   0.10035   0.32313   0.00000  Uiso   1.00
H120   H     0.21410   0.91238   0.18860   0.00000  Uiso   1.00
H121   H     0.30135   0.14318   0.50591   0.00000  Uiso   1.00
H122   H     0.02081   0.15140   0.27919   0.00000  Uiso   1.00
H123   H     0.23593   0.14106   0.13683   0.00000  Uiso   1.00
H124   H     0.25439   0.06892   0.06680   0.00000  Uiso   1.00
H125   H     0.29577   0.17838   0.21729   0.00000  Uiso   1.00
H126   H     0.16273   0.18228   0.10977   0.00000  Uiso   1.00
H127   H     0.26687   0.97887   0.01543   0.00000  Uiso   1.00
H128   H     0.35411   0.20968   0.33275   0.00000  Uiso   1.00
H129   H     0.07357   0.21790   0.10602   0.00000  Uiso   1.00
O130   O     0.25152   0.89677   0.05961   0.00000  Uiso   1.00
O131   O     0.36598   0.19958   0.47592   0.00000  Uiso   1.00
O132   O     0.99792   0.21036   0.17845   0.00000  Uiso   1.00
N133   N     0.22398   0.93793   0.15745   0.00000  Uiso   1.00
N134   N     0.30555   0.15371   0.45412   0.00000  Uiso   1.00
N135   N     0.04328   0.16140   0.24216   0.00000  Uiso   1.00
N136   N     0.25237   0.97371   0.06427   0.00000  Uiso   1.00
N137   N     0.33394   0.18949   0.36093   0.00000  Uiso   1.00
N138   N     0.07167   0.19718   0.14897   0.00000  Uiso   1.00
C139   C     0.68842   0.58118   0.79275   0.00000  Uiso   1.00
C140   C     0.70515   0.55044   0.73268   0.00000  Uiso   1.00
C141   C     0.70341   0.50467   0.73409   0.00000  Uiso   1.00
C142   C     0.72047   0.48253   0.67380   0.00000  Uiso   1.00
C143   C     0.74371   0.43133   0.58960   0.00000  Uiso   1.00
C144   C     0.72764   0.60991   0.81445   0.00000  Uiso   1.00
C145   C     0.74480   0.61414   0.88460   0.00000  Uiso   1.00
C146   C     0.78079   0.64206   0.89314   0.00000  Uiso   1.00
C147   C     0.83892   0.68320   0.93589   0.00000  Uiso   1.00
C148   C     0.65536   0.61202   0.75602   0.00000  Uiso   1.00
C149   C     0.61174   0.61804   0.77707   0.00000  Uiso   1.00
C150   C     0.58687   0.64775   0.73642   0.00000  Uiso   1.00
C151   C     0.53277   0.69218   0.68847   0.00000  Uiso   1.00
C152   C     0.72181   0.62326   0.68317   0.00000  Uiso   1.00
C153   C     0.72329   0.57330   0.67316   0.00000  Uiso   1.00
C154   C     0.74035   0.55123   0.61285   0.00000  Uiso   1.00
C155   C     0.73864   0.50543   0.61417   0.00000  Uiso   1.00
C156   C     0.74578   0.63277   0.75493   0.00000  Uiso   1.00
C157   C     0.78174   0.66069   0.76336   0.00000  Uiso   1.00
C158   C     0.79896   0.66496   0.83351   0.00000  Uiso   1.00
C159   C     0.67349   0.63488   0.69650   0.00000  Uiso   1.00
C160   C     0.64868   0.66459   0.65583   0.00000  Uiso   1.00
C161   C     0.60504   0.67065   0.67680   0.00000  Uiso   1.00
H162   H     0.67431   0.56339   0.83909   0.00000  Uiso   1.00
H163   H     0.68938   0.48699   0.78017   0.00000  Uiso   1.00
H164   H     0.73076   0.59645   0.93065   0.00000  Uiso   1.00
H165   H     0.59772   0.60035   0.82313   0.00000  Uiso   1.00
H166   H     0.71410   0.41238   0.68860   0.00000  Uiso   1.00
H167   H     0.80135   0.64318   0.00591   0.00000  Uiso   1.00
H168   H     0.52081   0.65140   0.77919   0.00000  Uiso   1.00
H169   H     0.73593   0.64106   0.63683   0.00000  Uiso   1.00
H170   H     0.75439   0.56892   0.56680   0.00000  Uiso   1.00
H171   H     0.79577   0.67838   0.71729   0.00000  Uiso   1.00
H172   H     0.66273   0.68228   0.60977   0.00000  Uiso   1.00
H173   H     0.76687   0.47887   0.51543   0.00000  Uiso   1.00
H174   H     0.85411   0.70968   0.83275   0.00000  Uiso   1.00
H175   H     0.57357   0.71790   0.60602   0.00000  Uiso   1.00
O176   O     0.75152   0.39677   0.55961   0.00000  Uiso   1.00
O177   O     0.86598   0.69958   0.97592   0.00000  Uiso   1.00
O178   O     0.49792   0.71036   0.67845   0.00000  Uiso   1.00
N179   N     0.72398   0.43793   0.65745   0.00000  Uiso   1.00
N180   N     0.80555   0.65371   0.95412   0.00000  Uiso   1.00
N181   N     0.54328   0.66140   0.74216   0.00000  Uiso   1.00
N182   N     0.75237   0.47371   0.56427   0.00000  Uiso   1.00
N183   N     0.83394   0.68949   0.86093   0.00000  Uiso   1.00
N184   N     0.57167   0.69718   0.64897   0.00000  Uiso   1.00
C185   C     0.58118   0.81158   0.04275   0.00000  Uiso   1.00
C186   C     0.55044   0.79485   0.98268   0.00000  Uiso   1.00
C187   C     0.50467   0.79659   0.98409   0.00000  Uiso   1.00
C188   C     0.48253   0.77953   0.92380   0.00000  Uiso   1.00
C189   C     0.43133   0.75629   0.83960   0.00000  Uiso   1.00
C190   C     0.60991   0.77236   0.06445   0.00000  Uiso   1.00
C191   C     0.61414   0.75520   0.13460   0.00000  Uiso   1.00
C192   C     0.64206   0.71921   0.14314   0.00000  Uiso   1.00
C193   C     0.68320   0.66108   0.18589   0.00000  Uiso   1.00
C194   C     0.61202   0.84464   0.00602   0.00000  Uiso   1.00
C195   C     0.61804   0.88826   0.02707   0.00000  Uiso   1.00
C196   C     0.64775   0.91313   0.98642   0.00000  Uiso   1.00
C197   C     0.69218   0.96723   0.93847   0.00000  Uiso   1.00
C198   C     0.62326   0.77819   0.93317   0.00000  Uiso   1.00
C199   C     0.57330   0.77671   0.92316   0.00000  Uiso   1.00
C200   C     0.55123   0.75965   0.86285   0.00000  Uiso   1.00
C201   C     0.50543   0.76136   0.86417   0.00000  Uiso   1.00
C202   C     0.63277   0.75422   0.00493   0.00000  Uiso   1.00
C203   C     0.66069   0.71826   0.01336   0.00000  Uiso   1.00
C204   C     0.66496   0.70104   0.08351   0.00000  Uiso   1.00
C205   C     0.63488   0.82651   0.94650   0.00000  Uiso   1.00
C206   C     0.66459   0.85132   0.90583   0.00000  Uiso   1.00
C207   C     0.67065   0.89496   0.92680   0.00000  Uiso   1.00
H208   H     0.56339   0.82569   0.08909   0.00000  Uiso   1.00
H209   H     0.48699   0.81062   0.03017   0.00000  Uiso   1.00
H210   H     0.59645   0.76924   0.18065   0.00000  Uiso   1.00
H211   H     0.60035   0.90228   0.07313   0.00000  Uiso   1.00
H212   H     0.41238   0.78590   0.93860   0.00000  Uiso   1.00
H213   H     0.64318   0.69865   0.25591   0.00000  Uiso   1.00
H214   H     0.65140   0.97919   0.02919   0.00000  Uiso   1.00
H215   H     0.64106   0.76407   0.88683   0.00000  Uiso   1.00
H216   H     0.56892   0.74561   0.81680   0.00000  Uiso   1.00
H217   H     0.67838   0.70423   0.96729   0.00000  Uiso   1.00
H218   H     0.68228   0.83727   0.85977   0.00000  Uiso   1.00
H219   H     0.47887   0.73313   0.76543   0.00000  Uiso   1.00
H220   H     0.70968   0.64589   0.08275   0.00000  Uiso   1.00
H221   H     0.71790   0.92643   0.85602   0.00000  Uiso   1.00
O222   O     0.39677   0.74848   0.80961   0.00000  Uiso   1.00
O223   O     0.69958   0.63402   0.22592   0.00000  Uiso   1.00
O224   O     0.71036   0.00208   0.92845   0.00000  Uiso   1.00
N225   N     0.43793   0.77602   0.90745   0.00000  Uiso   1.00
N226   N     0.65371   0.69445   0.20412   0.00000  Uiso   1.00
N227   N     0.66140   0.95672   0.99216   0.00000  Uiso   1.00
N228   N     0.47371   0.74763   0.81427   0.00000  Uiso   1.00
N229   N     0.68949   0.66606   0.11093   0.00000  Uiso   1.00
N230   N     0.69718   0.92833   0.89897   0.00000  Uiso   1.00
C231   C     0.08118   0.31158   0.54275   0.00000  Uiso   1.00
C232   C     0.05044   0.29485   0.48268   0.00000  Uiso   1.00
C233   C     0.00467   0.29659   0.48409   0.00000  Uiso   1.00
C234   C     0.98253   0.27953   0.42380   0.00000  Uiso   1.00
C235   C     0.93133   0.25629   0.33960   0.00000  Uiso   1.00
C236   C     0.10991   0.27236   0.56445   0.00000  Uiso   1.00
C237   C     0.11414   0.25520   0.63460   0.00000  Uiso   1.00
C238   C     0.14206   0.21921   0.64314   0.00000  Uiso   1.00
C239   C     0.18320   0.16108   0.68589   0.00000  Uiso   1.00
C240   C     0.11202   0.34464   0.50602   0.00000  Uiso   1.00
C241   C     0.11804   0.38826   0.52707   0.00000  Uiso   1.00
C242   C     0.14775   0.41313   0.48642   0.00000  Uiso   1.00
C243   C     0.19218   0.46723   0.43847   0.00000  Uiso   1.00
C244   C     0.12326   0.27819   0.43317   0.00000  Uiso   1.00
C245   C     0.07330   0.27671   0.42316   0.00000  Uiso   1.00
C246   C     0.05123   0.25965   0.36285   0.00000  Uiso   1.00
C247   C     0.00543   0.26136   0.36417   0.00000  Uiso   1.00
C248   C     0.13277   0.25422   0.50493   0.00000  Uiso   1.00
C249   C     0.16069   0.21826   0.51336   0.00000  Uiso   1.00
C250   C     0.16496   0.20104   0.58351   0.00000  Uiso   1.00
C251   C     0.13488   0.32651   0.44650   0.00000  Uiso   1.00
C252   C     0.16459   0.35132   0.40583   0.00000  Uiso   1.00
C253   C     0.17065   0.39496   0.42680   0.00000  Uiso   1.00
H254   H     0.06339   0.32569   0.58909   0.00000  Uiso   1.00
H255   H     0.98699   0.31062   0.53017   0.00000  Uiso   1.00
H256   H     0.09645   0.26924   0.68065   0.00000  Uiso   1.00
H257   H     0.10035   0.40228   0.57313   0.00000  Uiso   1.00
H258   H     0.91238   0.28590   0.43860   0.00000  Uiso   1.00
H259   H     0.14318   0.19865   0.75591   0.00000  Uiso   1.00
H260   H     0.15140   0.47919   0.52919   0.00000  Uiso   1.00
H261   H     0.14106   0.26407   0.38683   0.00000  Uiso   1.00
H262   H     0.06892   0.24561   0.31680   0.00000  Uiso   1.00
H263   H     0.17838   0.20423   0.46729   0.00000  Uiso   1.00
H264   H     0.18228   0.33727   0.35977   0.00000  Uiso   1.00
H265   H     0.97887   0.23313   0.26543   0.00000  Uiso   1.00
H266   H     0.20968   0.14589   0.58275   0.00000  Uiso   1.00
H267   H     0.21790   0.42643   0.35602   0.00000  Uiso   1.00
O268   O     0.89677   0.24848   0.30961   0.00000  Uiso   1.00
O269   O     0.19958   0.13402   0.72592   0.00000  Uiso   1.00
O270   O     0.21036   0.50208   0.42845   0.00000  Uiso   1.00
N271   N     0.93793   0.27602   0.40745   0.00000  Uiso   1.00
N272   N     0.15371   0.19445   0.70412   0.00000  Uiso   1.00
N273   N     0.16140   0.45672   0.49216   0.00000  Uiso   1.00
N274   N     0.97371   0.24763   0.31427   0.00000  Uiso   1.00
N275   N     0.18949   0.16606   0.61093   0.00000  Uiso   1.00
N276   N     0.19718   0.42833   0.39897   0.00000  Uiso   1.00
C277   C     0.91882   0.68842   0.54275   0.00000  Uiso   1.00
C278   C     0.94956   0.70515   0.48268   0.00000  Uiso   1.00
C279   C     0.99533   0.70341   0.48409   0.00000  Uiso   1.00
C280   C     0.01747   0.72047   0.42380   0.00000  Uiso   1.00
C281   C     0.06867   0.74371   0.33960   0.00000  Uiso   1.00
C282   C     0.89009   0.72764   0.56445   0.00000  Uiso   1.00
C283   C     0.88586   0.74480   0.63460   0.00000  Uiso   1.00
C284   C     0.85794   0.78079   0.64314   0.00000  Uiso   1.00
C285   C     0.81680   0.83892   0.68589   0.00000  Uiso   1.00
C286   C     0.88798   0.65536   0.50602   0.00000  Uiso   1.00
C287   C     0.88196   0.61174   0.52707   0.00000  Uiso   1.00
C288   C     0.85225   0.58687   0.48642   0.00000  Uiso   1.00
C289   C     0.80782   0.53277   0.43847   0.00000  Uiso   1.00
C290   C     0.87674   0.72181   0.43317   0.00000  Uiso   1.00
C291   C     0.92670   0.72329   0.42316   0.00000  Uiso   1.00
C292   C     0.94877   0.74035   0.36285   0.00000  Uiso   1.00
C293   C     0.99457   0.73864   0.36417   0.00000  Uiso   1.00
C294   C     0.86723   0.74578   0.50493   0.00000  Uiso   1.00
C295   C     0.83931   0.78174   0.51336   0.00000  Uiso   1.00
C296   C     0.83504   0.79896   0.58351   0.00000  Uiso   1.00
C297   C     0.86512   0.67349   0.44650   0.00000  Uiso   1.00
C298   C     0.83541   0.64868   0.40583   0.00000  Uiso   1.00
C299   C     0.82935   0.60504   0.42680   0.00000  Uiso   1.00
H300   H     0.93661   0.67431   0.58909   0.00000  Uiso   1.00
H301   H     0.01301   0.68938   0.53017   0.00000  Uiso   1.00
H302   H     0.90355   0.73076   0.68065   0.00000  Uiso   1.00
H303   H     0.89965   0.59772   0.57313   0.00000  Uiso   1.00
H304   H     0.08762   0.71410   0.43860   0.00000  Uiso   1.00
H305   H     0.85682   0.80135   0.75591   0.00000  Uiso   1.00
H306   H     0.84860   0.52081   0.52919   0.00000  Uiso   1.00
H307   H     0.85894   0.73593   0.38683   0.00000  Uiso   1.00
H308   H     0.93108   0.75439   0.31680   0.00000  Uiso   1.00
H309   H     0.82162   0.79577   0.46729   0.00000  Uiso   1.00
H310   H     0.81772   0.66273   0.35977   0.00000  Uiso   1.00
H311   H     0.02113   0.76687   0.26543   0.00000  Uiso   1.00
H312   H     0.79032   0.85411   0.58275   0.00000  Uiso   1.00
H313   H     0.78210   0.57357   0.35602   0.00000  Uiso   1.00
O314   O     0.10323   0.75152   0.30961   0.00000  Uiso   1.00
O315   O     0.80042   0.86598   0.72592   0.00000  Uiso   1.00
O316   O     0.78964   0.49792   0.42845   0.00000  Uiso   1.00
N317   N     0.06207   0.72398   0.40745   0.00000  Uiso   1.00
N318   N     0.84629   0.80555   0.70412   0.00000  Uiso   1.00
N319   N     0.83860   0.54328   0.49216   0.00000  Uiso   1.00
N320   N     0.02629   0.75237   0.31427   0.00000  Uiso   1.00
N321   N     0.81051   0.83394   0.61093   0.00000  Uiso   1.00
N322   N     0.80282   0.57167   0.39897   0.00000  Uiso   1.00
C323   C     0.41882   0.18842   0.04275   0.00000  Uiso   1.00
C324   C     0.44956   0.20515   0.98268   0.00000  Uiso   1.00
C325   C     0.49533   0.20341   0.98409   0.00000  Uiso   1.00
C326   C     0.51747   0.22047   0.92380   0.00000  Uiso   1.00
C327   C     0.56867   0.24371   0.83960   0.00000  Uiso   1.00
C328   C     0.39009   0.22764   0.06445   0.00000  Uiso   1.00
C329   C     0.38586   0.24480   0.13460   0.00000  Uiso   1.00
C330   C     0.35794   0.28079   0.14314   0.00000  Uiso   1.00
C331   C     0.31680   0.33892   0.18589   0.00000  Uiso   1.00
C332   C     0.38798   0.15536   0.00602   0.00000  Uiso   1.00
C333   C     0.38196   0.11174   0.02707   0.00000  Uiso   1.00
C334   C     0.35225   0.08687   0.98642   0.00000  Uiso   1.00
C335   C     0.30782   0.03277   0.93847   0.00000  Uiso   1.00
C336   C     0.37674   0.22181   0.93317   0.00000  Uiso   1.00
C337   C     0.42670   0.22329   0.92316   0.00000  Uiso   1.00
C338   C     0.44877   0.24035   0.86285   0.00000  Uiso   1.00
C339   C     0.49457   0.23864   0.86417   0.00000  Uiso   1.00
C340   C     0.36723   0.24578   0.00493   0.00000  Uiso   1.00
C341   C     0.33931   0.28174   0.01336   0.00000  Uiso   1.00
C342   C     0.33504   0.29896   0.08351   0.00000  Uiso   1.00
C343   C     0.36512   0.17349   0.94650   0.00000  Uiso   1.00
C344   C     0.33541   0.14868   0.90583   0.00000  Uiso   1.00
C345   C     0.32935   0.10504   0.92680   0.00000  Uiso   1.00
H346   H     0.43661   0.17431   0.08909   0.00000  Uiso   1.00
H347   H     0.51301   0.18938   0.03017   0.00000  Uiso   1.00
H348   H     0.40355   0.23076   0.18065   0.00000  Uiso   1.00
H349   H     0.39965   0.09772   0.07313   0.00000  Uiso   1.00
H350   H     0.58762   0.21410   0.93860   0.00000  Uiso   1.00
H351   H     0.35682   0.30135   0.25591   0.00000  Uiso   1.00
H352   H     0.34860   0.02081   0.02919   0.00000  Uiso   1.00
H353   H     0.35894   0.23593   0.88683   0.00000  Uiso   1.00
H354   H     0.43108   0.25439   0.81680   0.00000  Uiso   1.00
H355   H     0.32162   0.29577   0.96729   0.00000  Uiso   1.00
H356   H     0.31772   0.16273   0.85977   0.00000  Uiso   1.00
H357   H     0.52113   0.26687   0.76543   0.00000  Uiso   1.00
H358   H     0.29032   0.35411   0.08275   0.00000  Uiso   1.00
H359   H     0.28210   0.07357   0.85602   0.00000  Uiso   1.00
O360   O     0.60323   0.25152   0.80961   0.00000  Uiso   1.00
O361   O     0.30042   0.36598   0.22592   0.00000  Uiso   1.00
O362   O     0.28964   0.99792   0.92845   0.00000  Uiso   1.00
N363   N     0.56207   0.22398   0.90745   0.00000  Uiso   1.00
N364   N     0.34629   0.30555   0.20412   0.00000  Uiso   1.00
N365   N     0.33860   0.04328   0.99216   0.00000  Uiso   1.00
N366   N     0.52629   0.25237   0.81427   0.00000  Uiso   1.00
N367   N     0.31051   0.33394   0.11093   0.00000  Uiso   1.00
N368   N     0.30282   0.07167   0.89897   0.00000  Uiso   1.00
C369   C     0.31158   0.58118   0.29275   0.00000  Uiso   1.00
C370   C     0.29485   0.55044   0.23268   0.00000  Uiso   1.00
C371   C     0.29659   0.50467   0.23409   0.00000  Uiso   1.00
C372   C     0.27953   0.48253   0.17380   0.00000  Uiso   1.00
C373   C     0.25629   0.43133   0.08960   0.00000  Uiso   1.00
C374   C     0.27236   0.60991   0.31445   0.00000  Uiso   1.00
C375   C     0.25520   0.61414   0.38460   0.00000  Uiso   1.00
C376   C     0.21921   0.64206   0.39314   0.00000  Uiso   1.00
C377   C     0.16108   0.68320   0.43589   0.00000  Uiso   1.00
C378   C     0.34464   0.61202   0.25602   0.00000  Uiso   1.00
C379   C     0.38826   0.61804   0.27707   0.00000  Uiso   1.00
C380   C     0.41313   0.64775   0.23642   0.00000  Uiso   1.00
C381   C     0.46723   0.69218   0.18847   0.00000  Uiso   1.00
C382   C     0.27819   0.62326   0.18317   0.00000  Uiso   1.00
C383   C     0.27671   0.57330   0.17316   0.00000  Uiso   1.00
C384   C     0.25965   0.55123   0.11285   0.00000  Uiso   1.00
C385   C     0.26136   0.50543   0.11417   0.00000  Uiso   1.00
C386   C     0.25422   0.63277   0.25493   0.00000  Uiso   1.00
C387   C     0.21826   0.66069   0.26336   0.00000  Uiso   1.00
C388   C     0.20104   0.66496   0.33351   0.00000  Uiso   1.00
C389   C     0.32651   0.63488   0.19650   0.00000  Uiso   1.00
C390   C     0.35132   0.66459   0.15583   0.00000  Uiso   1.00
C391   C     0.39496   0.67065   0.17680   0.00000  Uiso   1.00
H392   H     0.32569   0.56339   0.33909   0.00000  Uiso   1.00
H393   H     0.31062   0.48699   0.28017   0.00000  Uiso   1.00
H394   H     0.26924   0.59645   0.43065   0.00000  Uiso   1.00
H395   H     0.40228   0.60035   0.32313   0.00000  Uiso   1.00
H396   H     0.28590   0.41238   0.18860   0.00000  Uiso   1.00
H397   H     0.19865   0.64318   0.50591   0.00000  Uiso   1.00
H398   H     0.47919   0.65140   0.27919   0.00000  Uiso   1.00
H399   H     0.26407   0.64106   0.13683   0.00000  Uiso   1.00
H400   H     0.24561   0.56892   0.06680   0.00000  Uiso   1.00
H401   H     0.20423   0.67838   0.21729   0.00000  Uiso   1.00
H402   H     0.33727   0.68228   0.10977   0.00000  Uiso   1.00
H403   H     0.23313   0.47887   0.01543   0.00000  Uiso   1.00
H404   H     0.14589   0.70968   0.33275   0.00000  Uiso   1.00
H405   H     0.42643   0.71790   0.10602   0.00000  Uiso   1.00
O406   O     0.24848   0.39677   0.05961   0.00000  Uiso   1.00
O407   O     0.13402   0.69958   0.47592   0.00000  Uiso   1.00
O408   O     0.50208   0.71036   0.17845   0.00000  Uiso   1.00
N409   N     0.27602   0.43793   0.15745   0.00000  Uiso   1.00
N410   N     0.19445   0.65371   0.45412   0.00000  Uiso   1.00
N411   N     0.45672   0.66140   0.24216   0.00000  Uiso   1.00
N412   N     0.24763   0.47371   0.06427   0.00000  Uiso   1.00
N413   N     0.16606   0.68949   0.36093   0.00000  Uiso   1.00
N414   N     0.42833   0.69718   0.14897   0.00000  Uiso   1.00
C415   C     0.81158   0.08118   0.79275   0.00000  Uiso   1.00
C416   C     0.79485   0.05044   0.73268   0.00000  Uiso   1.00
C417   C     0.79659   0.00467   0.73409   0.00000  Uiso   1.00
C418   C     0.77953   0.98253   0.67380   0.00000  Uiso   1.00
C419   C     0.75629   0.93133   0.58960   0.00000  Uiso   1.00
C420   C     0.77236   0.10991   0.81445   0.00000  Uiso   1.00
C421   C     0.75520   0.11414   0.88460   0.00000  Uiso   1.00
C422   C     0.71921   0.14206   0.89314   0.00000  Uiso   1.00
C423   C     0.66108   0.18320   0.93589   0.00000  Uiso   1.00
C424   C     0.84464   0.11202   0.75602   0.00000  Uiso   1.00
C425   C     0.88826   0.11804   0.77707   0.00000  Uiso   1.00
C426   C     0.91313   0.14775   0.73642   0.00000  Uiso   1.00
C427   C     0.96723   0.19218   0.68847   0.00000  Uiso   1.00
C428   C     0.77819   0.12326   0.68317   0.00000  Uiso   1.00
C429   C     0.77671   0.07330   0.67316   0.00000  Uiso   1.00
C430   C     0.75965   0.05123   0.61285   0.00000  Uiso   1.00
C431   C     0.76136   0.00543   0.61417   0.00000  Uiso   1.00
C432   C     0.75422   0.13277   0.75493   0.00000  Uiso   1.00
C433   C     0.71826   0.16069   0.76336   0.00000  Uiso   1.00
C434   C     0.70104   0.16496   0.83351   0.00000  Uiso   1.00
C435   C     0.82651   0.13488   0.69650   0.00000  Uiso   1.00
C436   C     0.85132   0.16459   0.65583   0.00000  Uiso   1.00
C437   C     0.89496   0.17065   0.67680   0.00000  Uiso   1.00
H438   H     0.82569   0.06339   0.83909   0.00000  Uiso   1.00
H439   H     0.81062   0.98699   0.78017   0.00000  Uiso   1.00
H440   H     0.76924   0.09645   0.93065   0.00000  Uiso   1.00
H441   H     0.90228   0.10035   0.82313   0.00000  Uiso   1.00
H442   H     0.78590   0.91238   0.68860   0.00000  Uiso   1.00
H443   H     0.69865   0.14318   0.00591   0.00000  Uiso   1.00
H444   H     0.97919   0.15140   0.77919   0.00000  Uiso   1.00
H445   H     0.76407   0.14106   0.63683   0.00000  Uiso   1.00
H446   H     0.74561   0.06892   0.56680   0.00000  Uiso   1.00
H447   H     0.70423   0.17838   0.71729   0.00000  Uiso   1.00
H448   H     0.83727   0.18228   0.60977   0.00000  Uiso   1.00
H449   H     0.73313   0.97887   0.51543   0.00000  Uiso   1.00
H450   H     0.64589   0.20968   0.83275   0.00000  Uiso   1.00
H451   H     0.92643   0.21790   0.60602   0.00000  Uiso   1.00
O452   O     0.74848   0.89677   0.55961   0.00000  Uiso   1.00
O453   O     0.63402   0.19958   0.97592   0.00000  Uiso   1.00
O454   O     0.00208   0.21036   0.67845   0.00000  Uiso   1.00
N455   N     0.77602   0.93793   0.65745   0.00000  Uiso   1.00
N456   N     0.69445   0.15371   0.95412   0.00000  Uiso   1.00
N457   N     0.95672   0.16140   0.74216   0.00000  Uiso   1.00
N458   N     0.74763   0.97371   0.56427   0.00000  Uiso   1.00
N459   N     0.66606   0.18949   0.86093   0.00000  Uiso   1.00
N460   N     0.92833   0.19718   0.64897   0.00000  Uiso   1.00
C461   C     0.18842   0.91882   0.79275   0.00000  Uiso   1.00
C462   C     0.20515   0.94956   0.73268   0.00000  Uiso   1.00
C463   C     0.20341   0.99533   0.73409   0.00000  Uiso   1.00
C464   C     0.22047   0.01747   0.67380   0.00000  Uiso   1.00
C465   C     0.24371   0.06867   0.58960   0.00000  Uiso   1.00
C466   C     0.22764   0.89009   0.81445   0.00000  Uiso   1.00
C467   C     0.24480   0.88586   0.88460   0.00000  Uiso   1.00
C468   C     0.28079   0.85794   0.89314   0.00000  Uiso   1.00
C469   C     0.33892   0.81680   0.93589   0.00000  Uiso   1.00
C470   C     0.15536   0.88798   0.75602   0.00000  Uiso   1.00
C471   C     0.11174   0.88196   0.77707   0.00000  Uiso   1.00
C472   C     0.08687   0.85225   0.73642   0.00000  Uiso   1.00
C473   C     0.03277   0.80782   0.68847   0.00000  Uiso   1.00
C474   C     0.22181   0.87674   0.68317   0.00000  Uiso   1.00
C475   C     0.22329   0.92670   0.67316   0.00000  Uiso   1.00
C476   C     0.24035   0.94877   0.61285   0.00000  Uiso   1.00
C477   C     0.23864   0.99457   0.61417   0.00000  Uiso   1.00
C478   C     0.24578   0.86723   0.75493   0.00000  Uiso   1.00
C479   C     0.28174   0.83931   0.76336   0.00000  Uiso   1.00
C480   C     0.29896   0.83504   0.83351   0.00000  Uiso   1.00
C481   C     0.17349   0.86512   0.69650   0.00000  Uiso   1.00
C482   C     0.14868   0.83541   0.65583   0.00000  Uiso   1.00
C483   C     0.10504   0.82935   0.67680   0.00000  Uiso   1.00
H484   H     0.17431   0.93661   0.83909   0.00000  Uiso   1.00
H485   H     0.18938   0.01301   0.78017   0.00000  Uiso   1.00
H486   H     0.23076   0.90355   0.93065   0.00000  Uiso   1.00
H487   H     0.09772   0.89965   0.82313   0.00000  Uiso   1.00
H488   H     0.21410   0.08762   0.68860   0.00000  Uiso   1.00
H489   H     0.30135   0.85682   0.00591   0.00000  Uiso   1.00
H490   H     0.02081   0.84860   0.77919   0.00000  Uiso   1.00
H491   H     0.23593   0.85894   0.63683   0.00000  Uiso   1.00
H492   H     0.25439   0.93108   0.56680   0.00000  Uiso   1.00
H493   H     0.29577   0.82162   0.71729   0.00000  Uiso   1.00
H494   H     0.16273   0.81772   0.60977   0.00000  Uiso   1.00
H495   H     0.26687   0.02113   0.51543   0.00000  Uiso   1.00
H496   H     0.35411   0.79032   0.83275   0.00000  Uiso   1.00
H497   H     0.07357   0.78210   0.60602   0.00000  Uiso   1.00
O498   O     0.25152   0.10323   0.55961   0.00000  Uiso   1.00
O499   O     0.36598   0.80042   0.97592   0.00000  Uiso   1.00
O500   O     0.99792   0.78964   0.67845   0.00000  Uiso   1.00
N501   N     0.22398   0.06207   0.65745   0.00000  Uiso   1.00
N502   N     0.30555   0.84629   0.95412   0.00000  Uiso   1.00
N503   N     0.04328   0.83860   0.74216   0.00000  Uiso   1.00
N504   N     0.25237   0.02629   0.56427   0.00000  Uiso   1.00
N505   N     0.33394   0.81051   0.86093   0.00000  Uiso   1.00
N506   N     0.07167   0.80282   0.64897   0.00000  Uiso   1.00
C507   C     0.68842   0.41882   0.29275   0.00000  Uiso   1.00
C508   C     0.70515   0.44956   0.23268   0.00000  Uiso   1.00
C509   C     0.70341   0.49533   0.23409   0.00000  Uiso   1.00
C510   C     0.72047   0.51747   0.17380   0.00000  Uiso   1.00
C511   C     0.74371   0.56867   0.08960   0.00000  Uiso   1.00
C512   C     0.72764   0.39009   0.31445   0.00000  Uiso   1.00
C513   C     0.74480   0.38586   0.38460   0.00000  Uiso   1.00
C514   C     0.78079   0.35794   0.39314   0.00000  Uiso   1.00
C515   C     0.83892   0.31680   0.43589   0.00000  Uiso   1.00
C516   C     0.65536   0.38798   0.25602   0.00000  Uiso   1.00
C517   C     0.61174   0.38196   0.27707   0.00000  Uiso   1.00
C518   C     0.58687   0.35225   0.23642   0.00000  Uiso   1.00
C519   C     0.53277   0.30782   0.18847   0.00000  Uiso   1.00
C520   C     0.72181   0.37674   0.18317   0.00000  Uiso   1.00
C521   C     0.72329   0.42670   0.17316   0.00000  Uiso   1.00
C522   C     0.74035   0.44877   0.11285   0.00000  Uiso   1.00
C523   C     0.73864   0.49457   0.11417   0.00000  Uiso   1.00
C524   C     0.74578   0.36723   0.25493   0.00000  Uiso   1.00
C525   C     0.78174   0.33931   0.26336   0.00000  Uiso   1.00
C526   C     0.79896   0.33504   0.33351   0.00000  Uiso   1.00
C527   C     0.67349   0.36512   0.19650   0.00000  Uiso   1.00
C528   C     0.64868   0.33541   0.15583   0.00000  Uiso   1.00
C529   C     0.60504   0.32935   0.17680   0.00000  Uiso   1.00
H530   H     0.67431   0.43661   0.33909   0.00000  Uiso   1.00
H531   H     0.68938   0.51301   0.28017   0.00000  Uiso   1.00
H532   H     0.73076   0.40355   0.43065   0.00000  Uiso   1.00
H533   H     0.59772   0.39965   0.32313   0.00000  Uiso   1.00
H534   H     0.71410   0.58762   0.18860   0.00000  Uiso   1.00
H535   H     0.80135   0.35682   0.50591   0.00000  Uiso   1.00
H536   H     0.52081   0.34860   0.27919   0.00000  Uiso   1.00
H537   H     0.73593   0.35894   0.13683   0.00000  Uiso   1.00
H538   H     0.75439   0.43108   0.06680   0.00000  Uiso   1.00
H539   H     0.79577   0.32162   0.21729   0.00000  Uiso   1.00
H540   H     0.66273   0.31772   0.10977   0.00000  Uiso   1.00
H541   H     0.76687   0.52113   0.01543   0.00000  Uiso   1.00
H542   H     0.85411   0.29032   0.33275   0.00000  Uiso   1.00
H543   H     0.57357   0.28210   0.10602   0.00000  Uiso   1.00
O544   O     0.75152   0.60323   0.05961   0.00000  Uiso   1.00
O545   O     0.86598   0.30042   0.47592   0.00000  Uiso   1.00
O546   O     0.49792   0.28964   0.17845   0.00000  Uiso   1.00
N547   N     0.72398   0.56207   0.15745   0.00000  Uiso   1.00
N548   N     0.80555   0.34629   0.45412   0.00000  Uiso   1.00
N549   N     0.54328   0.33860   0.24216   0.00000  Uiso   1.00
N550   N     0.75237   0.52629   0.06427   0.00000  Uiso   1.00
N551   N     0.83394   0.31051   0.36093   0.00000  Uiso   1.00
N552   N     0.57167   0.30282   0.14897   0.00000  Uiso   1.00
C553   C     0.58118   0.18842   0.54275   0.00000  Uiso   1.00
C554   C     0.55044   0.20515   0.48268   0.00000  Uiso   1.00
C555   C     0.50467   0.20341   0.48409   0.00000  Uiso   1.00
C556   C     0.48253   0.22047   0.42380   0.00000  Uiso   1.00
C557   C     0.43133   0.24371   0.33960   0.00000  Uiso   1.00
C558   C     0.60991   0.22764   0.56445   0.00000  Uiso   1.00
C559   C     0.61414   0.24480   0.63460   0.00000  Uiso   1.00
C560   C     0.64206   0.28079   0.64314   0.00000  Uiso   1.00
C561   C     0.68320   0.33892   0.68589   0.00000  Uiso   1.00
C562   C     0.61202   0.15536   0.50602   0.00000  Uiso   1.00
C563   C     0.61804   0.11174   0.52707   0.00000  Uiso   1.00
C564   C     0.64775   0.08687   0.48642   0.00000  Uiso   1.00
C565   C     0.69218   0.03277   0.43847   0.00000  Uiso   1.00
C566   C     0.62326   0.22181   0.43317   0.00000  Uiso   1.00
C567   C     0.57330   0.22329   0.42316   0.00000  Uiso   1.00
C568   C     0.55123   0.24035   0.36285   0.00000  Uiso   1.00
C569   C     0.50543   0.23864   0.36417   0.00000  Uiso   1.00
C570   C     0.63277   0.24578   0.50493   0.00000  Uiso   1.00
C571   C     0.66069   0.28174   0.51336   0.00000  Uiso   1.00
C572   C     0.66496   0.29896   0.58351   0.00000  Uiso   1.00
C573   C     0.63488   0.17349   0.44650   0.00000  Uiso   1.00
C574   C     0.66459   0.14868   0.40583   0.00000  Uiso   1.00
C575   C     0.67065   0.10504   0.42680   0.00000  Uiso   1.00
H576   H     0.56339   0.17431   0.58909   0.00000  Uiso   1.00
H577   H     0.48699   0.18938   0.53017   0.00000  Uiso   1.00
H578   H     0.59645   0.23076   0.68065   0.00000  Uiso   1.00
H579   H     0.60035   0.09772   0.57313   0.00000  Uiso   1.00
H580   H     0.41238   0.21410   0.43860   0.00000  Uiso   1.00
H581   H     0.64318   0.30135   0.75591   0.00000  Uiso   1.00
H582   H     0.65140   0.02081   0.52919   0.00000  Uiso   1.00
H583   H     0.64106   0.23593   0.38683   0.00000  Uiso   1.00
H584   H     0.56892   0.25439   0.31680   0.00000  Uiso   1.00
H585   H     0.67838   0.29577   0.46729   0.00000  Uiso   1.00
H586   H     0.68228   0.16273   0.35977   0.00000  Uiso   1.00
H587   H     0.47887   0.26687   0.26543   0.00000  Uiso   1.00
H588   H     0.70968   0.35411   0.58275   0.00000  Uiso   1.00
H589   H     0.71790   0.07357   0.35602   0.00000  Uiso   1.00
O590   O     0.39677   0.25152   0.30961   0.00000  Uiso   1.00
O591   O     0.69958   0.36598   0.72592   0.00000  Uiso   1.00
O592   O     0.71036   0.99792   0.42845   0.00000  Uiso   1.00
N593   N     0.43793   0.22398   0.40745   0.00000  Uiso   1.00
N594   N     0.65371   0.30555   0.70412   0.00000  Uiso   1.00
N595   N     0.66140   0.04328   0.49216   0.00000  Uiso   1.00
N596   N     0.47371   0.25237   0.31427   0.00000  Uiso   1.00
N597   N     0.68949   0.33394   0.61093   0.00000  Uiso   1.00
N598   N     0.69718   0.07167   0.39897   0.00000  Uiso   1.00
C599   C     0.08118   0.68842   0.04275   0.00000  Uiso   1.00
C600   C     0.05044   0.70515   0.98268   0.00000  Uiso   1.00
C601   C     0.00467   0.70341   0.98409   0.00000  Uiso   1.00
C602   C     0.98253   0.72047   0.92380   0.00000  Uiso   1.00
C603   C     0.93133   0.74371   0.83960   0.00000  Uiso   1.00
C604   C     0.10991   0.72764   0.06445   0.00000  Uiso   1.00
C605   C     0.11414   0.74480   0.13460   0.00000  Uiso   1.00
C606   C     0.14206   0.78079   0.14314   0.00000  Uiso   1.00
C607   C     0.18320   0.83892   0.18589   0.00000  Uiso   1.00
C608   C     0.11202   0.65536   0.00602   0.00000  Uiso   1.00
C609   C     0.11804   0.61174   0.02707   0.00000  Uiso   1.00
C610   C     0.14775   0.58687   0.98642   0.00000  Uiso   1.00
C611   C     0.19218   0.53277   0.93847   0.00000  Uiso   1.00
C612   C     0.12326   0.72181   0.93317   0.00000  Uiso   1.00
C613   C     0.07330   0.72329   0.92316   0.00000  Uiso   1.00
C614   C     0.05123   0.74035   0.86285   0.00000  Uiso   1.00
C615   C     0.00543   0.73864   0.86417   0.00000  Uiso   1.00
C616   C     0.13277   0.74578   0.00493   0.00000  Uiso   1.00
C617   C     0.16069   0.78174   0.01336   0.00000  Uiso   1.00
C618   C     0.16496   0.79896   0.08351   0.00000  Uiso   1.00
C619   C     0.13488   0.67349   0.94650   0.00000  Uiso   1.00
C620   C     0.16459   0.64868   0.90583   0.00000  Uiso   1.00
C621   C     0.17065   0.60504   0.92680   0.00000  Uiso   1.00
H622   H     0.06339   0.67431   0.08909   0.00000  Uiso   1.00
H623   H     0.98699   0.68938   0.03017   0.00000  Uiso   1.00
H624   H     0.09645   0.73076   0.18065   0.00000  Uiso   1.00
H625   H     0.10035   0.59772   0.07313   0.00000  Uiso   1.00
H626   H     0.91238   0.71410   0.93860   0.00000  Uiso   1.00
H627   H     0.14318   0.80135   0.25591   0.00000  Uiso   1.00
H628   H     0.15140   0.52081   0.02919   0.00000  Uiso   1.00
H629   H     0.14106   0.73593   0.88683   0.00000  Uiso   1.00
H630   H     0.06892   0.75439   0.81680   0.00000  Uiso   1.00
H631   H     0.17838   0.79577   0.96729   0.00000  Uiso   1.00
H632   H     0.18228   0.66273   0.85977   0.00000  Uiso   1.00
H633   H     0.97887   0.76687   0.76543   0.00000  Uiso   1.00
H634   H     0.20968   0.85411   0.08275   0.00000  Uiso   1.00
H635   H     0.21790   0.57357   0.85602   0.00000  Uiso   1.00
O636   O     0.89677   0.75152   0.80961   0.00000  Uiso   1.00
O637   O     0.19958   0.86598   0.22592   0.00000  Uiso   1.00
O638   O     0.21036   0.49792   0.92845   0.00000  Uiso   1.00
N639   N     0.93793   0.72398   0.90745   0.00000  Uiso   1.00
N640   N     0.15371   0.80555   0.20412   0.00000  Uiso   1.00
N641   N     0.16140   0.54328   0.99216   0.00000  Uiso   1.00
N642   N     0.97371   0.75237   0.81427   0.00000  Uiso   1.00
N643   N     0.18949   0.83394   0.11093   0.00000  Uiso   1.00
N644   N     0.19718   0.57167   0.89897   0.00000  Uiso   1.00
C645   C     0.91882   0.31158   0.04275   0.00000  Uiso   1.00
C646   C     0.94956   0.29485   0.98268   0.00000  Uiso   1.00
C647   C     0.99533   0.29659   0.98409   0.00000  Uiso   1.00
C648   C     0.01747   0.27953   0.92380   0.00000  Uiso   1.00
C649   C     0.06867   0.25629   0.83960   0.00000  Uiso   1.00
C650   C     0.89009   0.27236   0.06445   0.00000  Uiso   1.00
C651   C     0.88586   0.25520   0.13460   0.00000  Uiso   1.00
C652   C     0.85794   0.21921   0.14314   0.00000  Uiso   1.00
C653   C     0.81680   0.16108   0.18589   0.00000  Uiso   1.00
C654   C     0.88798   0.34464   0.00602   0.00000  Uiso   1.00
C655   C     0.88196   0.38826   0.02707   0.00000  Uiso   1.00
C656   C     0.85225   0.41313   0.98642   0.00000  Uiso   1.00
C657   C     0.80782   0.46723   0.93847   0.00000  Uiso   1.00
C658   C     0.87674   0.27819   0.93317   0.00000  Uiso   1.00
C659   C     0.92670   0.27671   0.92316   0.00000  Uiso   1.00
C660   C     0.94877   0.25965   0.86285   0.00000  Uiso   1.00
C661   C     0.99457   0.26136   0.86417   0.00000  Uiso   1.00
C662   C     0.86723   0.25422   0.00493   0.00000  Uiso   1.00
C663   C     0.83931   0.21826   0.01336   0.00000  Uiso   1.00
C664   C     0.83504   0.20104   0.08351   0.00000  Uiso   1.00
C665   C     0.86512   0.32651   0.94650   0.00000  Uiso   1.00
C666   C     0.83541   0.35132   0.90583   0.00000  Uiso   1.00
C667   C     0.82935   0.39496   0.92680   0.00000  Uiso   1.00
H668   H     0.93661   0.32569   0.08909   0.00000  Uiso   1.00
H669   H     0.01301   0.31062   0.03017   0.00000  Uiso   1.00
H670   H     0.90355   0.26924   0.18065   0.00000  Uiso   1.00
H671   H     0.89965   0.40228   0.07313   0.00000  Uiso   1.00
H672   H     0.08762   0.28590   0.93860   0.00000  Uiso   1.00
H673   H     0.85682   0.19865   0.25591   0.00000  Uiso   1.00
H674   H     0.84860   0.47919   0.02919   0.00000  Uiso   1.00
H675   H     0.85894   0.26407   0.88683   0.00000  Uiso   1.00
H676   H     0.93108   0.24561   0.81680   0.00000  Uiso   1.00
H677   H     0.82162   0.20423   0.96729   0.00000  Uiso   1.00
H678   H     0.81772   0.33727   0.85977   0.00000  Uiso   1.00
H679   H     0.02113   0.23313   0.76543   0.00000  Uiso   1.00
H680   H     0.79032   0.14589   0.08275   0.00000  Uiso   1.00
H681   H     0.78210   0.42643   0.85602   0.00000  Uiso   1.00
O682   O     0.10323   0.24848   0.80961   0.00000  Uiso   1.00
O683   O     0.80042   0.13402   0.22592   0.00000  Uiso   1.00
O684   O     0.78964   0.50208   0.92845   0.00000  Uiso   1.00
N685   N     0.06207   0.27602   0.90745   0.00000  Uiso   1.00
N686   N     0.84629   0.19445   0.20412   0.00000  Uiso   1.00
N687   N     0.83860   0.45672   0.99216   0.00000  Uiso   1.00
N688   N     0.02629   0.24763   0.81427   0.00000  Uiso   1.00
N689   N     0.81051   0.16606   0.11093   0.00000  Uiso   1.00
N690   N     0.80282   0.42833   0.89897   0.00000  Uiso   1.00
C691   C     0.41882   0.81158   0.54275   0.00000  Uiso   1.00
C692   C     0.44956   0.79485   0.48268   0.00000  Uiso   1.00
C693   C     0.49533   0.79659   0.48409   0.00000  Uiso   1.00
C694   C     0.51747   0.77953   0.42380   0.00000  Uiso   1.00
C695   C     0.56867   0.75629   0.33960   0.00000  Uiso   1.00
C696   C     0.39009   0.77236   0.56445   0.00000  Uiso   1.00
C697   C     0.38586   0.75520   0.63460   0.00000  Uiso   1.00
C698   C     0.35794   0.71921   0.64314   0.00000  Uiso   1.00
C699   C     0.31680   0.66108   0.68589   0.00000  Uiso   1.00
C700   C     0.38798   0.84464   0.50602   0.00000  Uiso   1.00
C701   C     0.38196   0.88826   0.52707   0.00000  Uiso   1.00
C702   C     0.35225   0.91313   0.48642   0.00000  Uiso   1.00
C703   C     0.30782   0.96723   0.43847   0.00000  Uiso   1.00
C704   C     0.37674   0.77819   0.43317   0.00000  Uiso   1.00
C705   C     0.42670   0.77671   0.42316   0.00000  Uiso   1.00
C706   C     0.44877   0.75965   0.36285   0.00000  Uiso   1.00
C707   C     0.49457   0.76136   0.36417   0.00000  Uiso   1.00
C708   C     0.36723   0.75422   0.50493   0.00000  Uiso   1.00
C709   C     0.33931   0.71826   0.51336   0.00000  Uiso   1.00
C710   C     0.33504   0.70104   0.58351   0.00000  Uiso   1.00
C711   C     0.36512   0.82651   0.44650   0.00000  Uiso   1.00
C712   C     0.33541   0.85132   0.40583   0.00000  Uiso   1.00
C713   C     0.32935   0.89496   0.42680   0.00000  Uiso   1.00
H714   H     0.43661   0.82569   0.58909   0.00000  Uiso   1.00
H715   H     0.51301   0.81062   0.53017   0.00000  Uiso   1.00
H716   H     0.40355   0.76924   0.68065   0.00000  Uiso   1.00
H717   H     0.39965   0.90228   0.57313   0.00000  Uiso   1.00
H718   H     0.58762   0.78590   0.43860   0.00000  Uiso   1.00
H719   H     0.35682   0.69865   0.75591   0.00000  Uiso   1.00
H720   H     0.34860   0.97919   0.52919   0.00000  Uiso   1.00
H721   H     0.35894   0.76407   0.38683   0.00000  Uiso   1.00
H722   H     0.43108   0.74561   0.31680   0.00000  Uiso   1.00
H723   H     0.32162   0.70423   0.46729   0.00000  Uiso   1.00
H724   H     0.31772   0.83727   0.35977   0.00000  Uiso   1.00
H725   H     0.52113   0.73313   0.26543   0.00000  Uiso   1.00
H726   H     0.29032   0.64589   0.58275   0.00000  Uiso   1.00
H727   H     0.28210   0.92643   0.35602   0.00000  Uiso   1.00
O728   O     0.60323   0.74848   0.30961   0.00000  Uiso   1.00
O729   O     0.30042   0.63402   0.72592   0.00000  Uiso   1.00
O730   O     0.28964   0.00208   0.42845   0.00000  Uiso   1.00
N731   N     0.56207   0.77602   0.40745   0.00000  Uiso   1.00
N732   N     0.34629   0.69445   0.70412   0.00000  Uiso   1.00
N733   N     0.33860   0.95672   0.49216   0.00000  Uiso   1.00
N734   N     0.52629   0.74763   0.31427   0.00000  Uiso   1.00
N735   N     0.31051   0.66606   0.61093   0.00000  Uiso   1.00
N736   N     0.30282   0.92833   0.39897   0.00000  Uiso   1.00
