data_job_05899
_audit_creation_date              2018-12-19
_audit_creation_method            'Materials Studio'
_symmetry_space_group_name_H-M    'P1'
_symmetry_Int_Tables_number       1
_symmetry_cell_setting            triclinic
loop_
_symmetry_equiv_pos_as_xyz
  x,y,z
_cell_length_a                    25.7066
_cell_length_b                    43.0283
_cell_length_c                    12.5680
_cell_angle_alpha                 90.0000
_cell_angle_beta                  90.0000
_cell_angle_gamma                 90.0000
loop_
_atom_site_label
_atom_site_type_symbol
_atom_site_fract_x
_atom_site_fract_y
_atom_site_fract_z
_atom_site_U_iso_or_equiv
_atom_site_adp_type
_atom_site_occupancy
C1     C     0.52654   0.69214   0.58586   0.00000  Uiso   1.00
C2     C     0.47128   0.70471   0.57600   0.00000  Uiso   1.00
C3     C     0.45611   0.73521   0.59405   0.00000  Uiso   1.00
C4     C     0.40373   0.74206   0.58083   0.00000  Uiso   1.00
C5     C     0.32338   0.76505   0.57016   0.00000  Uiso   1.00
C6     C     0.52366   0.66533   0.66501   0.00000  Uiso   1.00
C7     C     0.55253   0.66272   0.75789   0.00000  Uiso   1.00
C8     C     0.54425   0.63642   0.81960   0.00000  Uiso   1.00
C9     C     0.54526   0.59827   0.94708   0.00000  Uiso   1.00
C10    C     0.53941   0.67754   0.47848   0.00000  Uiso   1.00
C11    C     0.58153   0.68518   0.41455   0.00000  Uiso   1.00
C12    C     0.58650   0.66915   0.31921   0.00000  Uiso   1.00
C13    C     0.61196   0.64995   0.15709   0.00000  Uiso   1.00
C14    C     0.46050   0.65006   0.53027   0.00000  Uiso   1.00
C15    C     0.43542   0.68186   0.54581   0.00000  Uiso   1.00
C16    C     0.38304   0.68866   0.53255   0.00000  Uiso   1.00
C17    C     0.36779   0.71916   0.55058   0.00000  Uiso   1.00
C18    C     0.48780   0.64248   0.63482   0.00000  Uiso   1.00
C19    C     0.47947   0.61617   0.69639   0.00000  Uiso   1.00
C20    C     0.50832   0.61352   0.78935   0.00000  Uiso   1.00
C21    C     0.50354   0.65469   0.44829   0.00000  Uiso   1.00
C22    C     0.50846   0.63863   0.35304   0.00000  Uiso   1.00
C23    C     0.55057   0.64625   0.28897   0.00000  Uiso   1.00
H24    H     0.55446   0.70993   0.60937   0.00000  Uiso   1.00
H25    H     0.48388   0.75289   0.61742   0.00000  Uiso   1.00
H26    H     0.58029   0.68041   0.78123   0.00000  Uiso   1.00
H27    H     0.60927   0.70287   0.43794   0.00000  Uiso   1.00
H28    H     0.38980   0.79044   0.61308   0.00000  Uiso   1.00
H29    H     0.59310   0.63761   0.95846   0.00000  Uiso   1.00
H30    H     0.65422   0.68497   0.23455   0.00000  Uiso   1.00
H31    H     0.43258   0.63227   0.50676   0.00000  Uiso   1.00
H32    H     0.35530   0.67097   0.50918   0.00000  Uiso   1.00
H33    H     0.45171   0.59849   0.67300   0.00000  Uiso   1.00
H34    H     0.48069   0.62095   0.32970   0.00000  Uiso   1.00
H35    H     0.28543   0.72394   0.52523   0.00000  Uiso   1.00
H36    H     0.48875   0.57112   0.87062   0.00000  Uiso   1.00
H37    H     0.54986   0.61848   0.14671   0.00000  Uiso   1.00
O38    O     0.28898   0.78405   0.57263   0.00000  Uiso   1.00
O39    O     0.55572   0.58354   0.02575   0.00000  Uiso   1.00
O40    O     0.63590   0.64567   0.07600   0.00000  Uiso   1.00
N41    N     0.37584   0.76948   0.59205   0.00000  Uiso   1.00
N42    N     0.56592   0.62660   0.91497   0.00000  Uiso   1.00
N43    N     0.62307   0.67087   0.23819   0.00000  Uiso   1.00
N44    N     0.31969   0.73370   0.54478   0.00000  Uiso   1.00
N45    N     0.50976   0.59082   0.86770   0.00000  Uiso   1.00
N46    N     0.56691   0.63509   0.19092   0.00000  Uiso   1.00
C47    C     0.52654   0.19214   0.08586   0.00000  Uiso   1.00
C48    C     0.47128   0.20471   0.07600   0.00000  Uiso   1.00
C49    C     0.45611   0.23521   0.09405   0.00000  Uiso   1.00
C50    C     0.40373   0.24206   0.08083   0.00000  Uiso   1.00
C51    C     0.32338   0.26505   0.07016   0.00000  Uiso   1.00
C52    C     0.52366   0.16533   0.16501   0.00000  Uiso   1.00
C53    C     0.55253   0.16272   0.25789   0.00000  Uiso   1.00
C54    C     0.54425   0.13642   0.31960   0.00000  Uiso   1.00
C55    C     0.54526   0.09827   0.44708   0.00000  Uiso   1.00
C56    C     0.53941   0.17754   0.97848   0.00000  Uiso   1.00
C57    C     0.58153   0.18518   0.91455   0.00000  Uiso   1.00
C58    C     0.58650   0.16915   0.81921   0.00000  Uiso   1.00
C59    C     0.61196   0.14995   0.65709   0.00000  Uiso   1.00
C60    C     0.46050   0.15006   0.03027   0.00000  Uiso   1.00
C61    C     0.43542   0.18186   0.04581   0.00000  Uiso   1.00
C62    C     0.38304   0.18866   0.03255   0.00000  Uiso   1.00
C63    C     0.36779   0.21916   0.05058   0.00000  Uiso   1.00
C64    C     0.48780   0.14248   0.13482   0.00000  Uiso   1.00
C65    C     0.47947   0.11617   0.19639   0.00000  Uiso   1.00
C66    C     0.50832   0.11352   0.28935   0.00000  Uiso   1.00
C67    C     0.50354   0.15469   0.94829   0.00000  Uiso   1.00
C68    C     0.50846   0.13863   0.85304   0.00000  Uiso   1.00
C69    C     0.55057   0.14625   0.78897   0.00000  Uiso   1.00
H70    H     0.55446   0.20993   0.10937   0.00000  Uiso   1.00
H71    H     0.48388   0.25289   0.11742   0.00000  Uiso   1.00
H72    H     0.58029   0.18041   0.28123   0.00000  Uiso   1.00
H73    H     0.60927   0.20287   0.93794   0.00000  Uiso   1.00
H74    H     0.38980   0.29044   0.11308   0.00000  Uiso   1.00
H75    H     0.59310   0.13761   0.45846   0.00000  Uiso   1.00
H76    H     0.65422   0.18497   0.73455   0.00000  Uiso   1.00
H77    H     0.43258   0.13227   0.00676   0.00000  Uiso   1.00
H78    H     0.35530   0.17097   0.00918   0.00000  Uiso   1.00
H79    H     0.45171   0.09849   0.17300   0.00000  Uiso   1.00
H80    H     0.48069   0.12095   0.82970   0.00000  Uiso   1.00
H81    H     0.28543   0.22394   0.02523   0.00000  Uiso   1.00
H82    H     0.48875   0.07112   0.37062   0.00000  Uiso   1.00
H83    H     0.54986   0.11848   0.64671   0.00000  Uiso   1.00
O84    O     0.28898   0.28405   0.07263   0.00000  Uiso   1.00
O85    O     0.55572   0.08354   0.52575   0.00000  Uiso   1.00
O86    O     0.63590   0.14567   0.57600   0.00000  Uiso   1.00
N87    N     0.37584   0.26948   0.09205   0.00000  Uiso   1.00
N88    N     0.56592   0.12660   0.41497   0.00000  Uiso   1.00
N89    N     0.62307   0.17087   0.73819   0.00000  Uiso   1.00
N90    N     0.31969   0.23370   0.04478   0.00000  Uiso   1.00
N91    N     0.50976   0.09082   0.36770   0.00000  Uiso   1.00
N92    N     0.56691   0.13509   0.69092   0.00000  Uiso   1.00
C93    C     0.02654   0.69214   0.08586   0.00000  Uiso   1.00
C94    C     0.97128   0.70471   0.07600   0.00000  Uiso   1.00
C95    C     0.95611   0.73521   0.09405   0.00000  Uiso   1.00
C96    C     0.90373   0.74206   0.08083   0.00000  Uiso   1.00
C97    C     0.82338   0.76505   0.07016   0.00000  Uiso   1.00
C98    C     0.02366   0.66533   0.16501   0.00000  Uiso   1.00
C99    C     0.05253   0.66272   0.25789   0.00000  Uiso   1.00
C100   C     0.04425   0.63642   0.31960   0.00000  Uiso   1.00
C101   C     0.04526   0.59827   0.44708   0.00000  Uiso   1.00
C102   C     0.03941   0.67754   0.97848   0.00000  Uiso   1.00
C103   C     0.08153   0.68518   0.91455   0.00000  Uiso   1.00
C104   C     0.08650   0.66915   0.81921   0.00000  Uiso   1.00
C105   C     0.11196   0.64995   0.65709   0.00000  Uiso   1.00
C106   C     0.96050   0.65006   0.03027   0.00000  Uiso   1.00
C107   C     0.93542   0.68186   0.04581   0.00000  Uiso   1.00
C108   C     0.88304   0.68866   0.03255   0.00000  Uiso   1.00
C109   C     0.86779   0.71916   0.05058   0.00000  Uiso   1.00
C110   C     0.98780   0.64248   0.13482   0.00000  Uiso   1.00
C111   C     0.97947   0.61617   0.19639   0.00000  Uiso   1.00
C112   C     0.00832   0.61352   0.28935   0.00000  Uiso   1.00
C113   C     0.00354   0.65469   0.94829   0.00000  Uiso   1.00
C114   C     0.00846   0.63863   0.85304   0.00000  Uiso   1.00
C115   C     0.05057   0.64625   0.78897   0.00000  Uiso   1.00
H116   H     0.05446   0.70993   0.10937   0.00000  Uiso   1.00
H117   H     0.98388   0.75289   0.11742   0.00000  Uiso   1.00
H118   H     0.08029   0.68041   0.28123   0.00000  Uiso   1.00
H119   H     0.10927   0.70287   0.93794   0.00000  Uiso   1.00
H120   H     0.88980   0.79044   0.11308   0.00000  Uiso   1.00
H121   H     0.09310   0.63761   0.45846   0.00000  Uiso   1.00
H122   H     0.15422   0.68497   0.73455   0.00000  Uiso   1.00
H123   H     0.93258   0.63227   0.00676   0.00000  Uiso   1.00
H124   H     0.85530   0.67097   0.00918   0.00000  Uiso   1.00
H125   H     0.95171   0.59849   0.17300   0.00000  Uiso   1.00
H126   H     0.98069   0.62095   0.82970   0.00000  Uiso   1.00
H127   H     0.78543   0.72394   0.02523   0.00000  Uiso   1.00
H128   H     0.98875   0.57112   0.37062   0.00000  Uiso   1.00
H129   H     0.04986   0.61848   0.64671   0.00000  Uiso   1.00
O130   O     0.78898   0.78405   0.07263   0.00000  Uiso   1.00
O131   O     0.05572   0.58354   0.52575   0.00000  Uiso   1.00
O132   O     0.13590   0.64567   0.57600   0.00000  Uiso   1.00
N133   N     0.87584   0.76948   0.09205   0.00000  Uiso   1.00
N134   N     0.06592   0.62660   0.41497   0.00000  Uiso   1.00
N135   N     0.12307   0.67087   0.73819   0.00000  Uiso   1.00
N136   N     0.81969   0.73370   0.04478   0.00000  Uiso   1.00
N137   N     0.00976   0.59082   0.36770   0.00000  Uiso   1.00
N138   N     0.06691   0.63509   0.69092   0.00000  Uiso   1.00
C139   C     0.02654   0.19214   0.58586   0.00000  Uiso   1.00
C140   C     0.97128   0.20471   0.57600   0.00000  Uiso   1.00
C141   C     0.95611   0.23521   0.59405   0.00000  Uiso   1.00
C142   C     0.90373   0.24206   0.58083   0.00000  Uiso   1.00
C143   C     0.82338   0.26505   0.57016   0.00000  Uiso   1.00
C144   C     0.02366   0.16533   0.66501   0.00000  Uiso   1.00
C145   C     0.05253   0.16272   0.75789   0.00000  Uiso   1.00
C146   C     0.04425   0.13642   0.81960   0.00000  Uiso   1.00
C147   C     0.04526   0.09827   0.94708   0.00000  Uiso   1.00
C148   C     0.03941   0.17754   0.47848   0.00000  Uiso   1.00
C149   C     0.08153   0.18518   0.41455   0.00000  Uiso   1.00
C150   C     0.08650   0.16915   0.31921   0.00000  Uiso   1.00
C151   C     0.11196   0.14995   0.15709   0.00000  Uiso   1.00
C152   C     0.96050   0.15006   0.53027   0.00000  Uiso   1.00
C153   C     0.93542   0.18186   0.54581   0.00000  Uiso   1.00
C154   C     0.88304   0.18866   0.53255   0.00000  Uiso   1.00
C155   C     0.86779   0.21916   0.55058   0.00000  Uiso   1.00
C156   C     0.98780   0.14248   0.63482   0.00000  Uiso   1.00
C157   C     0.97947   0.11617   0.69639   0.00000  Uiso   1.00
C158   C     0.00832   0.11352   0.78935   0.00000  Uiso   1.00
C159   C     0.00354   0.15469   0.44829   0.00000  Uiso   1.00
C160   C     0.00846   0.13863   0.35304   0.00000  Uiso   1.00
C161   C     0.05057   0.14625   0.28897   0.00000  Uiso   1.00
H162   H     0.05446   0.20993   0.60937   0.00000  Uiso   1.00
H163   H     0.98388   0.25289   0.61742   0.00000  Uiso   1.00
H164   H     0.08029   0.18041   0.78123   0.00000  Uiso   1.00
H165   H     0.10927   0.20287   0.43794   0.00000  Uiso   1.00
H166   H     0.88980   0.29044   0.61308   0.00000  Uiso   1.00
H167   H     0.09310   0.13761   0.95846   0.00000  Uiso   1.00
H168   H     0.15422   0.18497   0.23455   0.00000  Uiso   1.00
H169   H     0.93258   0.13227   0.50676   0.00000  Uiso   1.00
H170   H     0.85530   0.17097   0.50918   0.00000  Uiso   1.00
H171   H     0.95171   0.09849   0.67300   0.00000  Uiso   1.00
H172   H     0.98069   0.12095   0.32970   0.00000  Uiso   1.00
H173   H     0.78543   0.22394   0.52523   0.00000  Uiso   1.00
H174   H     0.98875   0.07112   0.87062   0.00000  Uiso   1.00
H175   H     0.04986   0.11848   0.14671   0.00000  Uiso   1.00
O176   O     0.78898   0.28405   0.57263   0.00000  Uiso   1.00
O177   O     0.05572   0.08354   0.02575   0.00000  Uiso   1.00
O178   O     0.13590   0.14567   0.07600   0.00000  Uiso   1.00
N179   N     0.87584   0.26948   0.59205   0.00000  Uiso   1.00
N180   N     0.06592   0.12660   0.91497   0.00000  Uiso   1.00
N181   N     0.12307   0.17087   0.23819   0.00000  Uiso   1.00
N182   N     0.81969   0.23370   0.54478   0.00000  Uiso   1.00
N183   N     0.00976   0.09082   0.86770   0.00000  Uiso   1.00
N184   N     0.06691   0.13509   0.19092   0.00000  Uiso   1.00
C185   C     0.47346   0.30786   0.58586   0.00000  Uiso   1.00
C186   C     0.52872   0.29529   0.57600   0.00000  Uiso   1.00
C187   C     0.54389   0.26479   0.59405   0.00000  Uiso   1.00
C188   C     0.59627   0.25794   0.58083   0.00000  Uiso   1.00
C189   C     0.67662   0.23495   0.57016   0.00000  Uiso   1.00
C190   C     0.47634   0.33467   0.66501   0.00000  Uiso   1.00
C191   C     0.44747   0.33728   0.75789   0.00000  Uiso   1.00
C192   C     0.45575   0.36358   0.81960   0.00000  Uiso   1.00
C193   C     0.45474   0.40173   0.94708   0.00000  Uiso   1.00
C194   C     0.46059   0.32246   0.47848   0.00000  Uiso   1.00
C195   C     0.41847   0.31482   0.41455   0.00000  Uiso   1.00
C196   C     0.41350   0.33085   0.31921   0.00000  Uiso   1.00
C197   C     0.38804   0.35005   0.15709   0.00000  Uiso   1.00
C198   C     0.53950   0.34994   0.53027   0.00000  Uiso   1.00
C199   C     0.56458   0.31814   0.54581   0.00000  Uiso   1.00
C200   C     0.61696   0.31134   0.53255   0.00000  Uiso   1.00
C201   C     0.63221   0.28084   0.55058   0.00000  Uiso   1.00
C202   C     0.51220   0.35752   0.63482   0.00000  Uiso   1.00
C203   C     0.52053   0.38383   0.69639   0.00000  Uiso   1.00
C204   C     0.49168   0.38648   0.78935   0.00000  Uiso   1.00
C205   C     0.49646   0.34531   0.44829   0.00000  Uiso   1.00
C206   C     0.49154   0.36137   0.35304   0.00000  Uiso   1.00
C207   C     0.44943   0.35375   0.28897   0.00000  Uiso   1.00
H208   H     0.44554   0.29007   0.60937   0.00000  Uiso   1.00
H209   H     0.51612   0.24711   0.61742   0.00000  Uiso   1.00
H210   H     0.41971   0.31959   0.78123   0.00000  Uiso   1.00
H211   H     0.39073   0.29713   0.43794   0.00000  Uiso   1.00
H212   H     0.61020   0.20956   0.61308   0.00000  Uiso   1.00
H213   H     0.40690   0.36239   0.95846   0.00000  Uiso   1.00
H214   H     0.34578   0.31503   0.23455   0.00000  Uiso   1.00
H215   H     0.56742   0.36773   0.50676   0.00000  Uiso   1.00
H216   H     0.64470   0.32903   0.50918   0.00000  Uiso   1.00
H217   H     0.54829   0.40151   0.67300   0.00000  Uiso   1.00
H218   H     0.51931   0.37905   0.32970   0.00000  Uiso   1.00
H219   H     0.71457   0.27606   0.52523   0.00000  Uiso   1.00
H220   H     0.51125   0.42888   0.87062   0.00000  Uiso   1.00
H221   H     0.45014   0.38152   0.14671   0.00000  Uiso   1.00
O222   O     0.71102   0.21595   0.57263   0.00000  Uiso   1.00
O223   O     0.44428   0.41646   0.02575   0.00000  Uiso   1.00
O224   O     0.36410   0.35433   0.07600   0.00000  Uiso   1.00
N225   N     0.62416   0.23052   0.59205   0.00000  Uiso   1.00
N226   N     0.43408   0.37340   0.91497   0.00000  Uiso   1.00
N227   N     0.37693   0.32913   0.23819   0.00000  Uiso   1.00
N228   N     0.68031   0.26630   0.54478   0.00000  Uiso   1.00
N229   N     0.49024   0.40918   0.86770   0.00000  Uiso   1.00
N230   N     0.43309   0.36491   0.19092   0.00000  Uiso   1.00
C231   C     0.47346   0.80786   0.08586   0.00000  Uiso   1.00
C232   C     0.52872   0.79529   0.07600   0.00000  Uiso   1.00
C233   C     0.54389   0.76479   0.09405   0.00000  Uiso   1.00
C234   C     0.59627   0.75794   0.08083   0.00000  Uiso   1.00
C235   C     0.67662   0.73495   0.07016   0.00000  Uiso   1.00
C236   C     0.47634   0.83467   0.16501   0.00000  Uiso   1.00
C237   C     0.44747   0.83728   0.25789   0.00000  Uiso   1.00
C238   C     0.45575   0.86358   0.31960   0.00000  Uiso   1.00
C239   C     0.45474   0.90173   0.44708   0.00000  Uiso   1.00
C240   C     0.46059   0.82246   0.97848   0.00000  Uiso   1.00
C241   C     0.41847   0.81482   0.91455   0.00000  Uiso   1.00
C242   C     0.41350   0.83085   0.81921   0.00000  Uiso   1.00
C243   C     0.38804   0.85005   0.65709   0.00000  Uiso   1.00
C244   C     0.53950   0.84994   0.03027   0.00000  Uiso   1.00
C245   C     0.56458   0.81814   0.04581   0.00000  Uiso   1.00
C246   C     0.61696   0.81134   0.03255   0.00000  Uiso   1.00
C247   C     0.63221   0.78084   0.05058   0.00000  Uiso   1.00
C248   C     0.51220   0.85752   0.13482   0.00000  Uiso   1.00
C249   C     0.52053   0.88383   0.19639   0.00000  Uiso   1.00
C250   C     0.49168   0.88648   0.28935   0.00000  Uiso   1.00
C251   C     0.49646   0.84531   0.94829   0.00000  Uiso   1.00
C252   C     0.49154   0.86137   0.85304   0.00000  Uiso   1.00
C253   C     0.44943   0.85375   0.78897   0.00000  Uiso   1.00
H254   H     0.44554   0.79007   0.10937   0.00000  Uiso   1.00
H255   H     0.51612   0.74711   0.11742   0.00000  Uiso   1.00
H256   H     0.41971   0.81959   0.28123   0.00000  Uiso   1.00
H257   H     0.39073   0.79713   0.93794   0.00000  Uiso   1.00
H258   H     0.61020   0.70956   0.11308   0.00000  Uiso   1.00
H259   H     0.40690   0.86239   0.45846   0.00000  Uiso   1.00
H260   H     0.34578   0.81503   0.73455   0.00000  Uiso   1.00
H261   H     0.56742   0.86773   0.00676   0.00000  Uiso   1.00
H262   H     0.64470   0.82903   0.00918   0.00000  Uiso   1.00
H263   H     0.54829   0.90151   0.17300   0.00000  Uiso   1.00
H264   H     0.51931   0.87905   0.82970   0.00000  Uiso   1.00
H265   H     0.71457   0.77606   0.02523   0.00000  Uiso   1.00
H266   H     0.51125   0.92888   0.37062   0.00000  Uiso   1.00
H267   H     0.45014   0.88152   0.64671   0.00000  Uiso   1.00
O268   O     0.71102   0.71595   0.07263   0.00000  Uiso   1.00
O269   O     0.44428   0.91646   0.52575   0.00000  Uiso   1.00
O270   O     0.36410   0.85433   0.57600   0.00000  Uiso   1.00
N271   N     0.62416   0.73052   0.09205   0.00000  Uiso   1.00
N272   N     0.43408   0.87340   0.41497   0.00000  Uiso   1.00
N273   N     0.37693   0.82913   0.73819   0.00000  Uiso   1.00
N274   N     0.68031   0.76630   0.04478   0.00000  Uiso   1.00
N275   N     0.49024   0.90918   0.36770   0.00000  Uiso   1.00
N276   N     0.43309   0.86491   0.69092   0.00000  Uiso   1.00
C277   C     0.97346   0.30786   0.08586   0.00000  Uiso   1.00
C278   C     0.02872   0.29529   0.07600   0.00000  Uiso   1.00
C279   C     0.04389   0.26479   0.09405   0.00000  Uiso   1.00
C280   C     0.09627   0.25794   0.08083   0.00000  Uiso   1.00
C281   C     0.17662   0.23495   0.07016   0.00000  Uiso   1.00
C282   C     0.97634   0.33467   0.16501   0.00000  Uiso   1.00
C283   C     0.94747   0.33728   0.25789   0.00000  Uiso   1.00
C284   C     0.95575   0.36358   0.31960   0.00000  Uiso   1.00
C285   C     0.95474   0.40173   0.44708   0.00000  Uiso   1.00
C286   C     0.96059   0.32246   0.97848   0.00000  Uiso   1.00
C287   C     0.91847   0.31482   0.91455   0.00000  Uiso   1.00
C288   C     0.91350   0.33085   0.81921   0.00000  Uiso   1.00
C289   C     0.88804   0.35005   0.65709   0.00000  Uiso   1.00
C290   C     0.03950   0.34994   0.03027   0.00000  Uiso   1.00
C291   C     0.06458   0.31814   0.04581   0.00000  Uiso   1.00
C292   C     0.11696   0.31134   0.03255   0.00000  Uiso   1.00
C293   C     0.13221   0.28084   0.05058   0.00000  Uiso   1.00
C294   C     0.01220   0.35752   0.13482   0.00000  Uiso   1.00
C295   C     0.02053   0.38383   0.19639   0.00000  Uiso   1.00
C296   C     0.99168   0.38648   0.28935   0.00000  Uiso   1.00
C297   C     0.99646   0.34531   0.94829   0.00000  Uiso   1.00
C298   C     0.99154   0.36137   0.85304   0.00000  Uiso   1.00
C299   C     0.94943   0.35375   0.78897   0.00000  Uiso   1.00
H300   H     0.94554   0.29007   0.10937   0.00000  Uiso   1.00
H301   H     0.01612   0.24711   0.11742   0.00000  Uiso   1.00
H302   H     0.91971   0.31959   0.28123   0.00000  Uiso   1.00
H303   H     0.89073   0.29713   0.93794   0.00000  Uiso   1.00
H304   H     0.11020   0.20956   0.11308   0.00000  Uiso   1.00
H305   H     0.90690   0.36239   0.45846   0.00000  Uiso   1.00
H306   H     0.84578   0.31503   0.73455   0.00000  Uiso   1.00
H307   H     0.06742   0.36773   0.00676   0.00000  Uiso   1.00
H308   H     0.14470   0.32903   0.00918   0.00000  Uiso   1.00
H309   H     0.04829   0.40151   0.17300   0.00000  Uiso   1.00
H310   H     0.01931   0.37905   0.82970   0.00000  Uiso   1.00
H311   H     0.21457   0.27606   0.02523   0.00000  Uiso   1.00
H312   H     0.01125   0.42888   0.37062   0.00000  Uiso   1.00
H313   H     0.95014   0.38152   0.64671   0.00000  Uiso   1.00
O314   O     0.21102   0.21595   0.07263   0.00000  Uiso   1.00
O315   O     0.94428   0.41646   0.52575   0.00000  Uiso   1.00
O316   O     0.86410   0.35433   0.57600   0.00000  Uiso   1.00
N317   N     0.12416   0.23052   0.09205   0.00000  Uiso   1.00
N318   N     0.93408   0.37340   0.41497   0.00000  Uiso   1.00
N319   N     0.87693   0.32913   0.73819   0.00000  Uiso   1.00
N320   N     0.18031   0.26630   0.04478   0.00000  Uiso   1.00
N321   N     0.99024   0.40918   0.36770   0.00000  Uiso   1.00
N322   N     0.93309   0.36491   0.69092   0.00000  Uiso   1.00
C323   C     0.97346   0.80786   0.58586   0.00000  Uiso   1.00
C324   C     0.02872   0.79529   0.57600   0.00000  Uiso   1.00
C325   C     0.04389   0.76479   0.59405   0.00000  Uiso   1.00
C326   C     0.09627   0.75794   0.58083   0.00000  Uiso   1.00
C327   C     0.17662   0.73495   0.57016   0.00000  Uiso   1.00
C328   C     0.97634   0.83467   0.66501   0.00000  Uiso   1.00
C329   C     0.94747   0.83728   0.75789   0.00000  Uiso   1.00
C330   C     0.95575   0.86358   0.81960   0.00000  Uiso   1.00
C331   C     0.95474   0.90173   0.94708   0.00000  Uiso   1.00
C332   C     0.96059   0.82246   0.47848   0.00000  Uiso   1.00
C333   C     0.91847   0.81482   0.41455   0.00000  Uiso   1.00
C334   C     0.91350   0.83085   0.31921   0.00000  Uiso   1.00
C335   C     0.88804   0.85005   0.15709   0.00000  Uiso   1.00
C336   C     0.03950   0.84994   0.53027   0.00000  Uiso   1.00
C337   C     0.06458   0.81814   0.54581   0.00000  Uiso   1.00
C338   C     0.11696   0.81134   0.53255   0.00000  Uiso   1.00
C339   C     0.13221   0.78084   0.55058   0.00000  Uiso   1.00
C340   C     0.01220   0.85752   0.63482   0.00000  Uiso   1.00
C341   C     0.02053   0.88383   0.69639   0.00000  Uiso   1.00
C342   C     0.99168   0.88648   0.78935   0.00000  Uiso   1.00
C343   C     0.99646   0.84531   0.44829   0.00000  Uiso   1.00
C344   C     0.99154   0.86137   0.35304   0.00000  Uiso   1.00
C345   C     0.94943   0.85375   0.28897   0.00000  Uiso   1.00
H346   H     0.94554   0.79007   0.60937   0.00000  Uiso   1.00
H347   H     0.01612   0.74711   0.61742   0.00000  Uiso   1.00
H348   H     0.91971   0.81959   0.78123   0.00000  Uiso   1.00
H349   H     0.89073   0.79713   0.43794   0.00000  Uiso   1.00
H350   H     0.11020   0.70956   0.61308   0.00000  Uiso   1.00
H351   H     0.90690   0.86239   0.95846   0.00000  Uiso   1.00
H352   H     0.84578   0.81503   0.23455   0.00000  Uiso   1.00
H353   H     0.06742   0.86773   0.50676   0.00000  Uiso   1.00
H354   H     0.14470   0.82903   0.50918   0.00000  Uiso   1.00
H355   H     0.04829   0.90151   0.67300   0.00000  Uiso   1.00
H356   H     0.01931   0.87905   0.32970   0.00000  Uiso   1.00
H357   H     0.21457   0.77606   0.52523   0.00000  Uiso   1.00
H358   H     0.01125   0.92888   0.87062   0.00000  Uiso   1.00
H359   H     0.95014   0.88152   0.14671   0.00000  Uiso   1.00
O360   O     0.21102   0.71595   0.57263   0.00000  Uiso   1.00
O361   O     0.94428   0.91646   0.02575   0.00000  Uiso   1.00
O362   O     0.86410   0.85433   0.07600   0.00000  Uiso   1.00
N363   N     0.12416   0.73052   0.59205   0.00000  Uiso   1.00
N364   N     0.93408   0.87340   0.91497   0.00000  Uiso   1.00
N365   N     0.87693   0.82913   0.23819   0.00000  Uiso   1.00
N366   N     0.18031   0.76630   0.54478   0.00000  Uiso   1.00
N367   N     0.99024   0.90918   0.86770   0.00000  Uiso   1.00
N368   N     0.93309   0.86491   0.19092   0.00000  Uiso   1.00
C369   C     0.77654   0.55786   0.83586   0.00000  Uiso   1.00
C370   C     0.72128   0.54529   0.82600   0.00000  Uiso   1.00
C371   C     0.70611   0.51479   0.84405   0.00000  Uiso   1.00
C372   C     0.65373   0.50794   0.83083   0.00000  Uiso   1.00
C373   C     0.57338   0.48495   0.82016   0.00000  Uiso   1.00
C374   C     0.77366   0.58467   0.91501   0.00000  Uiso   1.00
C375   C     0.80253   0.58728   0.00789   0.00000  Uiso   1.00
C376   C     0.79425   0.61358   0.06960   0.00000  Uiso   1.00
C377   C     0.79526   0.65173   0.19708   0.00000  Uiso   1.00
C378   C     0.78941   0.57246   0.72848   0.00000  Uiso   1.00
C379   C     0.83153   0.56482   0.66455   0.00000  Uiso   1.00
C380   C     0.83650   0.58085   0.56921   0.00000  Uiso   1.00
C381   C     0.86196   0.60005   0.40709   0.00000  Uiso   1.00
C382   C     0.71050   0.59994   0.78027   0.00000  Uiso   1.00
C383   C     0.68542   0.56814   0.79581   0.00000  Uiso   1.00
C384   C     0.63304   0.56134   0.78255   0.00000  Uiso   1.00
C385   C     0.61779   0.53084   0.80058   0.00000  Uiso   1.00
C386   C     0.73780   0.60752   0.88482   0.00000  Uiso   1.00
C387   C     0.72947   0.63383   0.94639   0.00000  Uiso   1.00
C388   C     0.75832   0.63648   0.03935   0.00000  Uiso   1.00
C389   C     0.75354   0.59531   0.69829   0.00000  Uiso   1.00
C390   C     0.75846   0.61137   0.60304   0.00000  Uiso   1.00
C391   C     0.80057   0.60375   0.53897   0.00000  Uiso   1.00
H392   H     0.80446   0.54007   0.85937   0.00000  Uiso   1.00
H393   H     0.73388   0.49711   0.86742   0.00000  Uiso   1.00
H394   H     0.83029   0.56959   0.03123   0.00000  Uiso   1.00
H395   H     0.85927   0.54713   0.68794   0.00000  Uiso   1.00
H396   H     0.63980   0.45956   0.86308   0.00000  Uiso   1.00
H397   H     0.84310   0.61239   0.20846   0.00000  Uiso   1.00
H398   H     0.90422   0.56503   0.48455   0.00000  Uiso   1.00
H399   H     0.68258   0.61773   0.75676   0.00000  Uiso   1.00
H400   H     0.60530   0.57903   0.75918   0.00000  Uiso   1.00
H401   H     0.70171   0.65151   0.92300   0.00000  Uiso   1.00
H402   H     0.73069   0.62905   0.57970   0.00000  Uiso   1.00
H403   H     0.53543   0.52606   0.77523   0.00000  Uiso   1.00
H404   H     0.73875   0.67888   0.12062   0.00000  Uiso   1.00
H405   H     0.79986   0.63152   0.39671   0.00000  Uiso   1.00
O406   O     0.53898   0.46595   0.82263   0.00000  Uiso   1.00
O407   O     0.80572   0.66646   0.27575   0.00000  Uiso   1.00
O408   O     0.88590   0.60433   0.32600   0.00000  Uiso   1.00
N409   N     0.62584   0.48052   0.84205   0.00000  Uiso   1.00
N410   N     0.81592   0.62340   0.16497   0.00000  Uiso   1.00
N411   N     0.87307   0.57913   0.48819   0.00000  Uiso   1.00
N412   N     0.56969   0.51630   0.79478   0.00000  Uiso   1.00
N413   N     0.75976   0.65918   0.11770   0.00000  Uiso   1.00
N414   N     0.81691   0.61491   0.44092   0.00000  Uiso   1.00
C415   C     0.77654   0.05786   0.33586   0.00000  Uiso   1.00
C416   C     0.72128   0.04529   0.32600   0.00000  Uiso   1.00
C417   C     0.70611   0.01479   0.34405   0.00000  Uiso   1.00
C418   C     0.65373   0.00794   0.33083   0.00000  Uiso   1.00
C419   C     0.57338   0.98495   0.32016   0.00000  Uiso   1.00
C420   C     0.77366   0.08467   0.41501   0.00000  Uiso   1.00
C421   C     0.80253   0.08728   0.50789   0.00000  Uiso   1.00
C422   C     0.79425   0.11358   0.56960   0.00000  Uiso   1.00
C423   C     0.79526   0.15173   0.69708   0.00000  Uiso   1.00
C424   C     0.78941   0.07246   0.22848   0.00000  Uiso   1.00
C425   C     0.83153   0.06482   0.16455   0.00000  Uiso   1.00
C426   C     0.83650   0.08085   0.06921   0.00000  Uiso   1.00
C427   C     0.86196   0.10005   0.90709   0.00000  Uiso   1.00
C428   C     0.71050   0.09994   0.28027   0.00000  Uiso   1.00
C429   C     0.68542   0.06814   0.29581   0.00000  Uiso   1.00
C430   C     0.63304   0.06134   0.28255   0.00000  Uiso   1.00
C431   C     0.61779   0.03084   0.30058   0.00000  Uiso   1.00
C432   C     0.73780   0.10752   0.38482   0.00000  Uiso   1.00
C433   C     0.72947   0.13383   0.44639   0.00000  Uiso   1.00
C434   C     0.75832   0.13648   0.53935   0.00000  Uiso   1.00
C435   C     0.75354   0.09531   0.19829   0.00000  Uiso   1.00
C436   C     0.75846   0.11137   0.10304   0.00000  Uiso   1.00
C437   C     0.80057   0.10375   0.03897   0.00000  Uiso   1.00
H438   H     0.80446   0.04007   0.35937   0.00000  Uiso   1.00
H439   H     0.73388   0.99711   0.36742   0.00000  Uiso   1.00
H440   H     0.83029   0.06959   0.53123   0.00000  Uiso   1.00
H441   H     0.85927   0.04713   0.18794   0.00000  Uiso   1.00
H442   H     0.63980   0.95956   0.36308   0.00000  Uiso   1.00
H443   H     0.84310   0.11239   0.70846   0.00000  Uiso   1.00
H444   H     0.90422   0.06503   0.98455   0.00000  Uiso   1.00
H445   H     0.68258   0.11773   0.25676   0.00000  Uiso   1.00
H446   H     0.60530   0.07903   0.25918   0.00000  Uiso   1.00
H447   H     0.70171   0.15151   0.42300   0.00000  Uiso   1.00
H448   H     0.73069   0.12905   0.07970   0.00000  Uiso   1.00
H449   H     0.53543   0.02606   0.27523   0.00000  Uiso   1.00
H450   H     0.73875   0.17888   0.62062   0.00000  Uiso   1.00
H451   H     0.79986   0.13152   0.89671   0.00000  Uiso   1.00
O452   O     0.53898   0.96595   0.32263   0.00000  Uiso   1.00
O453   O     0.80572   0.16646   0.77575   0.00000  Uiso   1.00
O454   O     0.88590   0.10433   0.82600   0.00000  Uiso   1.00
N455   N     0.62584   0.98052   0.34205   0.00000  Uiso   1.00
N456   N     0.81592   0.12340   0.66497   0.00000  Uiso   1.00
N457   N     0.87307   0.07913   0.98819   0.00000  Uiso   1.00
N458   N     0.56969   0.01630   0.29478   0.00000  Uiso   1.00
N459   N     0.75976   0.15918   0.61770   0.00000  Uiso   1.00
N460   N     0.81691   0.11491   0.94092   0.00000  Uiso   1.00
C461   C     0.27654   0.55786   0.33586   0.00000  Uiso   1.00
C462   C     0.22128   0.54529   0.32600   0.00000  Uiso   1.00
C463   C     0.20611   0.51479   0.34405   0.00000  Uiso   1.00
C464   C     0.15373   0.50794   0.33083   0.00000  Uiso   1.00
C465   C     0.07338   0.48495   0.32016   0.00000  Uiso   1.00
C466   C     0.27366   0.58467   0.41501   0.00000  Uiso   1.00
C467   C     0.30253   0.58728   0.50789   0.00000  Uiso   1.00
C468   C     0.29425   0.61358   0.56960   0.00000  Uiso   1.00
C469   C     0.29526   0.65173   0.69708   0.00000  Uiso   1.00
C470   C     0.28941   0.57246   0.22848   0.00000  Uiso   1.00
C471   C     0.33153   0.56482   0.16455   0.00000  Uiso   1.00
C472   C     0.33650   0.58085   0.06921   0.00000  Uiso   1.00
C473   C     0.36196   0.60005   0.90709   0.00000  Uiso   1.00
C474   C     0.21050   0.59994   0.28027   0.00000  Uiso   1.00
C475   C     0.18542   0.56814   0.29581   0.00000  Uiso   1.00
C476   C     0.13304   0.56134   0.28255   0.00000  Uiso   1.00
C477   C     0.11779   0.53084   0.30058   0.00000  Uiso   1.00
C478   C     0.23780   0.60752   0.38482   0.00000  Uiso   1.00
C479   C     0.22947   0.63383   0.44639   0.00000  Uiso   1.00
C480   C     0.25832   0.63648   0.53935   0.00000  Uiso   1.00
C481   C     0.25354   0.59531   0.19829   0.00000  Uiso   1.00
C482   C     0.25846   0.61137   0.10304   0.00000  Uiso   1.00
C483   C     0.30057   0.60375   0.03897   0.00000  Uiso   1.00
H484   H     0.30446   0.54007   0.35937   0.00000  Uiso   1.00
H485   H     0.23388   0.49711   0.36742   0.00000  Uiso   1.00
H486   H     0.33029   0.56959   0.53123   0.00000  Uiso   1.00
H487   H     0.35927   0.54713   0.18794   0.00000  Uiso   1.00
H488   H     0.13980   0.45956   0.36308   0.00000  Uiso   1.00
H489   H     0.34310   0.61239   0.70846   0.00000  Uiso   1.00
H490   H     0.40422   0.56503   0.98455   0.00000  Uiso   1.00
H491   H     0.18258   0.61773   0.25676   0.00000  Uiso   1.00
H492   H     0.10530   0.57903   0.25918   0.00000  Uiso   1.00
H493   H     0.20171   0.65151   0.42300   0.00000  Uiso   1.00
H494   H     0.23069   0.62905   0.07970   0.00000  Uiso   1.00
H495   H     0.03543   0.52606   0.27523   0.00000  Uiso   1.00
H496   H     0.23875   0.67888   0.62062   0.00000  Uiso   1.00
H497   H     0.29986   0.63152   0.89671   0.00000  Uiso   1.00
O498   O     0.03898   0.46595   0.32263   0.00000  Uiso   1.00
O499   O     0.30572   0.66646   0.77575   0.00000  Uiso   1.00
O500   O     0.38590   0.60433   0.82600   0.00000  Uiso   1.00
N501   N     0.12584   0.48052   0.34205   0.00000  Uiso   1.00
N502   N     0.31592   0.62340   0.66497   0.00000  Uiso   1.00
N503   N     0.37307   0.57913   0.98819   0.00000  Uiso   1.00
N504   N     0.06969   0.51630   0.29478   0.00000  Uiso   1.00
N505   N     0.25976   0.65918   0.61770   0.00000  Uiso   1.00
N506   N     0.31691   0.61491   0.94092   0.00000  Uiso   1.00
C507   C     0.27654   0.05786   0.83586   0.00000  Uiso   1.00
C508   C     0.22128   0.04529   0.82600   0.00000  Uiso   1.00
C509   C     0.20611   0.01479   0.84405   0.00000  Uiso   1.00
C510   C     0.15373   0.00794   0.83083   0.00000  Uiso   1.00
C511   C     0.07338   0.98495   0.82016   0.00000  Uiso   1.00
C512   C     0.27366   0.08467   0.91501   0.00000  Uiso   1.00
C513   C     0.30253   0.08728   0.00789   0.00000  Uiso   1.00
C514   C     0.29425   0.11358   0.06960   0.00000  Uiso   1.00
C515   C     0.29526   0.15173   0.19708   0.00000  Uiso   1.00
C516   C     0.28941   0.07246   0.72848   0.00000  Uiso   1.00
C517   C     0.33153   0.06482   0.66455   0.00000  Uiso   1.00
C518   C     0.33650   0.08085   0.56921   0.00000  Uiso   1.00
C519   C     0.36196   0.10005   0.40709   0.00000  Uiso   1.00
C520   C     0.21050   0.09994   0.78027   0.00000  Uiso   1.00
C521   C     0.18542   0.06814   0.79581   0.00000  Uiso   1.00
C522   C     0.13304   0.06134   0.78255   0.00000  Uiso   1.00
C523   C     0.11779   0.03084   0.80058   0.00000  Uiso   1.00
C524   C     0.23780   0.10752   0.88482   0.00000  Uiso   1.00
C525   C     0.22947   0.13383   0.94639   0.00000  Uiso   1.00
C526   C     0.25832   0.13648   0.03935   0.00000  Uiso   1.00
C527   C     0.25354   0.09531   0.69829   0.00000  Uiso   1.00
C528   C     0.25846   0.11137   0.60304   0.00000  Uiso   1.00
C529   C     0.30057   0.10375   0.53897   0.00000  Uiso   1.00
H530   H     0.30446   0.04007   0.85937   0.00000  Uiso   1.00
H531   H     0.23388   0.99711   0.86742   0.00000  Uiso   1.00
H532   H     0.33029   0.06959   0.03123   0.00000  Uiso   1.00
H533   H     0.35927   0.04713   0.68794   0.00000  Uiso   1.00
H534   H     0.13980   0.95956   0.86308   0.00000  Uiso   1.00
H535   H     0.34310   0.11239   0.20846   0.00000  Uiso   1.00
H536   H     0.40422   0.06503   0.48455   0.00000  Uiso   1.00
H537   H     0.18258   0.11773   0.75676   0.00000  Uiso   1.00
H538   H     0.10530   0.07903   0.75918   0.00000  Uiso   1.00
H539   H     0.20171   0.15151   0.92300   0.00000  Uiso   1.00
H540   H     0.23069   0.12905   0.57970   0.00000  Uiso   1.00
H541   H     0.03543   0.02606   0.77523   0.00000  Uiso   1.00
H542   H     0.23875   0.17888   0.12062   0.00000  Uiso   1.00
H543   H     0.29986   0.13152   0.39671   0.00000  Uiso   1.00
O544   O     0.03898   0.96595   0.82263   0.00000  Uiso   1.00
O545   O     0.30572   0.16646   0.27575   0.00000  Uiso   1.00
O546   O     0.38590   0.10433   0.32600   0.00000  Uiso   1.00
N547   N     0.12584   0.98052   0.84205   0.00000  Uiso   1.00
N548   N     0.31592   0.12340   0.16497   0.00000  Uiso   1.00
N549   N     0.37307   0.07913   0.48819   0.00000  Uiso   1.00
N550   N     0.06969   0.01630   0.79478   0.00000  Uiso   1.00
N551   N     0.25976   0.15918   0.11770   0.00000  Uiso   1.00
N552   N     0.31691   0.11491   0.44092   0.00000  Uiso   1.00
C553   C     0.72346   0.94214   0.83586   0.00000  Uiso   1.00
C554   C     0.77872   0.95471   0.82600   0.00000  Uiso   1.00
C555   C     0.79389   0.98521   0.84405   0.00000  Uiso   1.00
C556   C     0.84627   0.99206   0.83083   0.00000  Uiso   1.00
C557   C     0.92662   0.01505   0.82016   0.00000  Uiso   1.00
C558   C     0.72634   0.91533   0.91501   0.00000  Uiso   1.00
C559   C     0.69747   0.91272   0.00789   0.00000  Uiso   1.00
C560   C     0.70575   0.88642   0.06960   0.00000  Uiso   1.00
C561   C     0.70474   0.84827   0.19708   0.00000  Uiso   1.00
C562   C     0.71059   0.92754   0.72848   0.00000  Uiso   1.00
C563   C     0.66847   0.93518   0.66455   0.00000  Uiso   1.00
C564   C     0.66350   0.91915   0.56921   0.00000  Uiso   1.00
C565   C     0.63804   0.89995   0.40709   0.00000  Uiso   1.00
C566   C     0.78950   0.90006   0.78027   0.00000  Uiso   1.00
C567   C     0.81458   0.93186   0.79581   0.00000  Uiso   1.00
C568   C     0.86696   0.93866   0.78255   0.00000  Uiso   1.00
C569   C     0.88221   0.96916   0.80058   0.00000  Uiso   1.00
C570   C     0.76220   0.89248   0.88482   0.00000  Uiso   1.00
C571   C     0.77053   0.86617   0.94639   0.00000  Uiso   1.00
C572   C     0.74168   0.86352   0.03935   0.00000  Uiso   1.00
C573   C     0.74646   0.90469   0.69829   0.00000  Uiso   1.00
C574   C     0.74154   0.88863   0.60304   0.00000  Uiso   1.00
C575   C     0.69943   0.89625   0.53897   0.00000  Uiso   1.00
H576   H     0.69554   0.95993   0.85937   0.00000  Uiso   1.00
H577   H     0.76612   0.00289   0.86742   0.00000  Uiso   1.00
H578   H     0.66971   0.93041   0.03123   0.00000  Uiso   1.00
H579   H     0.64073   0.95287   0.68794   0.00000  Uiso   1.00
H580   H     0.86020   0.04044   0.86308   0.00000  Uiso   1.00
H581   H     0.65690   0.88761   0.20846   0.00000  Uiso   1.00
H582   H     0.59578   0.93497   0.48455   0.00000  Uiso   1.00
H583   H     0.81742   0.88227   0.75676   0.00000  Uiso   1.00
H584   H     0.89470   0.92097   0.75918   0.00000  Uiso   1.00
H585   H     0.79829   0.84849   0.92300   0.00000  Uiso   1.00
H586   H     0.76931   0.87095   0.57970   0.00000  Uiso   1.00
H587   H     0.96457   0.97394   0.77523   0.00000  Uiso   1.00
H588   H     0.76125   0.82112   0.12062   0.00000  Uiso   1.00
H589   H     0.70014   0.86848   0.39671   0.00000  Uiso   1.00
O590   O     0.96102   0.03405   0.82263   0.00000  Uiso   1.00
O591   O     0.69428   0.83354   0.27575   0.00000  Uiso   1.00
O592   O     0.61410   0.89567   0.32600   0.00000  Uiso   1.00
N593   N     0.87416   0.01948   0.84205   0.00000  Uiso   1.00
N594   N     0.68408   0.87660   0.16497   0.00000  Uiso   1.00
N595   N     0.62693   0.92087   0.48819   0.00000  Uiso   1.00
N596   N     0.93031   0.98370   0.79478   0.00000  Uiso   1.00
N597   N     0.74024   0.84082   0.11770   0.00000  Uiso   1.00
N598   N     0.68309   0.88509   0.44092   0.00000  Uiso   1.00
C599   C     0.72346   0.44214   0.33586   0.00000  Uiso   1.00
C600   C     0.77872   0.45471   0.32600   0.00000  Uiso   1.00
C601   C     0.79389   0.48521   0.34405   0.00000  Uiso   1.00
C602   C     0.84627   0.49206   0.33083   0.00000  Uiso   1.00
C603   C     0.92662   0.51505   0.32016   0.00000  Uiso   1.00
C604   C     0.72634   0.41533   0.41501   0.00000  Uiso   1.00
C605   C     0.69747   0.41272   0.50789   0.00000  Uiso   1.00
C606   C     0.70575   0.38642   0.56960   0.00000  Uiso   1.00
C607   C     0.70474   0.34827   0.69708   0.00000  Uiso   1.00
C608   C     0.71059   0.42754   0.22848   0.00000  Uiso   1.00
C609   C     0.66847   0.43518   0.16455   0.00000  Uiso   1.00
C610   C     0.66350   0.41915   0.06921   0.00000  Uiso   1.00
C611   C     0.63804   0.39995   0.90709   0.00000  Uiso   1.00
C612   C     0.78950   0.40006   0.28027   0.00000  Uiso   1.00
C613   C     0.81458   0.43186   0.29581   0.00000  Uiso   1.00
C614   C     0.86696   0.43866   0.28255   0.00000  Uiso   1.00
C615   C     0.88221   0.46916   0.30058   0.00000  Uiso   1.00
C616   C     0.76220   0.39248   0.38482   0.00000  Uiso   1.00
C617   C     0.77053   0.36617   0.44639   0.00000  Uiso   1.00
C618   C     0.74168   0.36352   0.53935   0.00000  Uiso   1.00
C619   C     0.74646   0.40469   0.19829   0.00000  Uiso   1.00
C620   C     0.74154   0.38863   0.10304   0.00000  Uiso   1.00
C621   C     0.69943   0.39625   0.03897   0.00000  Uiso   1.00
H622   H     0.69554   0.45993   0.35937   0.00000  Uiso   1.00
H623   H     0.76612   0.50289   0.36742   0.00000  Uiso   1.00
H624   H     0.66971   0.43041   0.53123   0.00000  Uiso   1.00
H625   H     0.64073   0.45287   0.18794   0.00000  Uiso   1.00
H626   H     0.86020   0.54044   0.36308   0.00000  Uiso   1.00
H627   H     0.65690   0.38761   0.70846   0.00000  Uiso   1.00
H628   H     0.59578   0.43497   0.98455   0.00000  Uiso   1.00
H629   H     0.81742   0.38227   0.25676   0.00000  Uiso   1.00
H630   H     0.89470   0.42097   0.25918   0.00000  Uiso   1.00
H631   H     0.79829   0.34849   0.42300   0.00000  Uiso   1.00
H632   H     0.76931   0.37095   0.07970   0.00000  Uiso   1.00
H633   H     0.96457   0.47394   0.27523   0.00000  Uiso   1.00
H634   H     0.76125   0.32112   0.62062   0.00000  Uiso   1.00
H635   H     0.70014   0.36848   0.89671   0.00000  Uiso   1.00
O636   O     0.96102   0.53405   0.32263   0.00000  Uiso   1.00
O637   O     0.69428   0.33354   0.77575   0.00000  Uiso   1.00
O638   O     0.61410   0.39567   0.82600   0.00000  Uiso   1.00
N639   N     0.87416   0.51948   0.34205   0.00000  Uiso   1.00
N640   N     0.68408   0.37660   0.66497   0.00000  Uiso   1.00
N641   N     0.62693   0.42087   0.98819   0.00000  Uiso   1.00
N642   N     0.93031   0.48370   0.29478   0.00000  Uiso   1.00
N643   N     0.74024   0.34082   0.61770   0.00000  Uiso   1.00
N644   N     0.68309   0.38509   0.94092   0.00000  Uiso   1.00
C645   C     0.22346   0.94214   0.33586   0.00000  Uiso   1.00
C646   C     0.27872   0.95471   0.32600   0.00000  Uiso   1.00
C647   C     0.29389   0.98521   0.34405   0.00000  Uiso   1.00
C648   C     0.34627   0.99206   0.33083   0.00000  Uiso   1.00
C649   C     0.42662   0.01505   0.32016   0.00000  Uiso   1.00
C650   C     0.22634   0.91533   0.41501   0.00000  Uiso   1.00
C651   C     0.19747   0.91272   0.50789   0.00000  Uiso   1.00
C652   C     0.20575   0.88642   0.56960   0.00000  Uiso   1.00
C653   C     0.20474   0.84827   0.69708   0.00000  Uiso   1.00
C654   C     0.21059   0.92754   0.22848   0.00000  Uiso   1.00
C655   C     0.16847   0.93518   0.16455   0.00000  Uiso   1.00
C656   C     0.16350   0.91915   0.06921   0.00000  Uiso   1.00
C657   C     0.13804   0.89995   0.90709   0.00000  Uiso   1.00
C658   C     0.28950   0.90006   0.28027   0.00000  Uiso   1.00
C659   C     0.31458   0.93186   0.29581   0.00000  Uiso   1.00
C660   C     0.36696   0.93866   0.28255   0.00000  Uiso   1.00
C661   C     0.38221   0.96916   0.30058   0.00000  Uiso   1.00
C662   C     0.26220   0.89248   0.38482   0.00000  Uiso   1.00
C663   C     0.27053   0.86617   0.44639   0.00000  Uiso   1.00
C664   C     0.24168   0.86352   0.53935   0.00000  Uiso   1.00
C665   C     0.24646   0.90469   0.19829   0.00000  Uiso   1.00
C666   C     0.24154   0.88863   0.10304   0.00000  Uiso   1.00
C667   C     0.19943   0.89625   0.03897   0.00000  Uiso   1.00
H668   H     0.19554   0.95993   0.35937   0.00000  Uiso   1.00
H669   H     0.26612   0.00289   0.36742   0.00000  Uiso   1.00
H670   H     0.16971   0.93041   0.53123   0.00000  Uiso   1.00
H671   H     0.14073   0.95287   0.18794   0.00000  Uiso   1.00
H672   H     0.36020   0.04044   0.36308   0.00000  Uiso   1.00
H673   H     0.15690   0.88761   0.70846   0.00000  Uiso   1.00
H674   H     0.09578   0.93497   0.98455   0.00000  Uiso   1.00
H675   H     0.31742   0.88227   0.25676   0.00000  Uiso   1.00
H676   H     0.39470   0.92097   0.25918   0.00000  Uiso   1.00
H677   H     0.29829   0.84849   0.42300   0.00000  Uiso   1.00
H678   H     0.26931   0.87095   0.07970   0.00000  Uiso   1.00
H679   H     0.46457   0.97394   0.27523   0.00000  Uiso   1.00
H680   H     0.26125   0.82112   0.62062   0.00000  Uiso   1.00
H681   H     0.20014   0.86848   0.89671   0.00000  Uiso   1.00
O682   O     0.46102   0.03405   0.32263   0.00000  Uiso   1.00
O683   O     0.19428   0.83354   0.77575   0.00000  Uiso   1.00
O684   O     0.11410   0.89567   0.82600   0.00000  Uiso   1.00
N685   N     0.37416   0.01948   0.34205   0.00000  Uiso   1.00
N686   N     0.18408   0.87660   0.66497   0.00000  Uiso   1.00
N687   N     0.12693   0.92087   0.98819   0.00000  Uiso   1.00
N688   N     0.43031   0.98370   0.29478   0.00000  Uiso   1.00
N689   N     0.24024   0.84082   0.61770   0.00000  Uiso   1.00
N690   N     0.18309   0.88509   0.94092   0.00000  Uiso   1.00
C691   C     0.22346   0.44214   0.83586   0.00000  Uiso   1.00
C692   C     0.27872   0.45471   0.82600   0.00000  Uiso   1.00
C693   C     0.29389   0.48521   0.84405   0.00000  Uiso   1.00
C694   C     0.34627   0.49206   0.83083   0.00000  Uiso   1.00
C695   C     0.42662   0.51505   0.82016   0.00000  Uiso   1.00
C696   C     0.22634   0.41533   0.91501   0.00000  Uiso   1.00
C697   C     0.19747   0.41272   0.00789   0.00000  Uiso   1.00
C698   C     0.20575   0.38642   0.06960   0.00000  Uiso   1.00
C699   C     0.20474   0.34827   0.19708   0.00000  Uiso   1.00
C700   C     0.21059   0.42754   0.72848   0.00000  Uiso   1.00
C701   C     0.16847   0.43518   0.66455   0.00000  Uiso   1.00
C702   C     0.16350   0.41915   0.56921   0.00000  Uiso   1.00
C703   C     0.13804   0.39995   0.40709   0.00000  Uiso   1.00
C704   C     0.28950   0.40006   0.78027   0.00000  Uiso   1.00
C705   C     0.31458   0.43186   0.79581   0.00000  Uiso   1.00
C706   C     0.36696   0.43866   0.78255   0.00000  Uiso   1.00
C707   C     0.38221   0.46916   0.80058   0.00000  Uiso   1.00
C708   C     0.26220   0.39248   0.88482   0.00000  Uiso   1.00
C709   C     0.27053   0.36617   0.94639   0.00000  Uiso   1.00
C710   C     0.24168   0.36352   0.03935   0.00000  Uiso   1.00
C711   C     0.24646   0.40469   0.69829   0.00000  Uiso   1.00
C712   C     0.24154   0.38863   0.60304   0.00000  Uiso   1.00
C713   C     0.19943   0.39625   0.53897   0.00000  Uiso   1.00
H714   H     0.19554   0.45993   0.85937   0.00000  Uiso   1.00
H715   H     0.26612   0.50289   0.86742   0.00000  Uiso   1.00
H716   H     0.16971   0.43041   0.03123   0.00000  Uiso   1.00
H717   H     0.14073   0.45287   0.68794   0.00000  Uiso   1.00
H718   H     0.36020   0.54044   0.86308   0.00000  Uiso   1.00
H719   H     0.15690   0.38761   0.20846   0.00000  Uiso   1.00
H720   H     0.09578   0.43497   0.48455   0.00000  Uiso   1.00
H721   H     0.31742   0.38227   0.75676   0.00000  Uiso   1.00
H722   H     0.39470   0.42097   0.75918   0.00000  Uiso   1.00
H723   H     0.29829   0.34849   0.92300   0.00000  Uiso   1.00
H724   H     0.26931   0.37095   0.57970   0.00000  Uiso   1.00
H725   H     0.46457   0.47394   0.77523   0.00000  Uiso   1.00
H726   H     0.26125   0.32112   0.12062   0.00000  Uiso   1.00
H727   H     0.20014   0.36848   0.39671   0.00000  Uiso   1.00
O728   O     0.46102   0.53405   0.82263   0.00000  Uiso   1.00
O729   O     0.19428   0.33354   0.27575   0.00000  Uiso   1.00
O730   O     0.11410   0.39567   0.32600   0.00000  Uiso   1.00
N731   N     0.37416   0.51948   0.84205   0.00000  Uiso   1.00
N732   N     0.18408   0.37660   0.16497   0.00000  Uiso   1.00
N733   N     0.12693   0.42087   0.48819   0.00000  Uiso   1.00
N734   N     0.43031   0.48370   0.79478   0.00000  Uiso   1.00
N735   N     0.24024   0.34082   0.11770   0.00000  Uiso   1.00
N736   N     0.18309   0.38509   0.44092   0.00000  Uiso   1.00
