data_job_01983
_audit_creation_date              2018-12-19
_audit_creation_method            'Materials Studio'
_symmetry_space_group_name_H-M    'P1'
_symmetry_Int_Tables_number       1
_symmetry_cell_setting            triclinic
loop_
_symmetry_equiv_pos_as_xyz
  x,y,z
_cell_length_a                    20.3848
_cell_length_b                    20.3848
_cell_length_c                    25.5483
_cell_angle_alpha                 90.0000
_cell_angle_beta                  90.0000
_cell_angle_gamma                 90.0000
loop_
_atom_site_label
_atom_site_type_symbol
_atom_site_fract_x
_atom_site_fract_y
_atom_site_fract_z
_atom_site_U_iso_or_equiv
_atom_site_adp_type
_atom_site_occupancy
C1     C     0.92454   0.81979   0.40085   0.00000  Uiso   1.00
C2     C     0.88774   0.75501   0.39545   0.00000  Uiso   1.00
C3     C     0.82373   0.74775   0.37789   0.00000  Uiso   1.00
C4     C     0.79895   0.68436   0.37580   0.00000  Uiso   1.00
C5     C     0.73604   0.59201   0.36516   0.00000  Uiso   1.00
C6     C     0.94695   0.82347   0.45772   0.00000  Uiso   1.00
C7     C     0.93272   0.87379   0.49251   0.00000  Uiso   1.00
C8     C     0.95780   0.86803   0.54283   0.00000  Uiso   1.00
C9     C     0.98685   0.88200   0.62886   0.00000  Uiso   1.00
C10    C     0.98676   0.81259   0.36823   0.00000  Uiso   1.00
C11    C     0.00603   0.85376   0.32779   0.00000  Uiso   1.00
C12    C     0.06463   0.83885   0.30277   0.00000  Uiso   1.00
C13    C     0.15550   0.83591   0.24986   0.00000  Uiso   1.00
C14    C     0.99437   0.72012   0.42835   0.00000  Uiso   1.00
C15    C     0.92567   0.70087   0.41039   0.00000  Uiso   1.00
C16    C     0.90099   0.63748   0.40832   0.00000  Uiso   1.00
C17    C     0.83695   0.63013   0.39076   0.00000  Uiso   1.00
C18    C     0.98488   0.76934   0.47266   0.00000  Uiso   1.00
C19    C     0.00998   0.76352   0.52294   0.00000  Uiso   1.00
C20    C     0.99579   0.81380   0.55780   0.00000  Uiso   1.00
C21    C     0.02469   0.75845   0.38316   0.00000  Uiso   1.00
C22    C     0.08328   0.74348   0.35821   0.00000  Uiso   1.00
C23    C     0.10263   0.78462   0.31774   0.00000  Uiso   1.00
H24    H     0.89501   0.86194   0.38922   0.00000  Uiso   1.00
H25    H     0.79439   0.78966   0.36634   0.00000  Uiso   1.00
H26    H     0.90338   0.91567   0.48094   0.00000  Uiso   1.00
H27    H     0.97666   0.89564   0.31624   0.00000  Uiso   1.00
H28    H     0.69956   0.68565   0.34757   0.00000  Uiso   1.00
H29    H     0.92937   0.95138   0.58921   0.00000  Uiso   1.00
H30    H     0.08392   0.90914   0.24191   0.00000  Uiso   1.00
H31    H     0.02390   0.67797   0.43998   0.00000  Uiso   1.00
H32    H     0.93035   0.59560   0.41988   0.00000  Uiso   1.00
H33    H     0.03933   0.72162   0.53448   0.00000  Uiso   1.00
H34    H     0.11262   0.70159   0.36978   0.00000  Uiso   1.00
H35    H     0.80991   0.52814   0.39103   0.00000  Uiso   1.00
H36    H     0.03973   0.79387   0.63267   0.00000  Uiso   1.00
H37    H     0.19427   0.75164   0.28536   0.00000  Uiso   1.00
O38    O     0.69086   0.55603   0.35518   0.00000  Uiso   1.00
O39    O     0.99238   0.90466   0.67219   0.00000  Uiso   1.00
O40    O     0.19514   0.84924   0.21654   0.00000  Uiso   1.00
N41    N     0.73837   0.65988   0.36055   0.00000  Uiso   1.00
N42    N     0.95323   0.90832   0.58647   0.00000  Uiso   1.00
N43    N     0.09772   0.86884   0.26178   0.00000  Uiso   1.00
N44    N     0.79775   0.57513   0.38393   0.00000  Uiso   1.00
N45    N     0.01261   0.82357   0.60985   0.00000  Uiso   1.00
N46    N     0.15710   0.78409   0.28516   0.00000  Uiso   1.00
C47    C     0.42454   0.31979   0.90085   0.00000  Uiso   1.00
C48    C     0.38774   0.25501   0.89545   0.00000  Uiso   1.00
C49    C     0.32373   0.24775   0.87789   0.00000  Uiso   1.00
C50    C     0.29895   0.18436   0.87580   0.00000  Uiso   1.00
C51    C     0.23604   0.09201   0.86516   0.00000  Uiso   1.00
C52    C     0.44695   0.32347   0.95772   0.00000  Uiso   1.00
C53    C     0.43272   0.37379   0.99251   0.00000  Uiso   1.00
C54    C     0.45780   0.36803   0.04283   0.00000  Uiso   1.00
C55    C     0.48685   0.38200   0.12886   0.00000  Uiso   1.00
C56    C     0.48676   0.31259   0.86823   0.00000  Uiso   1.00
C57    C     0.50603   0.35376   0.82779   0.00000  Uiso   1.00
C58    C     0.56463   0.33885   0.80277   0.00000  Uiso   1.00
C59    C     0.65550   0.33591   0.74986   0.00000  Uiso   1.00
C60    C     0.49437   0.22012   0.92835   0.00000  Uiso   1.00
C61    C     0.42567   0.20087   0.91039   0.00000  Uiso   1.00
C62    C     0.40099   0.13748   0.90832   0.00000  Uiso   1.00
C63    C     0.33695   0.13013   0.89076   0.00000  Uiso   1.00
C64    C     0.48488   0.26934   0.97266   0.00000  Uiso   1.00
C65    C     0.50998   0.26352   0.02294   0.00000  Uiso   1.00
C66    C     0.49579   0.31380   0.05780   0.00000  Uiso   1.00
C67    C     0.52469   0.25845   0.88316   0.00000  Uiso   1.00
C68    C     0.58328   0.24348   0.85821   0.00000  Uiso   1.00
C69    C     0.60263   0.28462   0.81774   0.00000  Uiso   1.00
H70    H     0.39501   0.36194   0.88922   0.00000  Uiso   1.00
H71    H     0.29439   0.28966   0.86634   0.00000  Uiso   1.00
H72    H     0.40338   0.41567   0.98094   0.00000  Uiso   1.00
H73    H     0.47666   0.39564   0.81624   0.00000  Uiso   1.00
H74    H     0.19956   0.18565   0.84757   0.00000  Uiso   1.00
H75    H     0.42937   0.45138   0.08921   0.00000  Uiso   1.00
H76    H     0.58392   0.40914   0.74191   0.00000  Uiso   1.00
H77    H     0.52390   0.17797   0.93998   0.00000  Uiso   1.00
H78    H     0.43035   0.09560   0.91988   0.00000  Uiso   1.00
H79    H     0.53933   0.22162   0.03448   0.00000  Uiso   1.00
H80    H     0.61262   0.20159   0.86978   0.00000  Uiso   1.00
H81    H     0.30991   0.02814   0.89103   0.00000  Uiso   1.00
H82    H     0.53973   0.29387   0.13267   0.00000  Uiso   1.00
H83    H     0.69427   0.25164   0.78536   0.00000  Uiso   1.00
O84    O     0.19086   0.05603   0.85518   0.00000  Uiso   1.00
O85    O     0.49238   0.40466   0.17219   0.00000  Uiso   1.00
O86    O     0.69514   0.34924   0.71654   0.00000  Uiso   1.00
N87    N     0.23837   0.15988   0.86055   0.00000  Uiso   1.00
N88    N     0.45323   0.40832   0.08647   0.00000  Uiso   1.00
N89    N     0.59772   0.36884   0.76178   0.00000  Uiso   1.00
N90    N     0.29775   0.07513   0.88393   0.00000  Uiso   1.00
N91    N     0.51261   0.32357   0.10985   0.00000  Uiso   1.00
N92    N     0.65710   0.28409   0.78516   0.00000  Uiso   1.00
C93    C     0.57546   0.68021   0.90085   0.00000  Uiso   1.00
C94    C     0.61226   0.74499   0.89545   0.00000  Uiso   1.00
C95    C     0.67627   0.75225   0.87789   0.00000  Uiso   1.00
C96    C     0.70105   0.81564   0.87580   0.00000  Uiso   1.00
C97    C     0.76396   0.90799   0.86516   0.00000  Uiso   1.00
C98    C     0.55305   0.67653   0.95772   0.00000  Uiso   1.00
C99    C     0.56728   0.62621   0.99251   0.00000  Uiso   1.00
C100   C     0.54220   0.63197   0.04283   0.00000  Uiso   1.00
C101   C     0.51315   0.61800   0.12886   0.00000  Uiso   1.00
C102   C     0.51324   0.68741   0.86823   0.00000  Uiso   1.00
C103   C     0.49397   0.64624   0.82779   0.00000  Uiso   1.00
C104   C     0.43537   0.66115   0.80277   0.00000  Uiso   1.00
C105   C     0.34450   0.66409   0.74986   0.00000  Uiso   1.00
C106   C     0.50563   0.77988   0.92835   0.00000  Uiso   1.00
C107   C     0.57433   0.79913   0.91039   0.00000  Uiso   1.00
C108   C     0.59901   0.86252   0.90832   0.00000  Uiso   1.00
C109   C     0.66305   0.86987   0.89076   0.00000  Uiso   1.00
C110   C     0.51512   0.73066   0.97266   0.00000  Uiso   1.00
C111   C     0.49002   0.73648   0.02294   0.00000  Uiso   1.00
C112   C     0.50421   0.68620   0.05780   0.00000  Uiso   1.00
C113   C     0.47531   0.74155   0.88316   0.00000  Uiso   1.00
C114   C     0.41672   0.75652   0.85821   0.00000  Uiso   1.00
C115   C     0.39737   0.71538   0.81774   0.00000  Uiso   1.00
H116   H     0.60499   0.63806   0.88922   0.00000  Uiso   1.00
H117   H     0.70561   0.71034   0.86634   0.00000  Uiso   1.00
H118   H     0.59662   0.58433   0.98094   0.00000  Uiso   1.00
H119   H     0.52334   0.60436   0.81624   0.00000  Uiso   1.00
H120   H     0.80044   0.81435   0.84757   0.00000  Uiso   1.00
H121   H     0.57063   0.54862   0.08921   0.00000  Uiso   1.00
H122   H     0.41608   0.59086   0.74191   0.00000  Uiso   1.00
H123   H     0.47610   0.82203   0.93998   0.00000  Uiso   1.00
H124   H     0.56965   0.90440   0.91988   0.00000  Uiso   1.00
H125   H     0.46067   0.77838   0.03448   0.00000  Uiso   1.00
H126   H     0.38738   0.79841   0.86978   0.00000  Uiso   1.00
H127   H     0.69009   0.97186   0.89103   0.00000  Uiso   1.00
H128   H     0.46027   0.70613   0.13267   0.00000  Uiso   1.00
H129   H     0.30573   0.74836   0.78536   0.00000  Uiso   1.00
O130   O     0.80914   0.94397   0.85518   0.00000  Uiso   1.00
O131   O     0.50762   0.59534   0.17219   0.00000  Uiso   1.00
O132   O     0.30486   0.65076   0.71654   0.00000  Uiso   1.00
N133   N     0.76163   0.84012   0.86055   0.00000  Uiso   1.00
N134   N     0.54677   0.59168   0.08647   0.00000  Uiso   1.00
N135   N     0.40228   0.63116   0.76178   0.00000  Uiso   1.00
N136   N     0.70225   0.92487   0.88393   0.00000  Uiso   1.00
N137   N     0.48739   0.67643   0.10985   0.00000  Uiso   1.00
N138   N     0.34290   0.71591   0.78516   0.00000  Uiso   1.00
C139   C     0.07546   0.18021   0.40085   0.00000  Uiso   1.00
C140   C     0.11226   0.24499   0.39545   0.00000  Uiso   1.00
C141   C     0.17627   0.25225   0.37789   0.00000  Uiso   1.00
C142   C     0.20105   0.31564   0.37580   0.00000  Uiso   1.00
C143   C     0.26396   0.40799   0.36516   0.00000  Uiso   1.00
C144   C     0.05305   0.17653   0.45772   0.00000  Uiso   1.00
C145   C     0.06728   0.12621   0.49251   0.00000  Uiso   1.00
C146   C     0.04220   0.13197   0.54283   0.00000  Uiso   1.00
C147   C     0.01315   0.11800   0.62886   0.00000  Uiso   1.00
C148   C     0.01324   0.18741   0.36823   0.00000  Uiso   1.00
C149   C     0.99397   0.14624   0.32779   0.00000  Uiso   1.00
C150   C     0.93537   0.16115   0.30277   0.00000  Uiso   1.00
C151   C     0.84450   0.16409   0.24986   0.00000  Uiso   1.00
C152   C     0.00563   0.27988   0.42835   0.00000  Uiso   1.00
C153   C     0.07433   0.29913   0.41039   0.00000  Uiso   1.00
C154   C     0.09901   0.36252   0.40832   0.00000  Uiso   1.00
C155   C     0.16305   0.36987   0.39076   0.00000  Uiso   1.00
C156   C     0.01512   0.23066   0.47266   0.00000  Uiso   1.00
C157   C     0.99002   0.23648   0.52294   0.00000  Uiso   1.00
C158   C     0.00421   0.18620   0.55780   0.00000  Uiso   1.00
C159   C     0.97531   0.24155   0.38316   0.00000  Uiso   1.00
C160   C     0.91672   0.25652   0.35821   0.00000  Uiso   1.00
C161   C     0.89737   0.21538   0.31774   0.00000  Uiso   1.00
H162   H     0.10499   0.13806   0.38922   0.00000  Uiso   1.00
H163   H     0.20561   0.21034   0.36634   0.00000  Uiso   1.00
H164   H     0.09662   0.08433   0.48094   0.00000  Uiso   1.00
H165   H     0.02334   0.10436   0.31624   0.00000  Uiso   1.00
H166   H     0.30044   0.31435   0.34757   0.00000  Uiso   1.00
H167   H     0.07063   0.04862   0.58921   0.00000  Uiso   1.00
H168   H     0.91608   0.09086   0.24191   0.00000  Uiso   1.00
H169   H     0.97610   0.32203   0.43998   0.00000  Uiso   1.00
H170   H     0.06965   0.40440   0.41988   0.00000  Uiso   1.00
H171   H     0.96067   0.27838   0.53448   0.00000  Uiso   1.00
H172   H     0.88738   0.29841   0.36978   0.00000  Uiso   1.00
H173   H     0.19009   0.47186   0.39103   0.00000  Uiso   1.00
H174   H     0.96027   0.20613   0.63267   0.00000  Uiso   1.00
H175   H     0.80573   0.24836   0.28536   0.00000  Uiso   1.00
O176   O     0.30914   0.44397   0.35518   0.00000  Uiso   1.00
O177   O     0.00762   0.09534   0.67219   0.00000  Uiso   1.00
O178   O     0.80486   0.15076   0.21654   0.00000  Uiso   1.00
N179   N     0.26163   0.34012   0.36055   0.00000  Uiso   1.00
N180   N     0.04677   0.09168   0.58647   0.00000  Uiso   1.00
N181   N     0.90228   0.13116   0.26178   0.00000  Uiso   1.00
N182   N     0.20225   0.42487   0.38393   0.00000  Uiso   1.00
N183   N     0.98739   0.17643   0.60985   0.00000  Uiso   1.00
N184   N     0.84290   0.21591   0.28516   0.00000  Uiso   1.00
C185   C     0.18021   0.42454   0.65085   0.00000  Uiso   1.00
C186   C     0.24499   0.38774   0.64545   0.00000  Uiso   1.00
C187   C     0.25225   0.32373   0.62789   0.00000  Uiso   1.00
C188   C     0.31564   0.29895   0.62580   0.00000  Uiso   1.00
C189   C     0.40799   0.23604   0.61516   0.00000  Uiso   1.00
C190   C     0.17653   0.44695   0.70772   0.00000  Uiso   1.00
C191   C     0.12621   0.43272   0.74251   0.00000  Uiso   1.00
C192   C     0.13197   0.45780   0.79283   0.00000  Uiso   1.00
C193   C     0.11800   0.48685   0.87886   0.00000  Uiso   1.00
C194   C     0.18741   0.48676   0.61823   0.00000  Uiso   1.00
C195   C     0.14624   0.50603   0.57779   0.00000  Uiso   1.00
C196   C     0.16115   0.56463   0.55277   0.00000  Uiso   1.00
C197   C     0.16409   0.65550   0.49986   0.00000  Uiso   1.00
C198   C     0.27988   0.49437   0.67835   0.00000  Uiso   1.00
C199   C     0.29913   0.42567   0.66039   0.00000  Uiso   1.00
C200   C     0.36252   0.40099   0.65832   0.00000  Uiso   1.00
C201   C     0.36987   0.33695   0.64076   0.00000  Uiso   1.00
C202   C     0.23066   0.48488   0.72266   0.00000  Uiso   1.00
C203   C     0.23648   0.50998   0.77294   0.00000  Uiso   1.00
C204   C     0.18620   0.49579   0.80780   0.00000  Uiso   1.00
C205   C     0.24155   0.52469   0.63316   0.00000  Uiso   1.00
C206   C     0.25652   0.58328   0.60821   0.00000  Uiso   1.00
C207   C     0.21538   0.60263   0.56774   0.00000  Uiso   1.00
H208   H     0.13806   0.39501   0.63922   0.00000  Uiso   1.00
H209   H     0.21034   0.29439   0.61634   0.00000  Uiso   1.00
H210   H     0.08433   0.40338   0.73094   0.00000  Uiso   1.00
H211   H     0.10436   0.47666   0.56624   0.00000  Uiso   1.00
H212   H     0.31435   0.19956   0.59757   0.00000  Uiso   1.00
H213   H     0.04862   0.42937   0.83921   0.00000  Uiso   1.00
H214   H     0.09086   0.58392   0.49191   0.00000  Uiso   1.00
H215   H     0.32203   0.52390   0.68998   0.00000  Uiso   1.00
H216   H     0.40440   0.43035   0.66988   0.00000  Uiso   1.00
H217   H     0.27838   0.53933   0.78448   0.00000  Uiso   1.00
H218   H     0.29841   0.61262   0.61978   0.00000  Uiso   1.00
H219   H     0.47186   0.30991   0.64103   0.00000  Uiso   1.00
H220   H     0.20613   0.53973   0.88267   0.00000  Uiso   1.00
H221   H     0.24836   0.69427   0.53536   0.00000  Uiso   1.00
O222   O     0.44397   0.19086   0.60518   0.00000  Uiso   1.00
O223   O     0.09534   0.49238   0.92219   0.00000  Uiso   1.00
O224   O     0.15076   0.69514   0.46654   0.00000  Uiso   1.00
N225   N     0.34012   0.23837   0.61055   0.00000  Uiso   1.00
N226   N     0.09168   0.45323   0.83647   0.00000  Uiso   1.00
N227   N     0.13116   0.59772   0.51178   0.00000  Uiso   1.00
N228   N     0.42487   0.29775   0.63393   0.00000  Uiso   1.00
N229   N     0.17643   0.51261   0.85985   0.00000  Uiso   1.00
N230   N     0.21591   0.65710   0.53516   0.00000  Uiso   1.00
C231   C     0.68021   0.92454   0.15085   0.00000  Uiso   1.00
C232   C     0.74499   0.88774   0.14545   0.00000  Uiso   1.00
C233   C     0.75225   0.82373   0.12789   0.00000  Uiso   1.00
C234   C     0.81564   0.79895   0.12580   0.00000  Uiso   1.00
C235   C     0.90799   0.73604   0.11516   0.00000  Uiso   1.00
C236   C     0.67653   0.94695   0.20772   0.00000  Uiso   1.00
C237   C     0.62621   0.93272   0.24251   0.00000  Uiso   1.00
C238   C     0.63197   0.95780   0.29283   0.00000  Uiso   1.00
C239   C     0.61800   0.98685   0.37886   0.00000  Uiso   1.00
C240   C     0.68741   0.98676   0.11823   0.00000  Uiso   1.00
C241   C     0.64624   0.00603   0.07779   0.00000  Uiso   1.00
C242   C     0.66115   0.06463   0.05277   0.00000  Uiso   1.00
C243   C     0.66409   0.15550   0.99986   0.00000  Uiso   1.00
C244   C     0.77988   0.99437   0.17835   0.00000  Uiso   1.00
C245   C     0.79913   0.92567   0.16039   0.00000  Uiso   1.00
C246   C     0.86252   0.90099   0.15832   0.00000  Uiso   1.00
C247   C     0.86987   0.83695   0.14076   0.00000  Uiso   1.00
C248   C     0.73066   0.98488   0.22266   0.00000  Uiso   1.00
C249   C     0.73648   0.00998   0.27294   0.00000  Uiso   1.00
C250   C     0.68620   0.99579   0.30780   0.00000  Uiso   1.00
C251   C     0.74155   0.02469   0.13316   0.00000  Uiso   1.00
C252   C     0.75652   0.08328   0.10821   0.00000  Uiso   1.00
C253   C     0.71538   0.10263   0.06774   0.00000  Uiso   1.00
H254   H     0.63806   0.89501   0.13922   0.00000  Uiso   1.00
H255   H     0.71034   0.79439   0.11634   0.00000  Uiso   1.00
H256   H     0.58433   0.90338   0.23094   0.00000  Uiso   1.00
H257   H     0.60436   0.97666   0.06624   0.00000  Uiso   1.00
H258   H     0.81435   0.69956   0.09757   0.00000  Uiso   1.00
H259   H     0.54862   0.92937   0.33921   0.00000  Uiso   1.00
H260   H     0.59086   0.08392   0.99191   0.00000  Uiso   1.00
H261   H     0.82203   0.02390   0.18998   0.00000  Uiso   1.00
H262   H     0.90440   0.93035   0.16988   0.00000  Uiso   1.00
H263   H     0.77838   0.03933   0.28448   0.00000  Uiso   1.00
H264   H     0.79841   0.11262   0.11978   0.00000  Uiso   1.00
H265   H     0.97186   0.80991   0.14103   0.00000  Uiso   1.00
H266   H     0.70613   0.03973   0.38267   0.00000  Uiso   1.00
H267   H     0.74836   0.19427   0.03536   0.00000  Uiso   1.00
O268   O     0.94397   0.69086   0.10518   0.00000  Uiso   1.00
O269   O     0.59534   0.99238   0.42219   0.00000  Uiso   1.00
O270   O     0.65076   0.19514   0.96654   0.00000  Uiso   1.00
N271   N     0.84012   0.73837   0.11055   0.00000  Uiso   1.00
N272   N     0.59168   0.95323   0.33647   0.00000  Uiso   1.00
N273   N     0.63116   0.09772   0.01178   0.00000  Uiso   1.00
N274   N     0.92487   0.79775   0.13393   0.00000  Uiso   1.00
N275   N     0.67643   0.01261   0.35985   0.00000  Uiso   1.00
N276   N     0.71591   0.15710   0.03516   0.00000  Uiso   1.00
C277   C     0.31979   0.07546   0.15085   0.00000  Uiso   1.00
C278   C     0.25501   0.11226   0.14545   0.00000  Uiso   1.00
C279   C     0.24775   0.17627   0.12789   0.00000  Uiso   1.00
C280   C     0.18436   0.20105   0.12580   0.00000  Uiso   1.00
C281   C     0.09201   0.26396   0.11516   0.00000  Uiso   1.00
C282   C     0.32347   0.05305   0.20772   0.00000  Uiso   1.00
C283   C     0.37379   0.06728   0.24251   0.00000  Uiso   1.00
C284   C     0.36803   0.04220   0.29283   0.00000  Uiso   1.00
C285   C     0.38200   0.01315   0.37886   0.00000  Uiso   1.00
C286   C     0.31259   0.01324   0.11823   0.00000  Uiso   1.00
C287   C     0.35376   0.99397   0.07779   0.00000  Uiso   1.00
C288   C     0.33885   0.93537   0.05277   0.00000  Uiso   1.00
C289   C     0.33591   0.84450   0.99986   0.00000  Uiso   1.00
C290   C     0.22012   0.00563   0.17835   0.00000  Uiso   1.00
C291   C     0.20087   0.07433   0.16039   0.00000  Uiso   1.00
C292   C     0.13748   0.09901   0.15832   0.00000  Uiso   1.00
C293   C     0.13013   0.16305   0.14076   0.00000  Uiso   1.00
C294   C     0.26934   0.01512   0.22266   0.00000  Uiso   1.00
C295   C     0.26352   0.99002   0.27294   0.00000  Uiso   1.00
C296   C     0.31380   0.00421   0.30780   0.00000  Uiso   1.00
C297   C     0.25845   0.97531   0.13316   0.00000  Uiso   1.00
C298   C     0.24348   0.91672   0.10821   0.00000  Uiso   1.00
C299   C     0.28462   0.89737   0.06774   0.00000  Uiso   1.00
H300   H     0.36194   0.10499   0.13922   0.00000  Uiso   1.00
H301   H     0.28966   0.20561   0.11634   0.00000  Uiso   1.00
H302   H     0.41567   0.09662   0.23094   0.00000  Uiso   1.00
H303   H     0.39564   0.02334   0.06624   0.00000  Uiso   1.00
H304   H     0.18565   0.30044   0.09757   0.00000  Uiso   1.00
H305   H     0.45138   0.07063   0.33921   0.00000  Uiso   1.00
H306   H     0.40914   0.91608   0.99191   0.00000  Uiso   1.00
H307   H     0.17797   0.97610   0.18998   0.00000  Uiso   1.00
H308   H     0.09560   0.06965   0.16988   0.00000  Uiso   1.00
H309   H     0.22162   0.96067   0.28448   0.00000  Uiso   1.00
H310   H     0.20159   0.88738   0.11978   0.00000  Uiso   1.00
H311   H     0.02814   0.19009   0.14103   0.00000  Uiso   1.00
H312   H     0.29387   0.96027   0.38267   0.00000  Uiso   1.00
H313   H     0.25164   0.80573   0.03536   0.00000  Uiso   1.00
O314   O     0.05603   0.30914   0.10518   0.00000  Uiso   1.00
O315   O     0.40466   0.00762   0.42219   0.00000  Uiso   1.00
O316   O     0.34924   0.80486   0.96654   0.00000  Uiso   1.00
N317   N     0.15988   0.26163   0.11055   0.00000  Uiso   1.00
N318   N     0.40832   0.04677   0.33647   0.00000  Uiso   1.00
N319   N     0.36884   0.90228   0.01178   0.00000  Uiso   1.00
N320   N     0.07513   0.20225   0.13393   0.00000  Uiso   1.00
N321   N     0.32357   0.98739   0.35985   0.00000  Uiso   1.00
N322   N     0.28409   0.84290   0.03516   0.00000  Uiso   1.00
C323   C     0.81979   0.57546   0.65085   0.00000  Uiso   1.00
C324   C     0.75501   0.61226   0.64545   0.00000  Uiso   1.00
C325   C     0.74775   0.67627   0.62789   0.00000  Uiso   1.00
C326   C     0.68436   0.70105   0.62580   0.00000  Uiso   1.00
C327   C     0.59201   0.76396   0.61516   0.00000  Uiso   1.00
C328   C     0.82347   0.55305   0.70772   0.00000  Uiso   1.00
C329   C     0.87379   0.56728   0.74251   0.00000  Uiso   1.00
C330   C     0.86803   0.54220   0.79283   0.00000  Uiso   1.00
C331   C     0.88200   0.51315   0.87886   0.00000  Uiso   1.00
C332   C     0.81259   0.51324   0.61823   0.00000  Uiso   1.00
C333   C     0.85376   0.49397   0.57779   0.00000  Uiso   1.00
C334   C     0.83885   0.43537   0.55277   0.00000  Uiso   1.00
C335   C     0.83591   0.34450   0.49986   0.00000  Uiso   1.00
C336   C     0.72012   0.50563   0.67835   0.00000  Uiso   1.00
C337   C     0.70087   0.57433   0.66039   0.00000  Uiso   1.00
C338   C     0.63748   0.59901   0.65832   0.00000  Uiso   1.00
C339   C     0.63013   0.66305   0.64076   0.00000  Uiso   1.00
C340   C     0.76934   0.51512   0.72266   0.00000  Uiso   1.00
C341   C     0.76352   0.49002   0.77294   0.00000  Uiso   1.00
C342   C     0.81380   0.50421   0.80780   0.00000  Uiso   1.00
C343   C     0.75845   0.47531   0.63316   0.00000  Uiso   1.00
C344   C     0.74348   0.41672   0.60821   0.00000  Uiso   1.00
C345   C     0.78462   0.39737   0.56774   0.00000  Uiso   1.00
H346   H     0.86194   0.60499   0.63922   0.00000  Uiso   1.00
H347   H     0.78966   0.70561   0.61634   0.00000  Uiso   1.00
H348   H     0.91567   0.59662   0.73094   0.00000  Uiso   1.00
H349   H     0.89564   0.52334   0.56624   0.00000  Uiso   1.00
H350   H     0.68565   0.80044   0.59757   0.00000  Uiso   1.00
H351   H     0.95138   0.57063   0.83921   0.00000  Uiso   1.00
H352   H     0.90914   0.41608   0.49191   0.00000  Uiso   1.00
H353   H     0.67797   0.47610   0.68998   0.00000  Uiso   1.00
H354   H     0.59560   0.56965   0.66988   0.00000  Uiso   1.00
H355   H     0.72162   0.46067   0.78448   0.00000  Uiso   1.00
H356   H     0.70159   0.38738   0.61978   0.00000  Uiso   1.00
H357   H     0.52814   0.69009   0.64103   0.00000  Uiso   1.00
H358   H     0.79387   0.46027   0.88267   0.00000  Uiso   1.00
H359   H     0.75164   0.30573   0.53536   0.00000  Uiso   1.00
O360   O     0.55603   0.80914   0.60518   0.00000  Uiso   1.00
O361   O     0.90466   0.50762   0.92219   0.00000  Uiso   1.00
O362   O     0.84924   0.30486   0.46654   0.00000  Uiso   1.00
N363   N     0.65988   0.76163   0.61055   0.00000  Uiso   1.00
N364   N     0.90832   0.54677   0.83647   0.00000  Uiso   1.00
N365   N     0.86884   0.40228   0.51178   0.00000  Uiso   1.00
N366   N     0.57513   0.70225   0.63393   0.00000  Uiso   1.00
N367   N     0.82357   0.48739   0.85985   0.00000  Uiso   1.00
N368   N     0.78409   0.34290   0.53516   0.00000  Uiso   1.00
C369   C     0.07546   0.68021   0.84915   0.00000  Uiso   1.00
C370   C     0.11226   0.74499   0.85455   0.00000  Uiso   1.00
C371   C     0.17627   0.75225   0.87211   0.00000  Uiso   1.00
C372   C     0.20105   0.81564   0.87420   0.00000  Uiso   1.00
C373   C     0.26396   0.90799   0.88484   0.00000  Uiso   1.00
C374   C     0.05305   0.67653   0.79228   0.00000  Uiso   1.00
C375   C     0.06728   0.62621   0.75749   0.00000  Uiso   1.00
C376   C     0.04220   0.63197   0.70717   0.00000  Uiso   1.00
C377   C     0.01315   0.61800   0.62114   0.00000  Uiso   1.00
C378   C     0.01324   0.68741   0.88177   0.00000  Uiso   1.00
C379   C     0.99397   0.64624   0.92221   0.00000  Uiso   1.00
C380   C     0.93537   0.66115   0.94723   0.00000  Uiso   1.00
C381   C     0.84450   0.66409   0.00014   0.00000  Uiso   1.00
C382   C     0.00563   0.77988   0.82165   0.00000  Uiso   1.00
C383   C     0.07433   0.79913   0.83961   0.00000  Uiso   1.00
C384   C     0.09901   0.86252   0.84168   0.00000  Uiso   1.00
C385   C     0.16305   0.86987   0.85924   0.00000  Uiso   1.00
C386   C     0.01512   0.73066   0.77734   0.00000  Uiso   1.00
C387   C     0.99002   0.73648   0.72706   0.00000  Uiso   1.00
C388   C     0.00421   0.68620   0.69220   0.00000  Uiso   1.00
C389   C     0.97531   0.74155   0.86684   0.00000  Uiso   1.00
C390   C     0.91672   0.75652   0.89179   0.00000  Uiso   1.00
C391   C     0.89737   0.71538   0.93226   0.00000  Uiso   1.00
H392   H     0.10499   0.63806   0.86078   0.00000  Uiso   1.00
H393   H     0.20561   0.71034   0.88366   0.00000  Uiso   1.00
H394   H     0.09662   0.58433   0.76906   0.00000  Uiso   1.00
H395   H     0.02334   0.60436   0.93376   0.00000  Uiso   1.00
H396   H     0.30044   0.81435   0.90243   0.00000  Uiso   1.00
H397   H     0.07063   0.54862   0.66079   0.00000  Uiso   1.00
H398   H     0.91608   0.59086   0.00809   0.00000  Uiso   1.00
H399   H     0.97610   0.82203   0.81002   0.00000  Uiso   1.00
H400   H     0.06965   0.90440   0.83012   0.00000  Uiso   1.00
H401   H     0.96067   0.77838   0.71552   0.00000  Uiso   1.00
H402   H     0.88738   0.79841   0.88022   0.00000  Uiso   1.00
H403   H     0.19009   0.97186   0.85897   0.00000  Uiso   1.00
H404   H     0.96027   0.70613   0.61733   0.00000  Uiso   1.00
H405   H     0.80573   0.74836   0.96464   0.00000  Uiso   1.00
O406   O     0.30914   0.94397   0.89482   0.00000  Uiso   1.00
O407   O     0.00762   0.59534   0.57781   0.00000  Uiso   1.00
O408   O     0.80486   0.65076   0.03346   0.00000  Uiso   1.00
N409   N     0.26163   0.84012   0.88945   0.00000  Uiso   1.00
N410   N     0.04677   0.59168   0.66353   0.00000  Uiso   1.00
N411   N     0.90228   0.63116   0.98822   0.00000  Uiso   1.00
N412   N     0.20225   0.92487   0.86607   0.00000  Uiso   1.00
N413   N     0.98739   0.67643   0.64015   0.00000  Uiso   1.00
N414   N     0.84290   0.71591   0.96484   0.00000  Uiso   1.00
C415   C     0.57546   0.18021   0.34915   0.00000  Uiso   1.00
C416   C     0.61226   0.24499   0.35455   0.00000  Uiso   1.00
C417   C     0.67627   0.25225   0.37211   0.00000  Uiso   1.00
C418   C     0.70105   0.31564   0.37420   0.00000  Uiso   1.00
C419   C     0.76396   0.40799   0.38484   0.00000  Uiso   1.00
C420   C     0.55305   0.17653   0.29228   0.00000  Uiso   1.00
C421   C     0.56728   0.12621   0.25749   0.00000  Uiso   1.00
C422   C     0.54220   0.13197   0.20717   0.00000  Uiso   1.00
C423   C     0.51315   0.11800   0.12114   0.00000  Uiso   1.00
C424   C     0.51324   0.18741   0.38177   0.00000  Uiso   1.00
C425   C     0.49397   0.14624   0.42221   0.00000  Uiso   1.00
C426   C     0.43537   0.16115   0.44723   0.00000  Uiso   1.00
C427   C     0.34450   0.16409   0.50014   0.00000  Uiso   1.00
C428   C     0.50563   0.27988   0.32165   0.00000  Uiso   1.00
C429   C     0.57433   0.29913   0.33961   0.00000  Uiso   1.00
C430   C     0.59901   0.36252   0.34168   0.00000  Uiso   1.00
C431   C     0.66305   0.36987   0.35924   0.00000  Uiso   1.00
C432   C     0.51512   0.23066   0.27734   0.00000  Uiso   1.00
C433   C     0.49002   0.23648   0.22706   0.00000  Uiso   1.00
C434   C     0.50421   0.18620   0.19220   0.00000  Uiso   1.00
C435   C     0.47531   0.24155   0.36684   0.00000  Uiso   1.00
C436   C     0.41672   0.25652   0.39179   0.00000  Uiso   1.00
C437   C     0.39737   0.21538   0.43226   0.00000  Uiso   1.00
H438   H     0.60499   0.13806   0.36078   0.00000  Uiso   1.00
H439   H     0.70561   0.21034   0.38366   0.00000  Uiso   1.00
H440   H     0.59662   0.08433   0.26906   0.00000  Uiso   1.00
H441   H     0.52334   0.10436   0.43376   0.00000  Uiso   1.00
H442   H     0.80044   0.31435   0.40243   0.00000  Uiso   1.00
H443   H     0.57063   0.04862   0.16079   0.00000  Uiso   1.00
H444   H     0.41608   0.09086   0.50809   0.00000  Uiso   1.00
H445   H     0.47610   0.32203   0.31002   0.00000  Uiso   1.00
H446   H     0.56965   0.40440   0.33012   0.00000  Uiso   1.00
H447   H     0.46067   0.27838   0.21552   0.00000  Uiso   1.00
H448   H     0.38738   0.29841   0.38022   0.00000  Uiso   1.00
H449   H     0.69009   0.47186   0.35897   0.00000  Uiso   1.00
H450   H     0.46027   0.20613   0.11733   0.00000  Uiso   1.00
H451   H     0.30573   0.24836   0.46464   0.00000  Uiso   1.00
O452   O     0.80914   0.44397   0.39482   0.00000  Uiso   1.00
O453   O     0.50762   0.09534   0.07781   0.00000  Uiso   1.00
O454   O     0.30486   0.15076   0.53346   0.00000  Uiso   1.00
N455   N     0.76163   0.34012   0.38945   0.00000  Uiso   1.00
N456   N     0.54677   0.09168   0.16353   0.00000  Uiso   1.00
N457   N     0.40228   0.13116   0.48822   0.00000  Uiso   1.00
N458   N     0.70225   0.42487   0.36607   0.00000  Uiso   1.00
N459   N     0.48739   0.17643   0.14015   0.00000  Uiso   1.00
N460   N     0.34290   0.21591   0.46484   0.00000  Uiso   1.00
C461   C     0.42454   0.81979   0.34915   0.00000  Uiso   1.00
C462   C     0.38774   0.75501   0.35455   0.00000  Uiso   1.00
C463   C     0.32373   0.74775   0.37211   0.00000  Uiso   1.00
C464   C     0.29895   0.68436   0.37420   0.00000  Uiso   1.00
C465   C     0.23604   0.59201   0.38484   0.00000  Uiso   1.00
C466   C     0.44695   0.82347   0.29228   0.00000  Uiso   1.00
C467   C     0.43272   0.87379   0.25749   0.00000  Uiso   1.00
C468   C     0.45780   0.86803   0.20717   0.00000  Uiso   1.00
C469   C     0.48685   0.88200   0.12114   0.00000  Uiso   1.00
C470   C     0.48676   0.81259   0.38177   0.00000  Uiso   1.00
C471   C     0.50603   0.85376   0.42221   0.00000  Uiso   1.00
C472   C     0.56463   0.83885   0.44723   0.00000  Uiso   1.00
C473   C     0.65550   0.83591   0.50014   0.00000  Uiso   1.00
C474   C     0.49437   0.72012   0.32165   0.00000  Uiso   1.00
C475   C     0.42567   0.70087   0.33961   0.00000  Uiso   1.00
C476   C     0.40099   0.63748   0.34168   0.00000  Uiso   1.00
C477   C     0.33695   0.63013   0.35924   0.00000  Uiso   1.00
C478   C     0.48488   0.76934   0.27734   0.00000  Uiso   1.00
C479   C     0.50998   0.76352   0.22706   0.00000  Uiso   1.00
C480   C     0.49579   0.81380   0.19220   0.00000  Uiso   1.00
C481   C     0.52469   0.75845   0.36684   0.00000  Uiso   1.00
C482   C     0.58328   0.74348   0.39179   0.00000  Uiso   1.00
C483   C     0.60263   0.78462   0.43226   0.00000  Uiso   1.00
H484   H     0.39501   0.86194   0.36078   0.00000  Uiso   1.00
H485   H     0.29439   0.78966   0.38366   0.00000  Uiso   1.00
H486   H     0.40338   0.91567   0.26906   0.00000  Uiso   1.00
H487   H     0.47666   0.89564   0.43376   0.00000  Uiso   1.00
H488   H     0.19956   0.68565   0.40243   0.00000  Uiso   1.00
H489   H     0.42937   0.95138   0.16079   0.00000  Uiso   1.00
H490   H     0.58392   0.90914   0.50809   0.00000  Uiso   1.00
H491   H     0.52390   0.67797   0.31002   0.00000  Uiso   1.00
H492   H     0.43035   0.59560   0.33012   0.00000  Uiso   1.00
H493   H     0.53933   0.72162   0.21552   0.00000  Uiso   1.00
H494   H     0.61262   0.70159   0.38022   0.00000  Uiso   1.00
H495   H     0.30991   0.52814   0.35897   0.00000  Uiso   1.00
H496   H     0.53973   0.79387   0.11733   0.00000  Uiso   1.00
H497   H     0.69427   0.75164   0.46464   0.00000  Uiso   1.00
O498   O     0.19086   0.55603   0.39482   0.00000  Uiso   1.00
O499   O     0.49238   0.90466   0.07781   0.00000  Uiso   1.00
O500   O     0.69514   0.84924   0.53346   0.00000  Uiso   1.00
N501   N     0.23837   0.65988   0.38945   0.00000  Uiso   1.00
N502   N     0.45323   0.90832   0.16353   0.00000  Uiso   1.00
N503   N     0.59772   0.86884   0.48822   0.00000  Uiso   1.00
N504   N     0.29775   0.57513   0.36607   0.00000  Uiso   1.00
N505   N     0.51261   0.82357   0.14015   0.00000  Uiso   1.00
N506   N     0.65710   0.78409   0.46484   0.00000  Uiso   1.00
C507   C     0.92454   0.31979   0.84915   0.00000  Uiso   1.00
C508   C     0.88774   0.25501   0.85455   0.00000  Uiso   1.00
C509   C     0.82373   0.24775   0.87211   0.00000  Uiso   1.00
C510   C     0.79895   0.18436   0.87420   0.00000  Uiso   1.00
C511   C     0.73604   0.09201   0.88484   0.00000  Uiso   1.00
C512   C     0.94695   0.32347   0.79228   0.00000  Uiso   1.00
C513   C     0.93272   0.37379   0.75749   0.00000  Uiso   1.00
C514   C     0.95780   0.36803   0.70717   0.00000  Uiso   1.00
C515   C     0.98685   0.38200   0.62114   0.00000  Uiso   1.00
C516   C     0.98676   0.31259   0.88177   0.00000  Uiso   1.00
C517   C     0.00603   0.35376   0.92221   0.00000  Uiso   1.00
C518   C     0.06463   0.33885   0.94723   0.00000  Uiso   1.00
C519   C     0.15550   0.33591   0.00014   0.00000  Uiso   1.00
C520   C     0.99437   0.22012   0.82165   0.00000  Uiso   1.00
C521   C     0.92567   0.20087   0.83961   0.00000  Uiso   1.00
C522   C     0.90099   0.13748   0.84168   0.00000  Uiso   1.00
C523   C     0.83695   0.13013   0.85924   0.00000  Uiso   1.00
C524   C     0.98488   0.26934   0.77734   0.00000  Uiso   1.00
C525   C     0.00998   0.26352   0.72706   0.00000  Uiso   1.00
C526   C     0.99579   0.31380   0.69220   0.00000  Uiso   1.00
C527   C     0.02469   0.25845   0.86684   0.00000  Uiso   1.00
C528   C     0.08328   0.24348   0.89179   0.00000  Uiso   1.00
C529   C     0.10263   0.28462   0.93226   0.00000  Uiso   1.00
H530   H     0.89501   0.36194   0.86078   0.00000  Uiso   1.00
H531   H     0.79439   0.28966   0.88366   0.00000  Uiso   1.00
H532   H     0.90338   0.41567   0.76906   0.00000  Uiso   1.00
H533   H     0.97666   0.39564   0.93376   0.00000  Uiso   1.00
H534   H     0.69956   0.18565   0.90243   0.00000  Uiso   1.00
H535   H     0.92937   0.45138   0.66079   0.00000  Uiso   1.00
H536   H     0.08392   0.40914   0.00809   0.00000  Uiso   1.00
H537   H     0.02390   0.17797   0.81002   0.00000  Uiso   1.00
H538   H     0.93035   0.09560   0.83012   0.00000  Uiso   1.00
H539   H     0.03933   0.22162   0.71552   0.00000  Uiso   1.00
H540   H     0.11262   0.20159   0.88022   0.00000  Uiso   1.00
H541   H     0.80991   0.02814   0.85897   0.00000  Uiso   1.00
H542   H     0.03973   0.29387   0.61733   0.00000  Uiso   1.00
H543   H     0.19427   0.25164   0.96464   0.00000  Uiso   1.00
O544   O     0.69086   0.05603   0.89482   0.00000  Uiso   1.00
O545   O     0.99238   0.40466   0.57781   0.00000  Uiso   1.00
O546   O     0.19514   0.34924   0.03346   0.00000  Uiso   1.00
N547   N     0.73837   0.15988   0.88945   0.00000  Uiso   1.00
N548   N     0.95323   0.40832   0.66353   0.00000  Uiso   1.00
N549   N     0.09772   0.36884   0.98822   0.00000  Uiso   1.00
N550   N     0.79775   0.07513   0.86607   0.00000  Uiso   1.00
N551   N     0.01261   0.32357   0.64015   0.00000  Uiso   1.00
N552   N     0.15710   0.28409   0.96484   0.00000  Uiso   1.00
C553   C     0.81979   0.07546   0.59915   0.00000  Uiso   1.00
C554   C     0.75501   0.11226   0.60455   0.00000  Uiso   1.00
C555   C     0.74775   0.17627   0.62211   0.00000  Uiso   1.00
C556   C     0.68436   0.20105   0.62420   0.00000  Uiso   1.00
C557   C     0.59201   0.26396   0.63484   0.00000  Uiso   1.00
C558   C     0.82347   0.05305   0.54228   0.00000  Uiso   1.00
C559   C     0.87379   0.06728   0.50749   0.00000  Uiso   1.00
C560   C     0.86803   0.04220   0.45717   0.00000  Uiso   1.00
C561   C     0.88200   0.01315   0.37114   0.00000  Uiso   1.00
C562   C     0.81259   0.01324   0.63177   0.00000  Uiso   1.00
C563   C     0.85376   0.99397   0.67221   0.00000  Uiso   1.00
C564   C     0.83885   0.93537   0.69723   0.00000  Uiso   1.00
C565   C     0.83591   0.84450   0.75014   0.00000  Uiso   1.00
C566   C     0.72012   0.00563   0.57165   0.00000  Uiso   1.00
C567   C     0.70087   0.07433   0.58961   0.00000  Uiso   1.00
C568   C     0.63748   0.09901   0.59168   0.00000  Uiso   1.00
C569   C     0.63013   0.16305   0.60924   0.00000  Uiso   1.00
C570   C     0.76934   0.01512   0.52734   0.00000  Uiso   1.00
C571   C     0.76352   0.99002   0.47706   0.00000  Uiso   1.00
C572   C     0.81380   0.00421   0.44220   0.00000  Uiso   1.00
C573   C     0.75845   0.97531   0.61684   0.00000  Uiso   1.00
C574   C     0.74348   0.91672   0.64179   0.00000  Uiso   1.00
C575   C     0.78462   0.89737   0.68226   0.00000  Uiso   1.00
H576   H     0.86194   0.10499   0.61078   0.00000  Uiso   1.00
H577   H     0.78966   0.20561   0.63366   0.00000  Uiso   1.00
H578   H     0.91567   0.09662   0.51906   0.00000  Uiso   1.00
H579   H     0.89564   0.02334   0.68376   0.00000  Uiso   1.00
H580   H     0.68565   0.30044   0.65243   0.00000  Uiso   1.00
H581   H     0.95138   0.07063   0.41079   0.00000  Uiso   1.00
H582   H     0.90914   0.91608   0.75809   0.00000  Uiso   1.00
H583   H     0.67797   0.97610   0.56002   0.00000  Uiso   1.00
H584   H     0.59560   0.06965   0.58012   0.00000  Uiso   1.00
H585   H     0.72162   0.96067   0.46552   0.00000  Uiso   1.00
H586   H     0.70159   0.88738   0.63022   0.00000  Uiso   1.00
H587   H     0.52814   0.19009   0.60897   0.00000  Uiso   1.00
H588   H     0.79387   0.96027   0.36733   0.00000  Uiso   1.00
H589   H     0.75164   0.80573   0.71464   0.00000  Uiso   1.00
O590   O     0.55603   0.30914   0.64482   0.00000  Uiso   1.00
O591   O     0.90466   0.00762   0.32781   0.00000  Uiso   1.00
O592   O     0.84924   0.80486   0.78346   0.00000  Uiso   1.00
N593   N     0.65988   0.26163   0.63945   0.00000  Uiso   1.00
N594   N     0.90832   0.04677   0.41353   0.00000  Uiso   1.00
N595   N     0.86884   0.90228   0.73822   0.00000  Uiso   1.00
N596   N     0.57513   0.20225   0.61607   0.00000  Uiso   1.00
N597   N     0.82357   0.98739   0.39015   0.00000  Uiso   1.00
N598   N     0.78409   0.84290   0.71484   0.00000  Uiso   1.00
C599   C     0.31979   0.57546   0.09915   0.00000  Uiso   1.00
C600   C     0.25501   0.61226   0.10455   0.00000  Uiso   1.00
C601   C     0.24775   0.67627   0.12211   0.00000  Uiso   1.00
C602   C     0.18436   0.70105   0.12420   0.00000  Uiso   1.00
C603   C     0.09201   0.76396   0.13484   0.00000  Uiso   1.00
C604   C     0.32347   0.55305   0.04228   0.00000  Uiso   1.00
C605   C     0.37379   0.56728   0.00749   0.00000  Uiso   1.00
C606   C     0.36803   0.54220   0.95717   0.00000  Uiso   1.00
C607   C     0.38200   0.51315   0.87114   0.00000  Uiso   1.00
C608   C     0.31259   0.51324   0.13177   0.00000  Uiso   1.00
C609   C     0.35376   0.49397   0.17221   0.00000  Uiso   1.00
C610   C     0.33885   0.43537   0.19723   0.00000  Uiso   1.00
C611   C     0.33591   0.34450   0.25014   0.00000  Uiso   1.00
C612   C     0.22012   0.50563   0.07165   0.00000  Uiso   1.00
C613   C     0.20087   0.57433   0.08961   0.00000  Uiso   1.00
C614   C     0.13748   0.59901   0.09168   0.00000  Uiso   1.00
C615   C     0.13013   0.66305   0.10924   0.00000  Uiso   1.00
C616   C     0.26934   0.51512   0.02734   0.00000  Uiso   1.00
C617   C     0.26352   0.49002   0.97706   0.00000  Uiso   1.00
C618   C     0.31380   0.50421   0.94220   0.00000  Uiso   1.00
C619   C     0.25845   0.47531   0.11684   0.00000  Uiso   1.00
C620   C     0.24348   0.41672   0.14179   0.00000  Uiso   1.00
C621   C     0.28462   0.39737   0.18226   0.00000  Uiso   1.00
H622   H     0.36194   0.60499   0.11078   0.00000  Uiso   1.00
H623   H     0.28966   0.70561   0.13366   0.00000  Uiso   1.00
H624   H     0.41567   0.59662   0.01906   0.00000  Uiso   1.00
H625   H     0.39564   0.52334   0.18376   0.00000  Uiso   1.00
H626   H     0.18565   0.80044   0.15243   0.00000  Uiso   1.00
H627   H     0.45138   0.57063   0.91079   0.00000  Uiso   1.00
H628   H     0.40914   0.41608   0.25809   0.00000  Uiso   1.00
H629   H     0.17797   0.47610   0.06002   0.00000  Uiso   1.00
H630   H     0.09560   0.56965   0.08012   0.00000  Uiso   1.00
H631   H     0.22162   0.46067   0.96552   0.00000  Uiso   1.00
H632   H     0.20159   0.38738   0.13022   0.00000  Uiso   1.00
H633   H     0.02814   0.69009   0.10897   0.00000  Uiso   1.00
H634   H     0.29387   0.46027   0.86733   0.00000  Uiso   1.00
H635   H     0.25164   0.30573   0.21464   0.00000  Uiso   1.00
O636   O     0.05603   0.80914   0.14482   0.00000  Uiso   1.00
O637   O     0.40466   0.50762   0.82781   0.00000  Uiso   1.00
O638   O     0.34924   0.30486   0.28346   0.00000  Uiso   1.00
N639   N     0.15988   0.76163   0.13945   0.00000  Uiso   1.00
N640   N     0.40832   0.54677   0.91353   0.00000  Uiso   1.00
N641   N     0.36884   0.40228   0.23822   0.00000  Uiso   1.00
N642   N     0.07513   0.70225   0.11607   0.00000  Uiso   1.00
N643   N     0.32357   0.48739   0.89015   0.00000  Uiso   1.00
N644   N     0.28409   0.34290   0.21484   0.00000  Uiso   1.00
C645   C     0.68021   0.42454   0.09915   0.00000  Uiso   1.00
C646   C     0.74499   0.38774   0.10455   0.00000  Uiso   1.00
C647   C     0.75225   0.32373   0.12211   0.00000  Uiso   1.00
C648   C     0.81564   0.29895   0.12420   0.00000  Uiso   1.00
C649   C     0.90799   0.23604   0.13484   0.00000  Uiso   1.00
C650   C     0.67653   0.44695   0.04228   0.00000  Uiso   1.00
C651   C     0.62621   0.43272   0.00749   0.00000  Uiso   1.00
C652   C     0.63197   0.45780   0.95717   0.00000  Uiso   1.00
C653   C     0.61800   0.48685   0.87114   0.00000  Uiso   1.00
C654   C     0.68741   0.48676   0.13177   0.00000  Uiso   1.00
C655   C     0.64624   0.50603   0.17221   0.00000  Uiso   1.00
C656   C     0.66115   0.56463   0.19723   0.00000  Uiso   1.00
C657   C     0.66409   0.65550   0.25014   0.00000  Uiso   1.00
C658   C     0.77988   0.49437   0.07165   0.00000  Uiso   1.00
C659   C     0.79913   0.42567   0.08961   0.00000  Uiso   1.00
C660   C     0.86252   0.40099   0.09168   0.00000  Uiso   1.00
C661   C     0.86987   0.33695   0.10924   0.00000  Uiso   1.00
C662   C     0.73066   0.48488   0.02734   0.00000  Uiso   1.00
C663   C     0.73648   0.50998   0.97706   0.00000  Uiso   1.00
C664   C     0.68620   0.49579   0.94220   0.00000  Uiso   1.00
C665   C     0.74155   0.52469   0.11684   0.00000  Uiso   1.00
C666   C     0.75652   0.58328   0.14179   0.00000  Uiso   1.00
C667   C     0.71538   0.60263   0.18226   0.00000  Uiso   1.00
H668   H     0.63806   0.39501   0.11078   0.00000  Uiso   1.00
H669   H     0.71034   0.29439   0.13366   0.00000  Uiso   1.00
H670   H     0.58433   0.40338   0.01906   0.00000  Uiso   1.00
H671   H     0.60436   0.47666   0.18376   0.00000  Uiso   1.00
H672   H     0.81435   0.19956   0.15243   0.00000  Uiso   1.00
H673   H     0.54862   0.42937   0.91079   0.00000  Uiso   1.00
H674   H     0.59086   0.58392   0.25809   0.00000  Uiso   1.00
H675   H     0.82203   0.52390   0.06002   0.00000  Uiso   1.00
H676   H     0.90440   0.43035   0.08012   0.00000  Uiso   1.00
H677   H     0.77838   0.53933   0.96552   0.00000  Uiso   1.00
H678   H     0.79841   0.61262   0.13022   0.00000  Uiso   1.00
H679   H     0.97186   0.30991   0.10897   0.00000  Uiso   1.00
H680   H     0.70613   0.53973   0.86733   0.00000  Uiso   1.00
H681   H     0.74836   0.69427   0.21464   0.00000  Uiso   1.00
O682   O     0.94397   0.19086   0.14482   0.00000  Uiso   1.00
O683   O     0.59534   0.49238   0.82781   0.00000  Uiso   1.00
O684   O     0.65076   0.69514   0.28346   0.00000  Uiso   1.00
N685   N     0.84012   0.23837   0.13945   0.00000  Uiso   1.00
N686   N     0.59168   0.45323   0.91353   0.00000  Uiso   1.00
N687   N     0.63116   0.59772   0.23822   0.00000  Uiso   1.00
N688   N     0.92487   0.29775   0.11607   0.00000  Uiso   1.00
N689   N     0.67643   0.51261   0.89015   0.00000  Uiso   1.00
N690   N     0.71591   0.65710   0.21484   0.00000  Uiso   1.00
C691   C     0.18021   0.92454   0.59915   0.00000  Uiso   1.00
C692   C     0.24499   0.88774   0.60455   0.00000  Uiso   1.00
C693   C     0.25225   0.82373   0.62211   0.00000  Uiso   1.00
C694   C     0.31564   0.79895   0.62420   0.00000  Uiso   1.00
C695   C     0.40799   0.73604   0.63484   0.00000  Uiso   1.00
C696   C     0.17653   0.94695   0.54228   0.00000  Uiso   1.00
C697   C     0.12621   0.93272   0.50749   0.00000  Uiso   1.00
C698   C     0.13197   0.95780   0.45717   0.00000  Uiso   1.00
C699   C     0.11800   0.98685   0.37114   0.00000  Uiso   1.00
C700   C     0.18741   0.98676   0.63177   0.00000  Uiso   1.00
C701   C     0.14624   0.00603   0.67221   0.00000  Uiso   1.00
C702   C     0.16115   0.06463   0.69723   0.00000  Uiso   1.00
C703   C     0.16409   0.15550   0.75014   0.00000  Uiso   1.00
C704   C     0.27988   0.99437   0.57165   0.00000  Uiso   1.00
C705   C     0.29913   0.92567   0.58961   0.00000  Uiso   1.00
C706   C     0.36252   0.90099   0.59168   0.00000  Uiso   1.00
C707   C     0.36987   0.83695   0.60924   0.00000  Uiso   1.00
C708   C     0.23066   0.98488   0.52734   0.00000  Uiso   1.00
C709   C     0.23648   0.00998   0.47706   0.00000  Uiso   1.00
C710   C     0.18620   0.99579   0.44220   0.00000  Uiso   1.00
C711   C     0.24155   0.02469   0.61684   0.00000  Uiso   1.00
C712   C     0.25652   0.08328   0.64179   0.00000  Uiso   1.00
C713   C     0.21538   0.10263   0.68226   0.00000  Uiso   1.00
H714   H     0.13806   0.89501   0.61078   0.00000  Uiso   1.00
H715   H     0.21034   0.79439   0.63366   0.00000  Uiso   1.00
H716   H     0.08433   0.90338   0.51906   0.00000  Uiso   1.00
H717   H     0.10436   0.97666   0.68376   0.00000  Uiso   1.00
H718   H     0.31435   0.69956   0.65243   0.00000  Uiso   1.00
H719   H     0.04862   0.92937   0.41079   0.00000  Uiso   1.00
H720   H     0.09086   0.08392   0.75809   0.00000  Uiso   1.00
H721   H     0.32203   0.02390   0.56002   0.00000  Uiso   1.00
H722   H     0.40440   0.93035   0.58012   0.00000  Uiso   1.00
H723   H     0.27838   0.03933   0.46552   0.00000  Uiso   1.00
H724   H     0.29841   0.11262   0.63022   0.00000  Uiso   1.00
H725   H     0.47186   0.80991   0.60897   0.00000  Uiso   1.00
H726   H     0.20613   0.03973   0.36733   0.00000  Uiso   1.00
H727   H     0.24836   0.19427   0.71464   0.00000  Uiso   1.00
O728   O     0.44397   0.69086   0.64482   0.00000  Uiso   1.00
O729   O     0.09534   0.99238   0.32781   0.00000  Uiso   1.00
O730   O     0.15076   0.19514   0.78346   0.00000  Uiso   1.00
N731   N     0.34012   0.73837   0.63945   0.00000  Uiso   1.00
N732   N     0.09168   0.95323   0.41353   0.00000  Uiso   1.00
N733   N     0.13116   0.09772   0.73822   0.00000  Uiso   1.00
N734   N     0.42487   0.79775   0.61607   0.00000  Uiso   1.00
N735   N     0.17643   0.01261   0.39015   0.00000  Uiso   1.00
N736   N     0.21591   0.15710   0.71484   0.00000  Uiso   1.00
