data_job_02081
_audit_creation_date              2018-12-19
_audit_creation_method            'Materials Studio'
_symmetry_space_group_name_H-M    'P1'
_symmetry_Int_Tables_number       1
_symmetry_cell_setting            triclinic
loop_
_symmetry_equiv_pos_as_xyz
  x,y,z
_cell_length_a                    25.3335
_cell_length_b                    25.3335
_cell_length_c                    25.6610
_cell_angle_alpha                 90.0000
_cell_angle_beta                  90.0000
_cell_angle_gamma                 90.0000
loop_
_atom_site_label
_atom_site_type_symbol
_atom_site_fract_x
_atom_site_fract_y
_atom_site_fract_z
_atom_site_U_iso_or_equiv
_atom_site_adp_type
_atom_site_occupancy
C1     C     0.04727   0.36704   0.47913   0.00000  Uiso   1.00
C2     C     0.01411   0.39351   0.52128   0.00000  Uiso   1.00
C3     C     0.96608   0.41868   0.51358   0.00000  Uiso   1.00
C4     C     0.94194   0.44043   0.55715   0.00000  Uiso   1.00
C5     C     0.88695   0.48206   0.61507   0.00000  Uiso   1.00
C6     C     0.10143   0.39320   0.48151   0.00000  Uiso   1.00
C7     C     0.12683   0.41809   0.44037   0.00000  Uiso   1.00
C8     C     0.17620   0.43957   0.45046   0.00000  Uiso   1.00
C9     C     0.25680   0.48068   0.44663   0.00000  Uiso   1.00
C10    C     0.05543   0.31022   0.49701   0.00000  Uiso   1.00
C11    C     0.04216   0.26535   0.46890   0.00000  Uiso   1.00
C12    C     0.05281   0.21696   0.49204   0.00000  Uiso   1.00
C13    C     0.06198   0.12924   0.51227   0.00000  Uiso   1.00
C14    C     0.08981   0.36092   0.57021   0.00000  Uiso   1.00
C15    C     0.03722   0.39019   0.57075   0.00000  Uiso   1.00
C16    C     0.01314   0.41190   0.61434   0.00000  Uiso   1.00
C17    C     0.96509   0.43709   0.60671   0.00000  Uiso   1.00
C18    C     0.12454   0.38987   0.53098   0.00000  Uiso   1.00
C19    C     0.17389   0.41132   0.54114   0.00000  Uiso   1.00
C20    C     0.19935   0.43624   0.50002   0.00000  Uiso   1.00
C21    C     0.07853   0.30690   0.54648   0.00000  Uiso   1.00
C22    C     0.08922   0.25857   0.56967   0.00000  Uiso   1.00
C23    C     0.07596   0.21363   0.54160   0.00000  Uiso   1.00
H24    H     0.02929   0.36963   0.44061   0.00000  Uiso   1.00
H25    H     0.94822   0.42125   0.47528   0.00000  Uiso   1.00
H26    H     0.10894   0.42065   0.40209   0.00000  Uiso   1.00
H27    H     0.02428   0.26794   0.43062   0.00000  Uiso   1.00
H28    H     0.86853   0.47702   0.53554   0.00000  Uiso   1.00
H29    H     0.20743   0.47576   0.38120   0.00000  Uiso   1.00
H30    H     0.02891   0.15372   0.44135   0.00000  Uiso   1.00
H31    H     0.10780   0.35833   0.60872   0.00000  Uiso   1.00
H32    H     0.03103   0.40932   0.65262   0.00000  Uiso   1.00
H33    H     0.19176   0.40873   0.57942   0.00000  Uiso   1.00
H34    H     0.10710   0.25601   0.60795   0.00000  Uiso   1.00
H35    H     0.93575   0.46735   0.67947   0.00000  Uiso   1.00
H36    H     0.27465   0.46608   0.52513   0.00000  Uiso   1.00
H37    H     0.09613   0.14404   0.58528   0.00000  Uiso   1.00
O38    O     0.85023   0.50595   0.63334   0.00000  Uiso   1.00
O39    O     0.29486   0.50428   0.43085   0.00000  Uiso   1.00
O40    O     0.06064   0.08177   0.50977   0.00000  Uiso   1.00
N41    N     0.89488   0.46774   0.56339   0.00000  Uiso   1.00
N42    N     0.21173   0.46656   0.41909   0.00000  Uiso   1.00
N43    N     0.04484   0.16548   0.47532   0.00000  Uiso   1.00
N44    N     0.93105   0.46253   0.64084   0.00000  Uiso   1.00
N45    N     0.24790   0.46135   0.49654   0.00000  Uiso   1.00
N46    N     0.08101   0.16027   0.55277   0.00000  Uiso   1.00
C47    C     0.54727   0.86704   0.97913   0.00000  Uiso   1.00
C48    C     0.51411   0.89351   0.02128   0.00000  Uiso   1.00
C49    C     0.46608   0.91868   0.01358   0.00000  Uiso   1.00
C50    C     0.44194   0.94043   0.05715   0.00000  Uiso   1.00
C51    C     0.38695   0.98206   0.11507   0.00000  Uiso   1.00
C52    C     0.60143   0.89320   0.98151   0.00000  Uiso   1.00
C53    C     0.62683   0.91809   0.94037   0.00000  Uiso   1.00
C54    C     0.67620   0.93957   0.95046   0.00000  Uiso   1.00
C55    C     0.75680   0.98068   0.94663   0.00000  Uiso   1.00
C56    C     0.55543   0.81022   0.99701   0.00000  Uiso   1.00
C57    C     0.54216   0.76535   0.96890   0.00000  Uiso   1.00
C58    C     0.55281   0.71696   0.99204   0.00000  Uiso   1.00
C59    C     0.56198   0.62924   0.01227   0.00000  Uiso   1.00
C60    C     0.58981   0.86092   0.07021   0.00000  Uiso   1.00
C61    C     0.53722   0.89019   0.07075   0.00000  Uiso   1.00
C62    C     0.51314   0.91190   0.11434   0.00000  Uiso   1.00
C63    C     0.46509   0.93709   0.10671   0.00000  Uiso   1.00
C64    C     0.62454   0.88987   0.03098   0.00000  Uiso   1.00
C65    C     0.67389   0.91132   0.04114   0.00000  Uiso   1.00
C66    C     0.69935   0.93624   0.00002   0.00000  Uiso   1.00
C67    C     0.57853   0.80690   0.04648   0.00000  Uiso   1.00
C68    C     0.58922   0.75857   0.06967   0.00000  Uiso   1.00
C69    C     0.57596   0.71363   0.04160   0.00000  Uiso   1.00
H70    H     0.52929   0.86963   0.94061   0.00000  Uiso   1.00
H71    H     0.44822   0.92125   0.97528   0.00000  Uiso   1.00
H72    H     0.60894   0.92065   0.90209   0.00000  Uiso   1.00
H73    H     0.52428   0.76794   0.93062   0.00000  Uiso   1.00
H74    H     0.36853   0.97702   0.03554   0.00000  Uiso   1.00
H75    H     0.70743   0.97576   0.88120   0.00000  Uiso   1.00
H76    H     0.52891   0.65372   0.94135   0.00000  Uiso   1.00
H77    H     0.60780   0.85833   0.10872   0.00000  Uiso   1.00
H78    H     0.53103   0.90932   0.15262   0.00000  Uiso   1.00
H79    H     0.69176   0.90873   0.07942   0.00000  Uiso   1.00
H80    H     0.60710   0.75601   0.10795   0.00000  Uiso   1.00
H81    H     0.43575   0.96735   0.17947   0.00000  Uiso   1.00
H82    H     0.77465   0.96608   0.02513   0.00000  Uiso   1.00
H83    H     0.59613   0.64404   0.08528   0.00000  Uiso   1.00
O84    O     0.35023   0.00595   0.13334   0.00000  Uiso   1.00
O85    O     0.79486   0.00428   0.93085   0.00000  Uiso   1.00
O86    O     0.56064   0.58177   0.00977   0.00000  Uiso   1.00
N87    N     0.39488   0.96774   0.06339   0.00000  Uiso   1.00
N88    N     0.71173   0.96656   0.91909   0.00000  Uiso   1.00
N89    N     0.54484   0.66548   0.97532   0.00000  Uiso   1.00
N90    N     0.43105   0.96253   0.14084   0.00000  Uiso   1.00
N91    N     0.74790   0.96135   0.99654   0.00000  Uiso   1.00
N92    N     0.58101   0.66027   0.05277   0.00000  Uiso   1.00
C93    C     0.45273   0.13296   0.97913   0.00000  Uiso   1.00
C94    C     0.48589   0.10649   0.02128   0.00000  Uiso   1.00
C95    C     0.53392   0.08132   0.01358   0.00000  Uiso   1.00
C96    C     0.55806   0.05957   0.05715   0.00000  Uiso   1.00
C97    C     0.61305   0.01794   0.11507   0.00000  Uiso   1.00
C98    C     0.39857   0.10680   0.98151   0.00000  Uiso   1.00
C99    C     0.37317   0.08191   0.94037   0.00000  Uiso   1.00
C100   C     0.32380   0.06043   0.95046   0.00000  Uiso   1.00
C101   C     0.24320   0.01932   0.94663   0.00000  Uiso   1.00
C102   C     0.44457   0.18978   0.99701   0.00000  Uiso   1.00
C103   C     0.45784   0.23465   0.96890   0.00000  Uiso   1.00
C104   C     0.44719   0.28304   0.99204   0.00000  Uiso   1.00
C105   C     0.43802   0.37076   0.01227   0.00000  Uiso   1.00
C106   C     0.41019   0.13908   0.07021   0.00000  Uiso   1.00
C107   C     0.46278   0.10981   0.07075   0.00000  Uiso   1.00
C108   C     0.48686   0.08810   0.11434   0.00000  Uiso   1.00
C109   C     0.53491   0.06291   0.10671   0.00000  Uiso   1.00
C110   C     0.37546   0.11013   0.03098   0.00000  Uiso   1.00
C111   C     0.32611   0.08868   0.04114   0.00000  Uiso   1.00
C112   C     0.30065   0.06376   0.00002   0.00000  Uiso   1.00
C113   C     0.42147   0.19310   0.04648   0.00000  Uiso   1.00
C114   C     0.41078   0.24143   0.06967   0.00000  Uiso   1.00
C115   C     0.42404   0.28637   0.04160   0.00000  Uiso   1.00
H116   H     0.47071   0.13037   0.94061   0.00000  Uiso   1.00
H117   H     0.55178   0.07875   0.97528   0.00000  Uiso   1.00
H118   H     0.39106   0.07935   0.90209   0.00000  Uiso   1.00
H119   H     0.47572   0.23206   0.93062   0.00000  Uiso   1.00
H120   H     0.63147   0.02298   0.03554   0.00000  Uiso   1.00
H121   H     0.29257   0.02424   0.88120   0.00000  Uiso   1.00
H122   H     0.47109   0.34628   0.94135   0.00000  Uiso   1.00
H123   H     0.39220   0.14167   0.10872   0.00000  Uiso   1.00
H124   H     0.46897   0.09068   0.15262   0.00000  Uiso   1.00
H125   H     0.30824   0.09127   0.07942   0.00000  Uiso   1.00
H126   H     0.39290   0.24399   0.10795   0.00000  Uiso   1.00
H127   H     0.56425   0.03265   0.17947   0.00000  Uiso   1.00
H128   H     0.22535   0.03392   0.02513   0.00000  Uiso   1.00
H129   H     0.40387   0.35596   0.08528   0.00000  Uiso   1.00
O130   O     0.64977   0.99405   0.13334   0.00000  Uiso   1.00
O131   O     0.20514   0.99572   0.93085   0.00000  Uiso   1.00
O132   O     0.43936   0.41823   0.00977   0.00000  Uiso   1.00
N133   N     0.60512   0.03226   0.06339   0.00000  Uiso   1.00
N134   N     0.28827   0.03344   0.91909   0.00000  Uiso   1.00
N135   N     0.45516   0.33452   0.97532   0.00000  Uiso   1.00
N136   N     0.56895   0.03747   0.14084   0.00000  Uiso   1.00
N137   N     0.25210   0.03865   0.99654   0.00000  Uiso   1.00
N138   N     0.41899   0.33973   0.05277   0.00000  Uiso   1.00
C139   C     0.95273   0.63296   0.47913   0.00000  Uiso   1.00
C140   C     0.98589   0.60649   0.52128   0.00000  Uiso   1.00
C141   C     0.03392   0.58132   0.51358   0.00000  Uiso   1.00
C142   C     0.05806   0.55957   0.55715   0.00000  Uiso   1.00
C143   C     0.11305   0.51794   0.61507   0.00000  Uiso   1.00
C144   C     0.89857   0.60680   0.48151   0.00000  Uiso   1.00
C145   C     0.87317   0.58191   0.44037   0.00000  Uiso   1.00
C146   C     0.82380   0.56043   0.45046   0.00000  Uiso   1.00
C147   C     0.74320   0.51932   0.44663   0.00000  Uiso   1.00
C148   C     0.94457   0.68978   0.49701   0.00000  Uiso   1.00
C149   C     0.95784   0.73465   0.46890   0.00000  Uiso   1.00
C150   C     0.94719   0.78304   0.49204   0.00000  Uiso   1.00
C151   C     0.93802   0.87076   0.51227   0.00000  Uiso   1.00
C152   C     0.91019   0.63908   0.57021   0.00000  Uiso   1.00
C153   C     0.96278   0.60981   0.57075   0.00000  Uiso   1.00
C154   C     0.98686   0.58810   0.61434   0.00000  Uiso   1.00
C155   C     0.03491   0.56291   0.60671   0.00000  Uiso   1.00
C156   C     0.87546   0.61013   0.53098   0.00000  Uiso   1.00
C157   C     0.82611   0.58868   0.54114   0.00000  Uiso   1.00
C158   C     0.80065   0.56376   0.50002   0.00000  Uiso   1.00
C159   C     0.92147   0.69310   0.54648   0.00000  Uiso   1.00
C160   C     0.91078   0.74143   0.56967   0.00000  Uiso   1.00
C161   C     0.92404   0.78637   0.54160   0.00000  Uiso   1.00
H162   H     0.97071   0.63037   0.44061   0.00000  Uiso   1.00
H163   H     0.05178   0.57875   0.47528   0.00000  Uiso   1.00
H164   H     0.89106   0.57935   0.40209   0.00000  Uiso   1.00
H165   H     0.97572   0.73206   0.43062   0.00000  Uiso   1.00
H166   H     0.13147   0.52298   0.53554   0.00000  Uiso   1.00
H167   H     0.79257   0.52424   0.38120   0.00000  Uiso   1.00
H168   H     0.97109   0.84628   0.44135   0.00000  Uiso   1.00
H169   H     0.89220   0.64167   0.60872   0.00000  Uiso   1.00
H170   H     0.96897   0.59068   0.65262   0.00000  Uiso   1.00
H171   H     0.80824   0.59127   0.57942   0.00000  Uiso   1.00
H172   H     0.89290   0.74399   0.60795   0.00000  Uiso   1.00
H173   H     0.06425   0.53265   0.67947   0.00000  Uiso   1.00
H174   H     0.72535   0.53392   0.52513   0.00000  Uiso   1.00
H175   H     0.90387   0.85596   0.58528   0.00000  Uiso   1.00
O176   O     0.14977   0.49405   0.63334   0.00000  Uiso   1.00
O177   O     0.70514   0.49572   0.43085   0.00000  Uiso   1.00
O178   O     0.93936   0.91823   0.50977   0.00000  Uiso   1.00
N179   N     0.10512   0.53226   0.56339   0.00000  Uiso   1.00
N180   N     0.78827   0.53344   0.41909   0.00000  Uiso   1.00
N181   N     0.95516   0.83452   0.47532   0.00000  Uiso   1.00
N182   N     0.06895   0.53747   0.64084   0.00000  Uiso   1.00
N183   N     0.75210   0.53865   0.49654   0.00000  Uiso   1.00
N184   N     0.91899   0.83973   0.55277   0.00000  Uiso   1.00
C185   C     0.63296   0.54727   0.72913   0.00000  Uiso   1.00
C186   C     0.60649   0.51411   0.77128   0.00000  Uiso   1.00
C187   C     0.58132   0.46608   0.76358   0.00000  Uiso   1.00
C188   C     0.55957   0.44194   0.80715   0.00000  Uiso   1.00
C189   C     0.51794   0.38695   0.86507   0.00000  Uiso   1.00
C190   C     0.60680   0.60143   0.73151   0.00000  Uiso   1.00
C191   C     0.58191   0.62683   0.69037   0.00000  Uiso   1.00
C192   C     0.56043   0.67620   0.70046   0.00000  Uiso   1.00
C193   C     0.51932   0.75680   0.69663   0.00000  Uiso   1.00
C194   C     0.68978   0.55543   0.74701   0.00000  Uiso   1.00
C195   C     0.73465   0.54216   0.71890   0.00000  Uiso   1.00
C196   C     0.78304   0.55281   0.74204   0.00000  Uiso   1.00
C197   C     0.87076   0.56198   0.76227   0.00000  Uiso   1.00
C198   C     0.63908   0.58981   0.82021   0.00000  Uiso   1.00
C199   C     0.60981   0.53722   0.82075   0.00000  Uiso   1.00
C200   C     0.58810   0.51314   0.86434   0.00000  Uiso   1.00
C201   C     0.56291   0.46509   0.85671   0.00000  Uiso   1.00
C202   C     0.61013   0.62454   0.78098   0.00000  Uiso   1.00
C203   C     0.58868   0.67389   0.79114   0.00000  Uiso   1.00
C204   C     0.56376   0.69935   0.75002   0.00000  Uiso   1.00
C205   C     0.69310   0.57853   0.79648   0.00000  Uiso   1.00
C206   C     0.74143   0.58922   0.81967   0.00000  Uiso   1.00
C207   C     0.78637   0.57596   0.79160   0.00000  Uiso   1.00
H208   H     0.63037   0.52929   0.69061   0.00000  Uiso   1.00
H209   H     0.57875   0.44822   0.72528   0.00000  Uiso   1.00
H210   H     0.57935   0.60894   0.65209   0.00000  Uiso   1.00
H211   H     0.73206   0.52428   0.68062   0.00000  Uiso   1.00
H212   H     0.52298   0.36853   0.78554   0.00000  Uiso   1.00
H213   H     0.52424   0.70743   0.63120   0.00000  Uiso   1.00
H214   H     0.84628   0.52891   0.69135   0.00000  Uiso   1.00
H215   H     0.64167   0.60780   0.85872   0.00000  Uiso   1.00
H216   H     0.59068   0.53103   0.90262   0.00000  Uiso   1.00
H217   H     0.59127   0.69176   0.82942   0.00000  Uiso   1.00
H218   H     0.74399   0.60710   0.85795   0.00000  Uiso   1.00
H219   H     0.53265   0.43575   0.92947   0.00000  Uiso   1.00
H220   H     0.53392   0.77465   0.77513   0.00000  Uiso   1.00
H221   H     0.85596   0.59613   0.83528   0.00000  Uiso   1.00
O222   O     0.49405   0.35023   0.88334   0.00000  Uiso   1.00
O223   O     0.49572   0.79486   0.68085   0.00000  Uiso   1.00
O224   O     0.91823   0.56064   0.75977   0.00000  Uiso   1.00
N225   N     0.53226   0.39488   0.81339   0.00000  Uiso   1.00
N226   N     0.53344   0.71173   0.66909   0.00000  Uiso   1.00
N227   N     0.83452   0.54484   0.72532   0.00000  Uiso   1.00
N228   N     0.53747   0.43105   0.89084   0.00000  Uiso   1.00
N229   N     0.53865   0.74790   0.74654   0.00000  Uiso   1.00
N230   N     0.83973   0.58101   0.80277   0.00000  Uiso   1.00
C231   C     0.13296   0.04727   0.22913   0.00000  Uiso   1.00
C232   C     0.10649   0.01411   0.27128   0.00000  Uiso   1.00
C233   C     0.08132   0.96608   0.26358   0.00000  Uiso   1.00
C234   C     0.05957   0.94194   0.30715   0.00000  Uiso   1.00
C235   C     0.01794   0.88695   0.36507   0.00000  Uiso   1.00
C236   C     0.10680   0.10143   0.23151   0.00000  Uiso   1.00
C237   C     0.08191   0.12683   0.19037   0.00000  Uiso   1.00
C238   C     0.06043   0.17620   0.20046   0.00000  Uiso   1.00
C239   C     0.01932   0.25680   0.19663   0.00000  Uiso   1.00
C240   C     0.18978   0.05543   0.24701   0.00000  Uiso   1.00
C241   C     0.23465   0.04216   0.21890   0.00000  Uiso   1.00
C242   C     0.28304   0.05281   0.24204   0.00000  Uiso   1.00
C243   C     0.37076   0.06198   0.26227   0.00000  Uiso   1.00
C244   C     0.13908   0.08981   0.32021   0.00000  Uiso   1.00
C245   C     0.10981   0.03722   0.32075   0.00000  Uiso   1.00
C246   C     0.08810   0.01314   0.36434   0.00000  Uiso   1.00
C247   C     0.06291   0.96509   0.35671   0.00000  Uiso   1.00
C248   C     0.11013   0.12454   0.28098   0.00000  Uiso   1.00
C249   C     0.08868   0.17389   0.29114   0.00000  Uiso   1.00
C250   C     0.06376   0.19935   0.25002   0.00000  Uiso   1.00
C251   C     0.19310   0.07853   0.29648   0.00000  Uiso   1.00
C252   C     0.24143   0.08922   0.31967   0.00000  Uiso   1.00
C253   C     0.28637   0.07596   0.29160   0.00000  Uiso   1.00
H254   H     0.13037   0.02929   0.19061   0.00000  Uiso   1.00
H255   H     0.07875   0.94822   0.22528   0.00000  Uiso   1.00
H256   H     0.07935   0.10894   0.15209   0.00000  Uiso   1.00
H257   H     0.23206   0.02428   0.18062   0.00000  Uiso   1.00
H258   H     0.02298   0.86853   0.28554   0.00000  Uiso   1.00
H259   H     0.02424   0.20743   0.13120   0.00000  Uiso   1.00
H260   H     0.34628   0.02891   0.19135   0.00000  Uiso   1.00
H261   H     0.14167   0.10780   0.35872   0.00000  Uiso   1.00
H262   H     0.09068   0.03103   0.40262   0.00000  Uiso   1.00
H263   H     0.09127   0.19176   0.32942   0.00000  Uiso   1.00
H264   H     0.24399   0.10710   0.35795   0.00000  Uiso   1.00
H265   H     0.03265   0.93575   0.42947   0.00000  Uiso   1.00
H266   H     0.03392   0.27465   0.27513   0.00000  Uiso   1.00
H267   H     0.35596   0.09613   0.33528   0.00000  Uiso   1.00
O268   O     0.99405   0.85023   0.38334   0.00000  Uiso   1.00
O269   O     0.99572   0.29486   0.18085   0.00000  Uiso   1.00
O270   O     0.41823   0.06064   0.25977   0.00000  Uiso   1.00
N271   N     0.03226   0.89488   0.31339   0.00000  Uiso   1.00
N272   N     0.03344   0.21173   0.16909   0.00000  Uiso   1.00
N273   N     0.33452   0.04484   0.22532   0.00000  Uiso   1.00
N274   N     0.03747   0.93105   0.39084   0.00000  Uiso   1.00
N275   N     0.03865   0.24790   0.24654   0.00000  Uiso   1.00
N276   N     0.33973   0.08101   0.30277   0.00000  Uiso   1.00
C277   C     0.86704   0.95273   0.22913   0.00000  Uiso   1.00
C278   C     0.89351   0.98589   0.27128   0.00000  Uiso   1.00
C279   C     0.91868   0.03392   0.26358   0.00000  Uiso   1.00
C280   C     0.94043   0.05806   0.30715   0.00000  Uiso   1.00
C281   C     0.98206   0.11305   0.36507   0.00000  Uiso   1.00
C282   C     0.89320   0.89857   0.23151   0.00000  Uiso   1.00
C283   C     0.91809   0.87317   0.19037   0.00000  Uiso   1.00
C284   C     0.93957   0.82380   0.20046   0.00000  Uiso   1.00
C285   C     0.98068   0.74320   0.19663   0.00000  Uiso   1.00
C286   C     0.81022   0.94457   0.24701   0.00000  Uiso   1.00
C287   C     0.76535   0.95784   0.21890   0.00000  Uiso   1.00
C288   C     0.71696   0.94719   0.24204   0.00000  Uiso   1.00
C289   C     0.62924   0.93802   0.26227   0.00000  Uiso   1.00
C290   C     0.86092   0.91019   0.32021   0.00000  Uiso   1.00
C291   C     0.89019   0.96278   0.32075   0.00000  Uiso   1.00
C292   C     0.91190   0.98686   0.36434   0.00000  Uiso   1.00
C293   C     0.93709   0.03491   0.35671   0.00000  Uiso   1.00
C294   C     0.88987   0.87546   0.28098   0.00000  Uiso   1.00
C295   C     0.91132   0.82611   0.29114   0.00000  Uiso   1.00
C296   C     0.93624   0.80065   0.25002   0.00000  Uiso   1.00
C297   C     0.80690   0.92147   0.29648   0.00000  Uiso   1.00
C298   C     0.75857   0.91078   0.31967   0.00000  Uiso   1.00
C299   C     0.71363   0.92404   0.29160   0.00000  Uiso   1.00
H300   H     0.86963   0.97071   0.19061   0.00000  Uiso   1.00
H301   H     0.92125   0.05178   0.22528   0.00000  Uiso   1.00
H302   H     0.92065   0.89106   0.15209   0.00000  Uiso   1.00
H303   H     0.76794   0.97572   0.18062   0.00000  Uiso   1.00
H304   H     0.97702   0.13147   0.28554   0.00000  Uiso   1.00
H305   H     0.97576   0.79257   0.13120   0.00000  Uiso   1.00
H306   H     0.65372   0.97109   0.19135   0.00000  Uiso   1.00
H307   H     0.85833   0.89220   0.35872   0.00000  Uiso   1.00
H308   H     0.90932   0.96897   0.40262   0.00000  Uiso   1.00
H309   H     0.90873   0.80824   0.32942   0.00000  Uiso   1.00
H310   H     0.75601   0.89290   0.35795   0.00000  Uiso   1.00
H311   H     0.96735   0.06425   0.42947   0.00000  Uiso   1.00
H312   H     0.96608   0.72535   0.27513   0.00000  Uiso   1.00
H313   H     0.64404   0.90387   0.33528   0.00000  Uiso   1.00
O314   O     0.00595   0.14977   0.38334   0.00000  Uiso   1.00
O315   O     0.00428   0.70514   0.18085   0.00000  Uiso   1.00
O316   O     0.58177   0.93936   0.25977   0.00000  Uiso   1.00
N317   N     0.96774   0.10512   0.31339   0.00000  Uiso   1.00
N318   N     0.96656   0.78827   0.16909   0.00000  Uiso   1.00
N319   N     0.66548   0.95516   0.22532   0.00000  Uiso   1.00
N320   N     0.96253   0.06895   0.39084   0.00000  Uiso   1.00
N321   N     0.96135   0.75210   0.24654   0.00000  Uiso   1.00
N322   N     0.66027   0.91899   0.30277   0.00000  Uiso   1.00
C323   C     0.36704   0.45273   0.72913   0.00000  Uiso   1.00
C324   C     0.39351   0.48589   0.77128   0.00000  Uiso   1.00
C325   C     0.41868   0.53392   0.76358   0.00000  Uiso   1.00
C326   C     0.44043   0.55806   0.80715   0.00000  Uiso   1.00
C327   C     0.48206   0.61305   0.86507   0.00000  Uiso   1.00
C328   C     0.39320   0.39857   0.73151   0.00000  Uiso   1.00
C329   C     0.41809   0.37317   0.69037   0.00000  Uiso   1.00
C330   C     0.43957   0.32380   0.70046   0.00000  Uiso   1.00
C331   C     0.48068   0.24320   0.69663   0.00000  Uiso   1.00
C332   C     0.31022   0.44457   0.74701   0.00000  Uiso   1.00
C333   C     0.26535   0.45784   0.71890   0.00000  Uiso   1.00
C334   C     0.21696   0.44719   0.74204   0.00000  Uiso   1.00
C335   C     0.12924   0.43802   0.76227   0.00000  Uiso   1.00
C336   C     0.36092   0.41019   0.82021   0.00000  Uiso   1.00
C337   C     0.39019   0.46278   0.82075   0.00000  Uiso   1.00
C338   C     0.41190   0.48686   0.86434   0.00000  Uiso   1.00
C339   C     0.43709   0.53491   0.85671   0.00000  Uiso   1.00
C340   C     0.38987   0.37546   0.78098   0.00000  Uiso   1.00
C341   C     0.41132   0.32611   0.79114   0.00000  Uiso   1.00
C342   C     0.43624   0.30065   0.75002   0.00000  Uiso   1.00
C343   C     0.30690   0.42147   0.79648   0.00000  Uiso   1.00
C344   C     0.25857   0.41078   0.81967   0.00000  Uiso   1.00
C345   C     0.21363   0.42404   0.79160   0.00000  Uiso   1.00
H346   H     0.36963   0.47071   0.69061   0.00000  Uiso   1.00
H347   H     0.42125   0.55178   0.72528   0.00000  Uiso   1.00
H348   H     0.42065   0.39106   0.65209   0.00000  Uiso   1.00
H349   H     0.26794   0.47572   0.68062   0.00000  Uiso   1.00
H350   H     0.47702   0.63147   0.78554   0.00000  Uiso   1.00
H351   H     0.47576   0.29257   0.63120   0.00000  Uiso   1.00
H352   H     0.15372   0.47109   0.69135   0.00000  Uiso   1.00
H353   H     0.35833   0.39220   0.85872   0.00000  Uiso   1.00
H354   H     0.40932   0.46897   0.90262   0.00000  Uiso   1.00
H355   H     0.40873   0.30824   0.82942   0.00000  Uiso   1.00
H356   H     0.25601   0.39290   0.85795   0.00000  Uiso   1.00
H357   H     0.46735   0.56425   0.92947   0.00000  Uiso   1.00
H358   H     0.46608   0.22535   0.77513   0.00000  Uiso   1.00
H359   H     0.14404   0.40387   0.83528   0.00000  Uiso   1.00
O360   O     0.50595   0.64977   0.88334   0.00000  Uiso   1.00
O361   O     0.50428   0.20514   0.68085   0.00000  Uiso   1.00
O362   O     0.08177   0.43936   0.75977   0.00000  Uiso   1.00
N363   N     0.46774   0.60512   0.81339   0.00000  Uiso   1.00
N364   N     0.46656   0.28827   0.66909   0.00000  Uiso   1.00
N365   N     0.16548   0.45516   0.72532   0.00000  Uiso   1.00
N366   N     0.46253   0.56895   0.89084   0.00000  Uiso   1.00
N367   N     0.46135   0.25210   0.74654   0.00000  Uiso   1.00
N368   N     0.16027   0.41899   0.80277   0.00000  Uiso   1.00
C369   C     0.95273   0.13296   0.77087   0.00000  Uiso   1.00
C370   C     0.98589   0.10649   0.72872   0.00000  Uiso   1.00
C371   C     0.03392   0.08132   0.73642   0.00000  Uiso   1.00
C372   C     0.05806   0.05957   0.69285   0.00000  Uiso   1.00
C373   C     0.11305   0.01794   0.63493   0.00000  Uiso   1.00
C374   C     0.89857   0.10680   0.76849   0.00000  Uiso   1.00
C375   C     0.87317   0.08191   0.80963   0.00000  Uiso   1.00
C376   C     0.82380   0.06043   0.79954   0.00000  Uiso   1.00
C377   C     0.74320   0.01932   0.80337   0.00000  Uiso   1.00
C378   C     0.94457   0.18978   0.75299   0.00000  Uiso   1.00
C379   C     0.95784   0.23465   0.78110   0.00000  Uiso   1.00
C380   C     0.94719   0.28304   0.75796   0.00000  Uiso   1.00
C381   C     0.93802   0.37076   0.73773   0.00000  Uiso   1.00
C382   C     0.91019   0.13908   0.67979   0.00000  Uiso   1.00
C383   C     0.96278   0.10981   0.67925   0.00000  Uiso   1.00
C384   C     0.98686   0.08810   0.63566   0.00000  Uiso   1.00
C385   C     0.03491   0.06291   0.64329   0.00000  Uiso   1.00
C386   C     0.87546   0.11013   0.71902   0.00000  Uiso   1.00
C387   C     0.82611   0.08868   0.70886   0.00000  Uiso   1.00
C388   C     0.80065   0.06376   0.74998   0.00000  Uiso   1.00
C389   C     0.92147   0.19310   0.70352   0.00000  Uiso   1.00
C390   C     0.91078   0.24143   0.68033   0.00000  Uiso   1.00
C391   C     0.92404   0.28637   0.70840   0.00000  Uiso   1.00
H392   H     0.97071   0.13037   0.80939   0.00000  Uiso   1.00
H393   H     0.05178   0.07875   0.77472   0.00000  Uiso   1.00
H394   H     0.89106   0.07935   0.84791   0.00000  Uiso   1.00
H395   H     0.97572   0.23206   0.81938   0.00000  Uiso   1.00
H396   H     0.13147   0.02298   0.71446   0.00000  Uiso   1.00
H397   H     0.79257   0.02424   0.86880   0.00000  Uiso   1.00
H398   H     0.97109   0.34628   0.80865   0.00000  Uiso   1.00
H399   H     0.89220   0.14167   0.64128   0.00000  Uiso   1.00
H400   H     0.96897   0.09068   0.59738   0.00000  Uiso   1.00
H401   H     0.80824   0.09127   0.67058   0.00000  Uiso   1.00
H402   H     0.89290   0.24399   0.64205   0.00000  Uiso   1.00
H403   H     0.06425   0.03265   0.57053   0.00000  Uiso   1.00
H404   H     0.72535   0.03392   0.72487   0.00000  Uiso   1.00
H405   H     0.90387   0.35596   0.66472   0.00000  Uiso   1.00
O406   O     0.14977   0.99405   0.61666   0.00000  Uiso   1.00
O407   O     0.70514   0.99572   0.81915   0.00000  Uiso   1.00
O408   O     0.93936   0.41823   0.74023   0.00000  Uiso   1.00
N409   N     0.10512   0.03226   0.68661   0.00000  Uiso   1.00
N410   N     0.78827   0.03344   0.83091   0.00000  Uiso   1.00
N411   N     0.95516   0.33452   0.77468   0.00000  Uiso   1.00
N412   N     0.06895   0.03747   0.60916   0.00000  Uiso   1.00
N413   N     0.75210   0.03865   0.75346   0.00000  Uiso   1.00
N414   N     0.91899   0.33973   0.69723   0.00000  Uiso   1.00
C415   C     0.45273   0.63296   0.27087   0.00000  Uiso   1.00
C416   C     0.48589   0.60649   0.22872   0.00000  Uiso   1.00
C417   C     0.53392   0.58132   0.23642   0.00000  Uiso   1.00
C418   C     0.55806   0.55957   0.19285   0.00000  Uiso   1.00
C419   C     0.61305   0.51794   0.13493   0.00000  Uiso   1.00
C420   C     0.39857   0.60680   0.26849   0.00000  Uiso   1.00
C421   C     0.37317   0.58191   0.30963   0.00000  Uiso   1.00
C422   C     0.32380   0.56043   0.29954   0.00000  Uiso   1.00
C423   C     0.24320   0.51932   0.30337   0.00000  Uiso   1.00
C424   C     0.44457   0.68978   0.25299   0.00000  Uiso   1.00
C425   C     0.45784   0.73465   0.28110   0.00000  Uiso   1.00
C426   C     0.44719   0.78304   0.25796   0.00000  Uiso   1.00
C427   C     0.43802   0.87076   0.23773   0.00000  Uiso   1.00
C428   C     0.41019   0.63908   0.17979   0.00000  Uiso   1.00
C429   C     0.46278   0.60981   0.17925   0.00000  Uiso   1.00
C430   C     0.48686   0.58810   0.13566   0.00000  Uiso   1.00
C431   C     0.53491   0.56291   0.14329   0.00000  Uiso   1.00
C432   C     0.37546   0.61013   0.21902   0.00000  Uiso   1.00
C433   C     0.32611   0.58868   0.20886   0.00000  Uiso   1.00
C434   C     0.30065   0.56376   0.24998   0.00000  Uiso   1.00
C435   C     0.42147   0.69310   0.20352   0.00000  Uiso   1.00
C436   C     0.41078   0.74143   0.18033   0.00000  Uiso   1.00
C437   C     0.42404   0.78637   0.20840   0.00000  Uiso   1.00
H438   H     0.47071   0.63037   0.30939   0.00000  Uiso   1.00
H439   H     0.55178   0.57875   0.27472   0.00000  Uiso   1.00
H440   H     0.39106   0.57935   0.34791   0.00000  Uiso   1.00
H441   H     0.47572   0.73206   0.31938   0.00000  Uiso   1.00
H442   H     0.63147   0.52298   0.21446   0.00000  Uiso   1.00
H443   H     0.29257   0.52424   0.36880   0.00000  Uiso   1.00
H444   H     0.47109   0.84628   0.30865   0.00000  Uiso   1.00
H445   H     0.39220   0.64167   0.14128   0.00000  Uiso   1.00
H446   H     0.46897   0.59068   0.09738   0.00000  Uiso   1.00
H447   H     0.30824   0.59127   0.17058   0.00000  Uiso   1.00
H448   H     0.39290   0.74399   0.14205   0.00000  Uiso   1.00
H449   H     0.56425   0.53265   0.07053   0.00000  Uiso   1.00
H450   H     0.22535   0.53392   0.22487   0.00000  Uiso   1.00
H451   H     0.40387   0.85596   0.16472   0.00000  Uiso   1.00
O452   O     0.64977   0.49405   0.11666   0.00000  Uiso   1.00
O453   O     0.20514   0.49572   0.31915   0.00000  Uiso   1.00
O454   O     0.43936   0.91823   0.24023   0.00000  Uiso   1.00
N455   N     0.60512   0.53226   0.18661   0.00000  Uiso   1.00
N456   N     0.28827   0.53344   0.33091   0.00000  Uiso   1.00
N457   N     0.45516   0.83452   0.27468   0.00000  Uiso   1.00
N458   N     0.56895   0.53747   0.10916   0.00000  Uiso   1.00
N459   N     0.25210   0.53865   0.25346   0.00000  Uiso   1.00
N460   N     0.41899   0.83973   0.19723   0.00000  Uiso   1.00
C461   C     0.54727   0.36704   0.27087   0.00000  Uiso   1.00
C462   C     0.51411   0.39351   0.22872   0.00000  Uiso   1.00
C463   C     0.46608   0.41868   0.23642   0.00000  Uiso   1.00
C464   C     0.44194   0.44043   0.19285   0.00000  Uiso   1.00
C465   C     0.38695   0.48206   0.13493   0.00000  Uiso   1.00
C466   C     0.60143   0.39320   0.26849   0.00000  Uiso   1.00
C467   C     0.62683   0.41809   0.30963   0.00000  Uiso   1.00
C468   C     0.67620   0.43957   0.29954   0.00000  Uiso   1.00
C469   C     0.75680   0.48068   0.30337   0.00000  Uiso   1.00
C470   C     0.55543   0.31022   0.25299   0.00000  Uiso   1.00
C471   C     0.54216   0.26535   0.28110   0.00000  Uiso   1.00
C472   C     0.55281   0.21696   0.25796   0.00000  Uiso   1.00
C473   C     0.56198   0.12924   0.23773   0.00000  Uiso   1.00
C474   C     0.58981   0.36092   0.17979   0.00000  Uiso   1.00
C475   C     0.53722   0.39019   0.17925   0.00000  Uiso   1.00
C476   C     0.51314   0.41190   0.13566   0.00000  Uiso   1.00
C477   C     0.46509   0.43709   0.14329   0.00000  Uiso   1.00
C478   C     0.62454   0.38987   0.21902   0.00000  Uiso   1.00
C479   C     0.67389   0.41132   0.20886   0.00000  Uiso   1.00
C480   C     0.69935   0.43624   0.24998   0.00000  Uiso   1.00
C481   C     0.57853   0.30690   0.20352   0.00000  Uiso   1.00
C482   C     0.58922   0.25857   0.18033   0.00000  Uiso   1.00
C483   C     0.57596   0.21363   0.20840   0.00000  Uiso   1.00
H484   H     0.52929   0.36963   0.30939   0.00000  Uiso   1.00
H485   H     0.44822   0.42125   0.27472   0.00000  Uiso   1.00
H486   H     0.60894   0.42065   0.34791   0.00000  Uiso   1.00
H487   H     0.52428   0.26794   0.31938   0.00000  Uiso   1.00
H488   H     0.36853   0.47702   0.21446   0.00000  Uiso   1.00
H489   H     0.70743   0.47576   0.36880   0.00000  Uiso   1.00
H490   H     0.52891   0.15372   0.30865   0.00000  Uiso   1.00
H491   H     0.60780   0.35833   0.14128   0.00000  Uiso   1.00
H492   H     0.53103   0.40932   0.09738   0.00000  Uiso   1.00
H493   H     0.69176   0.40873   0.17058   0.00000  Uiso   1.00
H494   H     0.60710   0.25601   0.14205   0.00000  Uiso   1.00
H495   H     0.43575   0.46735   0.07053   0.00000  Uiso   1.00
H496   H     0.77465   0.46608   0.22487   0.00000  Uiso   1.00
H497   H     0.59613   0.14404   0.16472   0.00000  Uiso   1.00
O498   O     0.35023   0.50595   0.11666   0.00000  Uiso   1.00
O499   O     0.79486   0.50428   0.31915   0.00000  Uiso   1.00
O500   O     0.56064   0.08177   0.24023   0.00000  Uiso   1.00
N501   N     0.39488   0.46774   0.18661   0.00000  Uiso   1.00
N502   N     0.71173   0.46656   0.33091   0.00000  Uiso   1.00
N503   N     0.54484   0.16548   0.27468   0.00000  Uiso   1.00
N504   N     0.43105   0.46253   0.10916   0.00000  Uiso   1.00
N505   N     0.74790   0.46135   0.25346   0.00000  Uiso   1.00
N506   N     0.58101   0.16027   0.19723   0.00000  Uiso   1.00
C507   C     0.04727   0.86704   0.77087   0.00000  Uiso   1.00
C508   C     0.01411   0.89351   0.72872   0.00000  Uiso   1.00
C509   C     0.96608   0.91868   0.73642   0.00000  Uiso   1.00
C510   C     0.94194   0.94043   0.69285   0.00000  Uiso   1.00
C511   C     0.88695   0.98206   0.63493   0.00000  Uiso   1.00
C512   C     0.10143   0.89320   0.76849   0.00000  Uiso   1.00
C513   C     0.12683   0.91809   0.80963   0.00000  Uiso   1.00
C514   C     0.17620   0.93957   0.79954   0.00000  Uiso   1.00
C515   C     0.25680   0.98068   0.80337   0.00000  Uiso   1.00
C516   C     0.05543   0.81022   0.75299   0.00000  Uiso   1.00
C517   C     0.04216   0.76535   0.78110   0.00000  Uiso   1.00
C518   C     0.05281   0.71696   0.75796   0.00000  Uiso   1.00
C519   C     0.06198   0.62924   0.73773   0.00000  Uiso   1.00
C520   C     0.08981   0.86092   0.67979   0.00000  Uiso   1.00
C521   C     0.03722   0.89019   0.67925   0.00000  Uiso   1.00
C522   C     0.01314   0.91190   0.63566   0.00000  Uiso   1.00
C523   C     0.96509   0.93709   0.64329   0.00000  Uiso   1.00
C524   C     0.12454   0.88987   0.71902   0.00000  Uiso   1.00
C525   C     0.17389   0.91132   0.70886   0.00000  Uiso   1.00
C526   C     0.19935   0.93624   0.74998   0.00000  Uiso   1.00
C527   C     0.07853   0.80690   0.70352   0.00000  Uiso   1.00
C528   C     0.08922   0.75857   0.68033   0.00000  Uiso   1.00
C529   C     0.07596   0.71363   0.70840   0.00000  Uiso   1.00
H530   H     0.02929   0.86963   0.80939   0.00000  Uiso   1.00
H531   H     0.94822   0.92125   0.77472   0.00000  Uiso   1.00
H532   H     0.10894   0.92065   0.84791   0.00000  Uiso   1.00
H533   H     0.02428   0.76794   0.81938   0.00000  Uiso   1.00
H534   H     0.86853   0.97702   0.71446   0.00000  Uiso   1.00
H535   H     0.20743   0.97576   0.86880   0.00000  Uiso   1.00
H536   H     0.02891   0.65372   0.80865   0.00000  Uiso   1.00
H537   H     0.10780   0.85833   0.64128   0.00000  Uiso   1.00
H538   H     0.03103   0.90932   0.59738   0.00000  Uiso   1.00
H539   H     0.19176   0.90873   0.67058   0.00000  Uiso   1.00
H540   H     0.10710   0.75601   0.64205   0.00000  Uiso   1.00
H541   H     0.93575   0.96735   0.57053   0.00000  Uiso   1.00
H542   H     0.27465   0.96608   0.72487   0.00000  Uiso   1.00
H543   H     0.09613   0.64404   0.66472   0.00000  Uiso   1.00
O544   O     0.85023   0.00595   0.61666   0.00000  Uiso   1.00
O545   O     0.29486   0.00428   0.81915   0.00000  Uiso   1.00
O546   O     0.06064   0.58177   0.74023   0.00000  Uiso   1.00
N547   N     0.89488   0.96774   0.68661   0.00000  Uiso   1.00
N548   N     0.21173   0.96656   0.83091   0.00000  Uiso   1.00
N549   N     0.04484   0.66548   0.77468   0.00000  Uiso   1.00
N550   N     0.93105   0.96253   0.60916   0.00000  Uiso   1.00
N551   N     0.24790   0.96135   0.75346   0.00000  Uiso   1.00
N552   N     0.08101   0.66027   0.69723   0.00000  Uiso   1.00
C553   C     0.36704   0.95273   0.52087   0.00000  Uiso   1.00
C554   C     0.39351   0.98589   0.47872   0.00000  Uiso   1.00
C555   C     0.41868   0.03392   0.48642   0.00000  Uiso   1.00
C556   C     0.44043   0.05806   0.44285   0.00000  Uiso   1.00
C557   C     0.48206   0.11305   0.38493   0.00000  Uiso   1.00
C558   C     0.39320   0.89857   0.51849   0.00000  Uiso   1.00
C559   C     0.41809   0.87317   0.55963   0.00000  Uiso   1.00
C560   C     0.43957   0.82380   0.54954   0.00000  Uiso   1.00
C561   C     0.48068   0.74320   0.55337   0.00000  Uiso   1.00
C562   C     0.31022   0.94457   0.50299   0.00000  Uiso   1.00
C563   C     0.26535   0.95784   0.53110   0.00000  Uiso   1.00
C564   C     0.21696   0.94719   0.50796   0.00000  Uiso   1.00
C565   C     0.12924   0.93802   0.48773   0.00000  Uiso   1.00
C566   C     0.36092   0.91019   0.42979   0.00000  Uiso   1.00
C567   C     0.39019   0.96278   0.42925   0.00000  Uiso   1.00
C568   C     0.41190   0.98686   0.38566   0.00000  Uiso   1.00
C569   C     0.43709   0.03491   0.39329   0.00000  Uiso   1.00
C570   C     0.38987   0.87546   0.46902   0.00000  Uiso   1.00
C571   C     0.41132   0.82611   0.45886   0.00000  Uiso   1.00
C572   C     0.43624   0.80065   0.49998   0.00000  Uiso   1.00
C573   C     0.30690   0.92147   0.45352   0.00000  Uiso   1.00
C574   C     0.25857   0.91078   0.43033   0.00000  Uiso   1.00
C575   C     0.21363   0.92404   0.45840   0.00000  Uiso   1.00
H576   H     0.36963   0.97071   0.55939   0.00000  Uiso   1.00
H577   H     0.42125   0.05178   0.52472   0.00000  Uiso   1.00
H578   H     0.42065   0.89106   0.59791   0.00000  Uiso   1.00
H579   H     0.26794   0.97572   0.56938   0.00000  Uiso   1.00
H580   H     0.47702   0.13147   0.46446   0.00000  Uiso   1.00
H581   H     0.47576   0.79257   0.61880   0.00000  Uiso   1.00
H582   H     0.15372   0.97109   0.55865   0.00000  Uiso   1.00
H583   H     0.35833   0.89220   0.39128   0.00000  Uiso   1.00
H584   H     0.40932   0.96897   0.34738   0.00000  Uiso   1.00
H585   H     0.40873   0.80824   0.42058   0.00000  Uiso   1.00
H586   H     0.25601   0.89290   0.39205   0.00000  Uiso   1.00
H587   H     0.46735   0.06425   0.32053   0.00000  Uiso   1.00
H588   H     0.46608   0.72535   0.47487   0.00000  Uiso   1.00
H589   H     0.14404   0.90387   0.41472   0.00000  Uiso   1.00
O590   O     0.50595   0.14977   0.36666   0.00000  Uiso   1.00
O591   O     0.50428   0.70514   0.56915   0.00000  Uiso   1.00
O592   O     0.08177   0.93936   0.49023   0.00000  Uiso   1.00
N593   N     0.46774   0.10512   0.43661   0.00000  Uiso   1.00
N594   N     0.46656   0.78827   0.58091   0.00000  Uiso   1.00
N595   N     0.16548   0.95516   0.52468   0.00000  Uiso   1.00
N596   N     0.46253   0.06895   0.35916   0.00000  Uiso   1.00
N597   N     0.46135   0.75210   0.50346   0.00000  Uiso   1.00
N598   N     0.16027   0.91899   0.44723   0.00000  Uiso   1.00
C599   C     0.86704   0.45273   0.02087   0.00000  Uiso   1.00
C600   C     0.89351   0.48589   0.97872   0.00000  Uiso   1.00
C601   C     0.91868   0.53392   0.98642   0.00000  Uiso   1.00
C602   C     0.94043   0.55806   0.94285   0.00000  Uiso   1.00
C603   C     0.98206   0.61305   0.88493   0.00000  Uiso   1.00
C604   C     0.89320   0.39857   0.01849   0.00000  Uiso   1.00
C605   C     0.91809   0.37317   0.05963   0.00000  Uiso   1.00
C606   C     0.93957   0.32380   0.04954   0.00000  Uiso   1.00
C607   C     0.98068   0.24320   0.05337   0.00000  Uiso   1.00
C608   C     0.81022   0.44457   0.00299   0.00000  Uiso   1.00
C609   C     0.76535   0.45784   0.03110   0.00000  Uiso   1.00
C610   C     0.71696   0.44719   0.00796   0.00000  Uiso   1.00
C611   C     0.62924   0.43802   0.98773   0.00000  Uiso   1.00
C612   C     0.86092   0.41019   0.92979   0.00000  Uiso   1.00
C613   C     0.89019   0.46278   0.92925   0.00000  Uiso   1.00
C614   C     0.91190   0.48686   0.88566   0.00000  Uiso   1.00
C615   C     0.93709   0.53491   0.89329   0.00000  Uiso   1.00
C616   C     0.88987   0.37546   0.96902   0.00000  Uiso   1.00
C617   C     0.91132   0.32611   0.95886   0.00000  Uiso   1.00
C618   C     0.93624   0.30065   0.99998   0.00000  Uiso   1.00
C619   C     0.80690   0.42147   0.95352   0.00000  Uiso   1.00
C620   C     0.75857   0.41078   0.93033   0.00000  Uiso   1.00
C621   C     0.71363   0.42404   0.95840   0.00000  Uiso   1.00
H622   H     0.86963   0.47071   0.05939   0.00000  Uiso   1.00
H623   H     0.92125   0.55178   0.02472   0.00000  Uiso   1.00
H624   H     0.92065   0.39106   0.09791   0.00000  Uiso   1.00
H625   H     0.76794   0.47572   0.06938   0.00000  Uiso   1.00
H626   H     0.97702   0.63147   0.96446   0.00000  Uiso   1.00
H627   H     0.97576   0.29257   0.11880   0.00000  Uiso   1.00
H628   H     0.65372   0.47109   0.05865   0.00000  Uiso   1.00
H629   H     0.85833   0.39220   0.89128   0.00000  Uiso   1.00
H630   H     0.90932   0.46897   0.84738   0.00000  Uiso   1.00
H631   H     0.90873   0.30824   0.92058   0.00000  Uiso   1.00
H632   H     0.75601   0.39290   0.89205   0.00000  Uiso   1.00
H633   H     0.96735   0.56425   0.82053   0.00000  Uiso   1.00
H634   H     0.96608   0.22535   0.97487   0.00000  Uiso   1.00
H635   H     0.64404   0.40387   0.91472   0.00000  Uiso   1.00
O636   O     0.00595   0.64977   0.86666   0.00000  Uiso   1.00
O637   O     0.00428   0.20514   0.06915   0.00000  Uiso   1.00
O638   O     0.58177   0.43936   0.99023   0.00000  Uiso   1.00
N639   N     0.96774   0.60512   0.93661   0.00000  Uiso   1.00
N640   N     0.96656   0.28827   0.08091   0.00000  Uiso   1.00
N641   N     0.66548   0.45516   0.02468   0.00000  Uiso   1.00
N642   N     0.96253   0.56895   0.85916   0.00000  Uiso   1.00
N643   N     0.96135   0.25210   0.00346   0.00000  Uiso   1.00
N644   N     0.66027   0.41899   0.94723   0.00000  Uiso   1.00
C645   C     0.13296   0.54727   0.02087   0.00000  Uiso   1.00
C646   C     0.10649   0.51411   0.97872   0.00000  Uiso   1.00
C647   C     0.08132   0.46608   0.98642   0.00000  Uiso   1.00
C648   C     0.05957   0.44194   0.94285   0.00000  Uiso   1.00
C649   C     0.01794   0.38695   0.88493   0.00000  Uiso   1.00
C650   C     0.10680   0.60143   0.01849   0.00000  Uiso   1.00
C651   C     0.08191   0.62683   0.05963   0.00000  Uiso   1.00
C652   C     0.06043   0.67620   0.04954   0.00000  Uiso   1.00
C653   C     0.01932   0.75680   0.05337   0.00000  Uiso   1.00
C654   C     0.18978   0.55543   0.00299   0.00000  Uiso   1.00
C655   C     0.23465   0.54216   0.03110   0.00000  Uiso   1.00
C656   C     0.28304   0.55281   0.00796   0.00000  Uiso   1.00
C657   C     0.37076   0.56198   0.98773   0.00000  Uiso   1.00
C658   C     0.13908   0.58981   0.92979   0.00000  Uiso   1.00
C659   C     0.10981   0.53722   0.92925   0.00000  Uiso   1.00
C660   C     0.08810   0.51314   0.88566   0.00000  Uiso   1.00
C661   C     0.06291   0.46509   0.89329   0.00000  Uiso   1.00
C662   C     0.11013   0.62454   0.96902   0.00000  Uiso   1.00
C663   C     0.08868   0.67389   0.95886   0.00000  Uiso   1.00
C664   C     0.06376   0.69935   0.99998   0.00000  Uiso   1.00
C665   C     0.19310   0.57853   0.95352   0.00000  Uiso   1.00
C666   C     0.24143   0.58922   0.93033   0.00000  Uiso   1.00
C667   C     0.28637   0.57596   0.95840   0.00000  Uiso   1.00
H668   H     0.13037   0.52929   0.05939   0.00000  Uiso   1.00
H669   H     0.07875   0.44822   0.02472   0.00000  Uiso   1.00
H670   H     0.07935   0.60894   0.09791   0.00000  Uiso   1.00
H671   H     0.23206   0.52428   0.06938   0.00000  Uiso   1.00
H672   H     0.02298   0.36853   0.96446   0.00000  Uiso   1.00
H673   H     0.02424   0.70743   0.11880   0.00000  Uiso   1.00
H674   H     0.34628   0.52891   0.05865   0.00000  Uiso   1.00
H675   H     0.14167   0.60780   0.89128   0.00000  Uiso   1.00
H676   H     0.09068   0.53103   0.84738   0.00000  Uiso   1.00
H677   H     0.09127   0.69176   0.92058   0.00000  Uiso   1.00
H678   H     0.24399   0.60710   0.89205   0.00000  Uiso   1.00
H679   H     0.03265   0.43575   0.82053   0.00000  Uiso   1.00
H680   H     0.03392   0.77465   0.97487   0.00000  Uiso   1.00
H681   H     0.35596   0.59613   0.91472   0.00000  Uiso   1.00
O682   O     0.99405   0.35023   0.86666   0.00000  Uiso   1.00
O683   O     0.99572   0.79486   0.06915   0.00000  Uiso   1.00
O684   O     0.41823   0.56064   0.99023   0.00000  Uiso   1.00
N685   N     0.03226   0.39488   0.93661   0.00000  Uiso   1.00
N686   N     0.03344   0.71173   0.08091   0.00000  Uiso   1.00
N687   N     0.33452   0.54484   0.02468   0.00000  Uiso   1.00
N688   N     0.03747   0.43105   0.85916   0.00000  Uiso   1.00
N689   N     0.03865   0.74790   0.00346   0.00000  Uiso   1.00
N690   N     0.33973   0.58101   0.94723   0.00000  Uiso   1.00
C691   C     0.63296   0.04727   0.52087   0.00000  Uiso   1.00
C692   C     0.60649   0.01411   0.47872   0.00000  Uiso   1.00
C693   C     0.58132   0.96608   0.48642   0.00000  Uiso   1.00
C694   C     0.55957   0.94194   0.44285   0.00000  Uiso   1.00
C695   C     0.51794   0.88695   0.38493   0.00000  Uiso   1.00
C696   C     0.60680   0.10143   0.51849   0.00000  Uiso   1.00
C697   C     0.58191   0.12683   0.55963   0.00000  Uiso   1.00
C698   C     0.56043   0.17620   0.54954   0.00000  Uiso   1.00
C699   C     0.51932   0.25680   0.55337   0.00000  Uiso   1.00
C700   C     0.68978   0.05543   0.50299   0.00000  Uiso   1.00
C701   C     0.73465   0.04216   0.53110   0.00000  Uiso   1.00
C702   C     0.78304   0.05281   0.50796   0.00000  Uiso   1.00
C703   C     0.87076   0.06198   0.48773   0.00000  Uiso   1.00
C704   C     0.63908   0.08981   0.42979   0.00000  Uiso   1.00
C705   C     0.60981   0.03722   0.42925   0.00000  Uiso   1.00
C706   C     0.58810   0.01314   0.38566   0.00000  Uiso   1.00
C707   C     0.56291   0.96509   0.39329   0.00000  Uiso   1.00
C708   C     0.61013   0.12454   0.46902   0.00000  Uiso   1.00
C709   C     0.58868   0.17389   0.45886   0.00000  Uiso   1.00
C710   C     0.56376   0.19935   0.49998   0.00000  Uiso   1.00
C711   C     0.69310   0.07853   0.45352   0.00000  Uiso   1.00
C712   C     0.74143   0.08922   0.43033   0.00000  Uiso   1.00
C713   C     0.78637   0.07596   0.45840   0.00000  Uiso   1.00
H714   H     0.63037   0.02929   0.55939   0.00000  Uiso   1.00
H715   H     0.57875   0.94822   0.52472   0.00000  Uiso   1.00
H716   H     0.57935   0.10894   0.59791   0.00000  Uiso   1.00
H717   H     0.73206   0.02428   0.56938   0.00000  Uiso   1.00
H718   H     0.52298   0.86853   0.46446   0.00000  Uiso   1.00
H719   H     0.52424   0.20743   0.61880   0.00000  Uiso   1.00
H720   H     0.84628   0.02891   0.55865   0.00000  Uiso   1.00
H721   H     0.64167   0.10780   0.39128   0.00000  Uiso   1.00
H722   H     0.59068   0.03103   0.34738   0.00000  Uiso   1.00
H723   H     0.59127   0.19176   0.42058   0.00000  Uiso   1.00
H724   H     0.74399   0.10710   0.39205   0.00000  Uiso   1.00
H725   H     0.53265   0.93575   0.32053   0.00000  Uiso   1.00
H726   H     0.53392   0.27465   0.47487   0.00000  Uiso   1.00
H727   H     0.85596   0.09613   0.41472   0.00000  Uiso   1.00
O728   O     0.49405   0.85023   0.36666   0.00000  Uiso   1.00
O729   O     0.49572   0.29486   0.56915   0.00000  Uiso   1.00
O730   O     0.91823   0.06064   0.49023   0.00000  Uiso   1.00
N731   N     0.53226   0.89488   0.43661   0.00000  Uiso   1.00
N732   N     0.53344   0.21173   0.58091   0.00000  Uiso   1.00
N733   N     0.83452   0.04484   0.52468   0.00000  Uiso   1.00
N734   N     0.53747   0.93105   0.35916   0.00000  Uiso   1.00
N735   N     0.53865   0.24790   0.50346   0.00000  Uiso   1.00
N736   N     0.83973   0.08101   0.44723   0.00000  Uiso   1.00
