data_job_03753
_audit_creation_date              2018-12-19
_audit_creation_method            'Materials Studio'
_symmetry_space_group_name_H-M    'P1'
_symmetry_Int_Tables_number       1
_symmetry_cell_setting            triclinic
loop_
_symmetry_equiv_pos_as_xyz
  x,y,z
_cell_length_a                    13.4885
_cell_length_b                    13.4885
_cell_length_c                    53.1789
_cell_angle_alpha                 90.0000
_cell_angle_beta                  90.0000
_cell_angle_gamma                 90.0000
loop_
_atom_site_label
_atom_site_type_symbol
_atom_site_fract_x
_atom_site_fract_y
_atom_site_fract_z
_atom_site_U_iso_or_equiv
_atom_site_adp_type
_atom_site_occupancy
C1     C     0.63885   0.45949   0.06923   0.00000  Uiso   1.00
C2     C     0.69086   0.55983   0.06853   0.00000  Uiso   1.00
C3     C     0.65134   0.64698   0.05894   0.00000  Uiso   1.00
C4     C     0.71074   0.73093   0.06004   0.00000  Uiso   1.00
C5     C     0.77701   0.88720   0.05737   0.00000  Uiso   1.00
C6     C     0.70703   0.38747   0.05546   0.00000  Uiso   1.00
C7     C     0.68110   0.32969   0.03489   0.00000  Uiso   1.00
C8     C     0.75412   0.26853   0.02499   0.00000  Uiso   1.00
C9     C     0.84546   0.15717   0.00205   0.00000  Uiso   1.00
C10    C     0.63911   0.42713   0.09670   0.00000  Uiso   1.00
C11    C     0.55607   0.40267   0.11081   0.00000  Uiso   1.00
C12    C     0.57191   0.37489   0.13563   0.00000  Uiso   1.00
C13    C     0.55779   0.32510   0.17672   0.00000  Uiso   1.00
C14    C     0.81463   0.45360   0.08822   0.00000  Uiso   1.00
C15    C     0.78634   0.55663   0.07884   0.00000  Uiso   1.00
C16    C     0.84582   0.64047   0.07995   0.00000  Uiso   1.00
C17    C     0.80639   0.72773   0.07037   0.00000  Uiso   1.00
C18    C     0.80251   0.38427   0.06578   0.00000  Uiso   1.00
C19    C     0.87558   0.32318   0.05590   0.00000  Uiso   1.00
C20    C     0.84976   0.26533   0.03532   0.00000  Uiso   1.00
C21    C     0.73459   0.42393   0.10702   0.00000  Uiso   1.00
C22    C     0.75055   0.39617   0.13182   0.00000  Uiso   1.00
C23    C     0.66755   0.37168   0.14596   0.00000  Uiso   1.00
H24    H     0.56452   0.46197   0.06120   0.00000  Uiso   1.00
H25    H     0.57745   0.64942   0.05096   0.00000  Uiso   1.00
H26    H     0.60720   0.33217   0.02692   0.00000  Uiso   1.00
H27    H     0.48220   0.40516   0.10282   0.00000  Uiso   1.00
H28    H     0.63391   0.85582   0.04415   0.00000  Uiso   1.00
H29    H     0.69664   0.18687   0.99346   0.00000  Uiso   1.00
H30    H     0.43304   0.34076   0.15352   0.00000  Uiso   1.00
H31    H     0.88896   0.45111   0.09625   0.00000  Uiso   1.00
H32    H     0.91970   0.63797   0.08793   0.00000  Uiso   1.00
H33    H     0.94945   0.32072   0.06389   0.00000  Uiso   1.00
H34    H     0.82445   0.39370   0.13979   0.00000  Uiso   1.00
H35    H     0.91170   0.84653   0.07416   0.00000  Uiso   1.00
H36    H     0.97442   0.17757   0.02347   0.00000  Uiso   1.00
H37    H     0.71082   0.33146   0.18352   0.00000  Uiso   1.00
O38    O     0.78718   0.97428   0.05305   0.00000  Uiso   1.00
O39    O     0.86947   0.09663   0.98655   0.00000  Uiso   1.00
O40    O     0.52363   0.29854   0.19653   0.00000  Uiso   1.00
N41    N     0.69506   0.82800   0.05236   0.00000  Uiso   1.00
N42    N     0.75371   0.20257   0.00497   0.00000  Uiso   1.00
N43    N     0.50727   0.34643   0.15460   0.00000  Uiso   1.00
N44    N     0.84454   0.82299   0.06851   0.00000  Uiso   1.00
N45    N     0.90318   0.19757   0.02111   0.00000  Uiso   1.00
N46    N     0.65674   0.34142   0.17075   0.00000  Uiso   1.00
C47    C     0.13885   0.95949   0.56923   0.00000  Uiso   1.00
C48    C     0.19086   0.05983   0.56853   0.00000  Uiso   1.00
C49    C     0.15134   0.14698   0.55894   0.00000  Uiso   1.00
C50    C     0.21074   0.23093   0.56004   0.00000  Uiso   1.00
C51    C     0.27701   0.38720   0.55737   0.00000  Uiso   1.00
C52    C     0.20703   0.88747   0.55546   0.00000  Uiso   1.00
C53    C     0.18110   0.82969   0.53489   0.00000  Uiso   1.00
C54    C     0.25412   0.76853   0.52499   0.00000  Uiso   1.00
C55    C     0.34546   0.65717   0.50205   0.00000  Uiso   1.00
C56    C     0.13911   0.92713   0.59670   0.00000  Uiso   1.00
C57    C     0.05607   0.90267   0.61081   0.00000  Uiso   1.00
C58    C     0.07191   0.87489   0.63563   0.00000  Uiso   1.00
C59    C     0.05779   0.82510   0.67672   0.00000  Uiso   1.00
C60    C     0.31463   0.95360   0.58822   0.00000  Uiso   1.00
C61    C     0.28634   0.05663   0.57884   0.00000  Uiso   1.00
C62    C     0.34582   0.14047   0.57995   0.00000  Uiso   1.00
C63    C     0.30639   0.22773   0.57037   0.00000  Uiso   1.00
C64    C     0.30251   0.88427   0.56578   0.00000  Uiso   1.00
C65    C     0.37558   0.82318   0.55590   0.00000  Uiso   1.00
C66    C     0.34976   0.76533   0.53532   0.00000  Uiso   1.00
C67    C     0.23459   0.92393   0.60702   0.00000  Uiso   1.00
C68    C     0.25055   0.89617   0.63182   0.00000  Uiso   1.00
C69    C     0.16755   0.87168   0.64596   0.00000  Uiso   1.00
H70    H     0.06452   0.96197   0.56120   0.00000  Uiso   1.00
H71    H     0.07745   0.14942   0.55096   0.00000  Uiso   1.00
H72    H     0.10720   0.83217   0.52692   0.00000  Uiso   1.00
H73    H     0.98220   0.90516   0.60282   0.00000  Uiso   1.00
H74    H     0.13391   0.35582   0.54415   0.00000  Uiso   1.00
H75    H     0.19664   0.68687   0.49346   0.00000  Uiso   1.00
H76    H     0.93304   0.84076   0.65352   0.00000  Uiso   1.00
H77    H     0.38896   0.95111   0.59625   0.00000  Uiso   1.00
H78    H     0.41970   0.13797   0.58793   0.00000  Uiso   1.00
H79    H     0.44945   0.82072   0.56389   0.00000  Uiso   1.00
H80    H     0.32445   0.89370   0.63979   0.00000  Uiso   1.00
H81    H     0.41170   0.34653   0.57416   0.00000  Uiso   1.00
H82    H     0.47442   0.67757   0.52347   0.00000  Uiso   1.00
H83    H     0.21082   0.83146   0.68352   0.00000  Uiso   1.00
O84    O     0.28718   0.47428   0.55305   0.00000  Uiso   1.00
O85    O     0.36947   0.59663   0.48655   0.00000  Uiso   1.00
O86    O     0.02363   0.79854   0.69653   0.00000  Uiso   1.00
N87    N     0.19506   0.32800   0.55236   0.00000  Uiso   1.00
N88    N     0.25371   0.70257   0.50497   0.00000  Uiso   1.00
N89    N     0.00727   0.84643   0.65460   0.00000  Uiso   1.00
N90    N     0.34454   0.32299   0.56851   0.00000  Uiso   1.00
N91    N     0.40318   0.69757   0.52111   0.00000  Uiso   1.00
N92    N     0.15674   0.84142   0.67075   0.00000  Uiso   1.00
C93    C     0.36115   0.54051   0.06923   0.00000  Uiso   1.00
C94    C     0.30914   0.44017   0.06853   0.00000  Uiso   1.00
C95    C     0.34866   0.35302   0.05894   0.00000  Uiso   1.00
C96    C     0.28926   0.26907   0.06004   0.00000  Uiso   1.00
C97    C     0.22299   0.11280   0.05737   0.00000  Uiso   1.00
C98    C     0.29297   0.61253   0.05546   0.00000  Uiso   1.00
C99    C     0.31890   0.67031   0.03489   0.00000  Uiso   1.00
C100   C     0.24588   0.73147   0.02499   0.00000  Uiso   1.00
C101   C     0.15454   0.84283   0.00205   0.00000  Uiso   1.00
C102   C     0.36089   0.57287   0.09670   0.00000  Uiso   1.00
C103   C     0.44393   0.59733   0.11081   0.00000  Uiso   1.00
C104   C     0.42809   0.62511   0.13563   0.00000  Uiso   1.00
C105   C     0.44221   0.67490   0.17672   0.00000  Uiso   1.00
C106   C     0.18537   0.54640   0.08822   0.00000  Uiso   1.00
C107   C     0.21366   0.44337   0.07884   0.00000  Uiso   1.00
C108   C     0.15418   0.35953   0.07995   0.00000  Uiso   1.00
C109   C     0.19361   0.27227   0.07037   0.00000  Uiso   1.00
C110   C     0.19749   0.61573   0.06578   0.00000  Uiso   1.00
C111   C     0.12442   0.67682   0.05590   0.00000  Uiso   1.00
C112   C     0.15024   0.73467   0.03532   0.00000  Uiso   1.00
C113   C     0.26541   0.57607   0.10702   0.00000  Uiso   1.00
C114   C     0.24945   0.60383   0.13182   0.00000  Uiso   1.00
C115   C     0.33245   0.62832   0.14596   0.00000  Uiso   1.00
H116   H     0.43548   0.53803   0.06120   0.00000  Uiso   1.00
H117   H     0.42255   0.35058   0.05096   0.00000  Uiso   1.00
H118   H     0.39280   0.66783   0.02692   0.00000  Uiso   1.00
H119   H     0.51780   0.59484   0.10282   0.00000  Uiso   1.00
H120   H     0.36609   0.14418   0.04415   0.00000  Uiso   1.00
H121   H     0.30336   0.81313   0.99346   0.00000  Uiso   1.00
H122   H     0.56696   0.65924   0.15352   0.00000  Uiso   1.00
H123   H     0.11104   0.54889   0.09625   0.00000  Uiso   1.00
H124   H     0.08030   0.36203   0.08793   0.00000  Uiso   1.00
H125   H     0.05055   0.67928   0.06389   0.00000  Uiso   1.00
H126   H     0.17555   0.60630   0.13979   0.00000  Uiso   1.00
H127   H     0.08830   0.15347   0.07416   0.00000  Uiso   1.00
H128   H     0.02558   0.82243   0.02347   0.00000  Uiso   1.00
H129   H     0.28918   0.66854   0.18352   0.00000  Uiso   1.00
O130   O     0.21282   0.02572   0.05305   0.00000  Uiso   1.00
O131   O     0.13053   0.90337   0.98655   0.00000  Uiso   1.00
O132   O     0.47637   0.70146   0.19653   0.00000  Uiso   1.00
N133   N     0.30494   0.17200   0.05236   0.00000  Uiso   1.00
N134   N     0.24629   0.79743   0.00497   0.00000  Uiso   1.00
N135   N     0.49273   0.65357   0.15460   0.00000  Uiso   1.00
N136   N     0.15546   0.17701   0.06851   0.00000  Uiso   1.00
N137   N     0.09682   0.80243   0.02111   0.00000  Uiso   1.00
N138   N     0.34326   0.65858   0.17075   0.00000  Uiso   1.00
C139   C     0.86115   0.04051   0.56923   0.00000  Uiso   1.00
C140   C     0.80914   0.94017   0.56853   0.00000  Uiso   1.00
C141   C     0.84866   0.85302   0.55894   0.00000  Uiso   1.00
C142   C     0.78926   0.76907   0.56004   0.00000  Uiso   1.00
C143   C     0.72299   0.61280   0.55737   0.00000  Uiso   1.00
C144   C     0.79297   0.11253   0.55546   0.00000  Uiso   1.00
C145   C     0.81890   0.17031   0.53489   0.00000  Uiso   1.00
C146   C     0.74588   0.23147   0.52499   0.00000  Uiso   1.00
C147   C     0.65454   0.34283   0.50205   0.00000  Uiso   1.00
C148   C     0.86089   0.07287   0.59670   0.00000  Uiso   1.00
C149   C     0.94393   0.09733   0.61081   0.00000  Uiso   1.00
C150   C     0.92809   0.12511   0.63563   0.00000  Uiso   1.00
C151   C     0.94221   0.17490   0.67672   0.00000  Uiso   1.00
C152   C     0.68537   0.04640   0.58822   0.00000  Uiso   1.00
C153   C     0.71366   0.94337   0.57884   0.00000  Uiso   1.00
C154   C     0.65418   0.85953   0.57995   0.00000  Uiso   1.00
C155   C     0.69361   0.77227   0.57037   0.00000  Uiso   1.00
C156   C     0.69749   0.11573   0.56578   0.00000  Uiso   1.00
C157   C     0.62442   0.17682   0.55590   0.00000  Uiso   1.00
C158   C     0.65024   0.23467   0.53532   0.00000  Uiso   1.00
C159   C     0.76541   0.07607   0.60702   0.00000  Uiso   1.00
C160   C     0.74945   0.10383   0.63182   0.00000  Uiso   1.00
C161   C     0.83245   0.12832   0.64596   0.00000  Uiso   1.00
H162   H     0.93548   0.03803   0.56120   0.00000  Uiso   1.00
H163   H     0.92255   0.85058   0.55096   0.00000  Uiso   1.00
H164   H     0.89280   0.16783   0.52692   0.00000  Uiso   1.00
H165   H     0.01780   0.09484   0.60282   0.00000  Uiso   1.00
H166   H     0.86609   0.64418   0.54415   0.00000  Uiso   1.00
H167   H     0.80336   0.31313   0.49346   0.00000  Uiso   1.00
H168   H     0.06696   0.15924   0.65352   0.00000  Uiso   1.00
H169   H     0.61104   0.04889   0.59625   0.00000  Uiso   1.00
H170   H     0.58030   0.86203   0.58793   0.00000  Uiso   1.00
H171   H     0.55055   0.17928   0.56389   0.00000  Uiso   1.00
H172   H     0.67555   0.10630   0.63979   0.00000  Uiso   1.00
H173   H     0.58830   0.65347   0.57416   0.00000  Uiso   1.00
H174   H     0.52558   0.32243   0.52347   0.00000  Uiso   1.00
H175   H     0.78918   0.16854   0.68352   0.00000  Uiso   1.00
O176   O     0.71282   0.52572   0.55305   0.00000  Uiso   1.00
O177   O     0.63053   0.40337   0.48655   0.00000  Uiso   1.00
O178   O     0.97637   0.20146   0.69653   0.00000  Uiso   1.00
N179   N     0.80494   0.67200   0.55236   0.00000  Uiso   1.00
N180   N     0.74629   0.29743   0.50497   0.00000  Uiso   1.00
N181   N     0.99273   0.15357   0.65460   0.00000  Uiso   1.00
N182   N     0.65546   0.67701   0.56851   0.00000  Uiso   1.00
N183   N     0.59682   0.30243   0.52111   0.00000  Uiso   1.00
N184   N     0.84326   0.15858   0.67075   0.00000  Uiso   1.00
C185   C     0.45949   0.36115   0.93077   0.00000  Uiso   1.00
C186   C     0.55983   0.30914   0.93147   0.00000  Uiso   1.00
C187   C     0.64698   0.34866   0.94106   0.00000  Uiso   1.00
C188   C     0.73093   0.28926   0.93996   0.00000  Uiso   1.00
C189   C     0.88720   0.22299   0.94263   0.00000  Uiso   1.00
C190   C     0.38747   0.29297   0.94454   0.00000  Uiso   1.00
C191   C     0.32969   0.31890   0.96511   0.00000  Uiso   1.00
C192   C     0.26853   0.24588   0.97501   0.00000  Uiso   1.00
C193   C     0.15717   0.15454   0.99795   0.00000  Uiso   1.00
C194   C     0.42713   0.36089   0.90330   0.00000  Uiso   1.00
C195   C     0.40267   0.44393   0.88919   0.00000  Uiso   1.00
C196   C     0.37489   0.42809   0.86437   0.00000  Uiso   1.00
C197   C     0.32510   0.44221   0.82328   0.00000  Uiso   1.00
C198   C     0.45360   0.18537   0.91178   0.00000  Uiso   1.00
C199   C     0.55663   0.21366   0.92116   0.00000  Uiso   1.00
C200   C     0.64047   0.15418   0.92005   0.00000  Uiso   1.00
C201   C     0.72773   0.19361   0.92963   0.00000  Uiso   1.00
C202   C     0.38427   0.19749   0.93422   0.00000  Uiso   1.00
C203   C     0.32318   0.12442   0.94410   0.00000  Uiso   1.00
C204   C     0.26533   0.15024   0.96468   0.00000  Uiso   1.00
C205   C     0.42393   0.26541   0.89298   0.00000  Uiso   1.00
C206   C     0.39617   0.24945   0.86818   0.00000  Uiso   1.00
C207   C     0.37168   0.33245   0.85404   0.00000  Uiso   1.00
H208   H     0.46197   0.43548   0.93880   0.00000  Uiso   1.00
H209   H     0.64942   0.42255   0.94904   0.00000  Uiso   1.00
H210   H     0.33217   0.39280   0.97308   0.00000  Uiso   1.00
H211   H     0.40516   0.51780   0.89718   0.00000  Uiso   1.00
H212   H     0.85582   0.36609   0.95585   0.00000  Uiso   1.00
H213   H     0.18687   0.30336   0.00654   0.00000  Uiso   1.00
H214   H     0.34076   0.56696   0.84648   0.00000  Uiso   1.00
H215   H     0.45111   0.11104   0.90375   0.00000  Uiso   1.00
H216   H     0.63797   0.08030   0.91207   0.00000  Uiso   1.00
H217   H     0.32072   0.05055   0.93611   0.00000  Uiso   1.00
H218   H     0.39370   0.17555   0.86021   0.00000  Uiso   1.00
H219   H     0.84653   0.08830   0.92584   0.00000  Uiso   1.00
H220   H     0.17757   0.02558   0.97653   0.00000  Uiso   1.00
H221   H     0.33146   0.28918   0.81648   0.00000  Uiso   1.00
O222   O     0.97428   0.21282   0.94695   0.00000  Uiso   1.00
O223   O     0.09663   0.13053   0.01345   0.00000  Uiso   1.00
O224   O     0.29854   0.47637   0.80347   0.00000  Uiso   1.00
N225   N     0.82800   0.30494   0.94764   0.00000  Uiso   1.00
N226   N     0.20257   0.24629   0.99503   0.00000  Uiso   1.00
N227   N     0.34643   0.49273   0.84540   0.00000  Uiso   1.00
N228   N     0.82299   0.15546   0.93149   0.00000  Uiso   1.00
N229   N     0.19757   0.09682   0.97889   0.00000  Uiso   1.00
N230   N     0.34142   0.34326   0.82925   0.00000  Uiso   1.00
C231   C     0.95949   0.86115   0.43077   0.00000  Uiso   1.00
C232   C     0.05983   0.80914   0.43147   0.00000  Uiso   1.00
C233   C     0.14698   0.84866   0.44106   0.00000  Uiso   1.00
C234   C     0.23093   0.78926   0.43996   0.00000  Uiso   1.00
C235   C     0.38720   0.72299   0.44263   0.00000  Uiso   1.00
C236   C     0.88747   0.79297   0.44454   0.00000  Uiso   1.00
C237   C     0.82969   0.81890   0.46511   0.00000  Uiso   1.00
C238   C     0.76853   0.74588   0.47501   0.00000  Uiso   1.00
C239   C     0.65717   0.65454   0.49795   0.00000  Uiso   1.00
C240   C     0.92713   0.86089   0.40330   0.00000  Uiso   1.00
C241   C     0.90267   0.94393   0.38919   0.00000  Uiso   1.00
C242   C     0.87489   0.92809   0.36437   0.00000  Uiso   1.00
C243   C     0.82510   0.94221   0.32328   0.00000  Uiso   1.00
C244   C     0.95360   0.68537   0.41178   0.00000  Uiso   1.00
C245   C     0.05663   0.71366   0.42116   0.00000  Uiso   1.00
C246   C     0.14047   0.65418   0.42005   0.00000  Uiso   1.00
C247   C     0.22773   0.69361   0.42963   0.00000  Uiso   1.00
C248   C     0.88427   0.69749   0.43422   0.00000  Uiso   1.00
C249   C     0.82318   0.62442   0.44410   0.00000  Uiso   1.00
C250   C     0.76533   0.65024   0.46468   0.00000  Uiso   1.00
C251   C     0.92393   0.76541   0.39298   0.00000  Uiso   1.00
C252   C     0.89617   0.74945   0.36818   0.00000  Uiso   1.00
C253   C     0.87168   0.83245   0.35404   0.00000  Uiso   1.00
H254   H     0.96197   0.93548   0.43880   0.00000  Uiso   1.00
H255   H     0.14942   0.92255   0.44904   0.00000  Uiso   1.00
H256   H     0.83217   0.89280   0.47308   0.00000  Uiso   1.00
H257   H     0.90516   0.01780   0.39718   0.00000  Uiso   1.00
H258   H     0.35582   0.86609   0.45585   0.00000  Uiso   1.00
H259   H     0.68687   0.80336   0.50654   0.00000  Uiso   1.00
H260   H     0.84076   0.06696   0.34648   0.00000  Uiso   1.00
H261   H     0.95111   0.61104   0.40375   0.00000  Uiso   1.00
H262   H     0.13797   0.58030   0.41207   0.00000  Uiso   1.00
H263   H     0.82072   0.55055   0.43611   0.00000  Uiso   1.00
H264   H     0.89370   0.67555   0.36021   0.00000  Uiso   1.00
H265   H     0.34653   0.58830   0.42584   0.00000  Uiso   1.00
H266   H     0.67757   0.52558   0.47653   0.00000  Uiso   1.00
H267   H     0.83146   0.78918   0.31648   0.00000  Uiso   1.00
O268   O     0.47428   0.71282   0.44695   0.00000  Uiso   1.00
O269   O     0.59663   0.63053   0.51345   0.00000  Uiso   1.00
O270   O     0.79854   0.97637   0.30347   0.00000  Uiso   1.00
N271   N     0.32800   0.80494   0.44764   0.00000  Uiso   1.00
N272   N     0.70257   0.74629   0.49503   0.00000  Uiso   1.00
N273   N     0.84643   0.99273   0.34540   0.00000  Uiso   1.00
N274   N     0.32299   0.65546   0.43149   0.00000  Uiso   1.00
N275   N     0.69757   0.59682   0.47889   0.00000  Uiso   1.00
N276   N     0.84142   0.84326   0.32925   0.00000  Uiso   1.00
C277   C     0.54051   0.63885   0.93077   0.00000  Uiso   1.00
C278   C     0.44017   0.69086   0.93147   0.00000  Uiso   1.00
C279   C     0.35302   0.65134   0.94106   0.00000  Uiso   1.00
C280   C     0.26907   0.71074   0.93996   0.00000  Uiso   1.00
C281   C     0.11280   0.77701   0.94263   0.00000  Uiso   1.00
C282   C     0.61253   0.70703   0.94454   0.00000  Uiso   1.00
C283   C     0.67031   0.68110   0.96511   0.00000  Uiso   1.00
C284   C     0.73147   0.75412   0.97501   0.00000  Uiso   1.00
C285   C     0.84283   0.84546   0.99795   0.00000  Uiso   1.00
C286   C     0.57287   0.63911   0.90330   0.00000  Uiso   1.00
C287   C     0.59733   0.55607   0.88919   0.00000  Uiso   1.00
C288   C     0.62511   0.57191   0.86437   0.00000  Uiso   1.00
C289   C     0.67490   0.55779   0.82328   0.00000  Uiso   1.00
C290   C     0.54640   0.81463   0.91178   0.00000  Uiso   1.00
C291   C     0.44337   0.78634   0.92116   0.00000  Uiso   1.00
C292   C     0.35953   0.84582   0.92005   0.00000  Uiso   1.00
C293   C     0.27227   0.80639   0.92963   0.00000  Uiso   1.00
C294   C     0.61573   0.80251   0.93422   0.00000  Uiso   1.00
C295   C     0.67682   0.87558   0.94410   0.00000  Uiso   1.00
C296   C     0.73467   0.84976   0.96468   0.00000  Uiso   1.00
C297   C     0.57607   0.73459   0.89298   0.00000  Uiso   1.00
C298   C     0.60383   0.75055   0.86818   0.00000  Uiso   1.00
C299   C     0.62832   0.66755   0.85404   0.00000  Uiso   1.00
H300   H     0.53803   0.56452   0.93880   0.00000  Uiso   1.00
H301   H     0.35058   0.57745   0.94904   0.00000  Uiso   1.00
H302   H     0.66783   0.60720   0.97308   0.00000  Uiso   1.00
H303   H     0.59484   0.48220   0.89718   0.00000  Uiso   1.00
H304   H     0.14418   0.63391   0.95585   0.00000  Uiso   1.00
H305   H     0.81313   0.69664   0.00654   0.00000  Uiso   1.00
H306   H     0.65924   0.43304   0.84648   0.00000  Uiso   1.00
H307   H     0.54889   0.88896   0.90375   0.00000  Uiso   1.00
H308   H     0.36203   0.91970   0.91207   0.00000  Uiso   1.00
H309   H     0.67928   0.94945   0.93611   0.00000  Uiso   1.00
H310   H     0.60630   0.82445   0.86021   0.00000  Uiso   1.00
H311   H     0.15347   0.91170   0.92584   0.00000  Uiso   1.00
H312   H     0.82243   0.97442   0.97653   0.00000  Uiso   1.00
H313   H     0.66854   0.71082   0.81648   0.00000  Uiso   1.00
O314   O     0.02572   0.78718   0.94695   0.00000  Uiso   1.00
O315   O     0.90337   0.86947   0.01345   0.00000  Uiso   1.00
O316   O     0.70146   0.52363   0.80347   0.00000  Uiso   1.00
N317   N     0.17200   0.69506   0.94764   0.00000  Uiso   1.00
N318   N     0.79743   0.75371   0.99503   0.00000  Uiso   1.00
N319   N     0.65357   0.50727   0.84540   0.00000  Uiso   1.00
N320   N     0.17701   0.84454   0.93149   0.00000  Uiso   1.00
N321   N     0.80243   0.90318   0.97889   0.00000  Uiso   1.00
N322   N     0.65858   0.65674   0.82925   0.00000  Uiso   1.00
C323   C     0.04051   0.13885   0.43077   0.00000  Uiso   1.00
C324   C     0.94017   0.19086   0.43147   0.00000  Uiso   1.00
C325   C     0.85302   0.15134   0.44106   0.00000  Uiso   1.00
C326   C     0.76907   0.21074   0.43996   0.00000  Uiso   1.00
C327   C     0.61280   0.27701   0.44263   0.00000  Uiso   1.00
C328   C     0.11253   0.20703   0.44454   0.00000  Uiso   1.00
C329   C     0.17031   0.18110   0.46511   0.00000  Uiso   1.00
C330   C     0.23147   0.25412   0.47501   0.00000  Uiso   1.00
C331   C     0.34283   0.34546   0.49795   0.00000  Uiso   1.00
C332   C     0.07287   0.13911   0.40330   0.00000  Uiso   1.00
C333   C     0.09733   0.05607   0.38919   0.00000  Uiso   1.00
C334   C     0.12511   0.07191   0.36437   0.00000  Uiso   1.00
C335   C     0.17490   0.05779   0.32328   0.00000  Uiso   1.00
C336   C     0.04640   0.31463   0.41178   0.00000  Uiso   1.00
C337   C     0.94337   0.28634   0.42116   0.00000  Uiso   1.00
C338   C     0.85953   0.34582   0.42005   0.00000  Uiso   1.00
C339   C     0.77227   0.30639   0.42963   0.00000  Uiso   1.00
C340   C     0.11573   0.30251   0.43422   0.00000  Uiso   1.00
C341   C     0.17682   0.37558   0.44410   0.00000  Uiso   1.00
C342   C     0.23467   0.34976   0.46468   0.00000  Uiso   1.00
C343   C     0.07607   0.23459   0.39298   0.00000  Uiso   1.00
C344   C     0.10383   0.25055   0.36818   0.00000  Uiso   1.00
C345   C     0.12832   0.16755   0.35404   0.00000  Uiso   1.00
H346   H     0.03803   0.06452   0.43880   0.00000  Uiso   1.00
H347   H     0.85058   0.07745   0.44904   0.00000  Uiso   1.00
H348   H     0.16783   0.10720   0.47308   0.00000  Uiso   1.00
H349   H     0.09484   0.98220   0.39718   0.00000  Uiso   1.00
H350   H     0.64418   0.13391   0.45585   0.00000  Uiso   1.00
H351   H     0.31313   0.19664   0.50654   0.00000  Uiso   1.00
H352   H     0.15924   0.93304   0.34648   0.00000  Uiso   1.00
H353   H     0.04889   0.38896   0.40375   0.00000  Uiso   1.00
H354   H     0.86203   0.41970   0.41207   0.00000  Uiso   1.00
H355   H     0.17928   0.44945   0.43611   0.00000  Uiso   1.00
H356   H     0.10630   0.32445   0.36021   0.00000  Uiso   1.00
H357   H     0.65347   0.41170   0.42584   0.00000  Uiso   1.00
H358   H     0.32243   0.47442   0.47653   0.00000  Uiso   1.00
H359   H     0.16854   0.21082   0.31648   0.00000  Uiso   1.00
O360   O     0.52572   0.28718   0.44695   0.00000  Uiso   1.00
O361   O     0.40337   0.36947   0.51345   0.00000  Uiso   1.00
O362   O     0.20146   0.02363   0.30347   0.00000  Uiso   1.00
N363   N     0.67200   0.19506   0.44764   0.00000  Uiso   1.00
N364   N     0.29743   0.25371   0.49503   0.00000  Uiso   1.00
N365   N     0.15357   0.00727   0.34540   0.00000  Uiso   1.00
N366   N     0.67701   0.34454   0.43149   0.00000  Uiso   1.00
N367   N     0.30243   0.40318   0.47889   0.00000  Uiso   1.00
N368   N     0.15858   0.15674   0.32925   0.00000  Uiso   1.00
C369   C     0.86115   0.45949   0.68077   0.00000  Uiso   1.00
C370   C     0.80914   0.55983   0.68147   0.00000  Uiso   1.00
C371   C     0.84866   0.64698   0.69106   0.00000  Uiso   1.00
C372   C     0.78926   0.73093   0.68996   0.00000  Uiso   1.00
C373   C     0.72299   0.88720   0.69263   0.00000  Uiso   1.00
C374   C     0.79297   0.38747   0.69454   0.00000  Uiso   1.00
C375   C     0.81890   0.32969   0.71511   0.00000  Uiso   1.00
C376   C     0.74588   0.26853   0.72501   0.00000  Uiso   1.00
C377   C     0.65454   0.15717   0.74795   0.00000  Uiso   1.00
C378   C     0.86089   0.42713   0.65330   0.00000  Uiso   1.00
C379   C     0.94393   0.40267   0.63919   0.00000  Uiso   1.00
C380   C     0.92809   0.37489   0.61437   0.00000  Uiso   1.00
C381   C     0.94221   0.32510   0.57328   0.00000  Uiso   1.00
C382   C     0.68537   0.45360   0.66178   0.00000  Uiso   1.00
C383   C     0.71366   0.55663   0.67116   0.00000  Uiso   1.00
C384   C     0.65418   0.64047   0.67005   0.00000  Uiso   1.00
C385   C     0.69361   0.72773   0.67963   0.00000  Uiso   1.00
C386   C     0.69749   0.38427   0.68422   0.00000  Uiso   1.00
C387   C     0.62442   0.32318   0.69410   0.00000  Uiso   1.00
C388   C     0.65024   0.26533   0.71468   0.00000  Uiso   1.00
C389   C     0.76541   0.42393   0.64298   0.00000  Uiso   1.00
C390   C     0.74945   0.39617   0.61818   0.00000  Uiso   1.00
C391   C     0.83245   0.37168   0.60404   0.00000  Uiso   1.00
H392   H     0.93548   0.46197   0.68880   0.00000  Uiso   1.00
H393   H     0.92255   0.64942   0.69904   0.00000  Uiso   1.00
H394   H     0.89280   0.33217   0.72308   0.00000  Uiso   1.00
H395   H     0.01780   0.40516   0.64718   0.00000  Uiso   1.00
H396   H     0.86609   0.85582   0.70585   0.00000  Uiso   1.00
H397   H     0.80336   0.18687   0.75654   0.00000  Uiso   1.00
H398   H     0.06696   0.34076   0.59648   0.00000  Uiso   1.00
H399   H     0.61104   0.45111   0.65375   0.00000  Uiso   1.00
H400   H     0.58030   0.63797   0.66207   0.00000  Uiso   1.00
H401   H     0.55055   0.32072   0.68611   0.00000  Uiso   1.00
H402   H     0.67555   0.39370   0.61021   0.00000  Uiso   1.00
H403   H     0.58830   0.84653   0.67584   0.00000  Uiso   1.00
H404   H     0.52558   0.17757   0.72653   0.00000  Uiso   1.00
H405   H     0.78918   0.33146   0.56648   0.00000  Uiso   1.00
O406   O     0.71282   0.97428   0.69695   0.00000  Uiso   1.00
O407   O     0.63053   0.09663   0.76345   0.00000  Uiso   1.00
O408   O     0.97637   0.29854   0.55347   0.00000  Uiso   1.00
N409   N     0.80494   0.82800   0.69764   0.00000  Uiso   1.00
N410   N     0.74629   0.20257   0.74503   0.00000  Uiso   1.00
N411   N     0.99273   0.34643   0.59540   0.00000  Uiso   1.00
N412   N     0.65546   0.82299   0.68149   0.00000  Uiso   1.00
N413   N     0.59682   0.19757   0.72889   0.00000  Uiso   1.00
N414   N     0.84326   0.34142   0.57925   0.00000  Uiso   1.00
C415   C     0.36115   0.95949   0.18077   0.00000  Uiso   1.00
C416   C     0.30914   0.05983   0.18147   0.00000  Uiso   1.00
C417   C     0.34866   0.14698   0.19106   0.00000  Uiso   1.00
C418   C     0.28926   0.23093   0.18996   0.00000  Uiso   1.00
C419   C     0.22299   0.38720   0.19263   0.00000  Uiso   1.00
C420   C     0.29297   0.88747   0.19454   0.00000  Uiso   1.00
C421   C     0.31890   0.82969   0.21511   0.00000  Uiso   1.00
C422   C     0.24588   0.76853   0.22501   0.00000  Uiso   1.00
C423   C     0.15454   0.65717   0.24795   0.00000  Uiso   1.00
C424   C     0.36089   0.92713   0.15330   0.00000  Uiso   1.00
C425   C     0.44393   0.90267   0.13919   0.00000  Uiso   1.00
C426   C     0.42809   0.87489   0.11437   0.00000  Uiso   1.00
C427   C     0.44221   0.82510   0.07328   0.00000  Uiso   1.00
C428   C     0.18537   0.95360   0.16178   0.00000  Uiso   1.00
C429   C     0.21366   0.05663   0.17116   0.00000  Uiso   1.00
C430   C     0.15418   0.14047   0.17005   0.00000  Uiso   1.00
C431   C     0.19361   0.22773   0.17963   0.00000  Uiso   1.00
C432   C     0.19749   0.88427   0.18422   0.00000  Uiso   1.00
C433   C     0.12442   0.82318   0.19410   0.00000  Uiso   1.00
C434   C     0.15024   0.76533   0.21468   0.00000  Uiso   1.00
C435   C     0.26541   0.92393   0.14298   0.00000  Uiso   1.00
C436   C     0.24945   0.89617   0.11818   0.00000  Uiso   1.00
C437   C     0.33245   0.87168   0.10404   0.00000  Uiso   1.00
H438   H     0.43548   0.96197   0.18880   0.00000  Uiso   1.00
H439   H     0.42255   0.14942   0.19904   0.00000  Uiso   1.00
H440   H     0.39280   0.83217   0.22308   0.00000  Uiso   1.00
H441   H     0.51780   0.90516   0.14718   0.00000  Uiso   1.00
H442   H     0.36609   0.35582   0.20585   0.00000  Uiso   1.00
H443   H     0.30336   0.68687   0.25654   0.00000  Uiso   1.00
H444   H     0.56696   0.84076   0.09648   0.00000  Uiso   1.00
H445   H     0.11104   0.95111   0.15375   0.00000  Uiso   1.00
H446   H     0.08030   0.13797   0.16207   0.00000  Uiso   1.00
H447   H     0.05055   0.82072   0.18611   0.00000  Uiso   1.00
H448   H     0.17555   0.89370   0.11021   0.00000  Uiso   1.00
H449   H     0.08830   0.34653   0.17584   0.00000  Uiso   1.00
H450   H     0.02558   0.67757   0.22653   0.00000  Uiso   1.00
H451   H     0.28918   0.83146   0.06648   0.00000  Uiso   1.00
O452   O     0.21282   0.47428   0.19695   0.00000  Uiso   1.00
O453   O     0.13053   0.59663   0.26345   0.00000  Uiso   1.00
O454   O     0.47637   0.79854   0.05347   0.00000  Uiso   1.00
N455   N     0.30494   0.32800   0.19764   0.00000  Uiso   1.00
N456   N     0.24629   0.70257   0.24503   0.00000  Uiso   1.00
N457   N     0.49273   0.84643   0.09540   0.00000  Uiso   1.00
N458   N     0.15546   0.32299   0.18149   0.00000  Uiso   1.00
N459   N     0.09682   0.69757   0.22889   0.00000  Uiso   1.00
N460   N     0.34326   0.84142   0.07925   0.00000  Uiso   1.00
C461   C     0.13885   0.54051   0.68077   0.00000  Uiso   1.00
C462   C     0.19086   0.44017   0.68147   0.00000  Uiso   1.00
C463   C     0.15134   0.35302   0.69106   0.00000  Uiso   1.00
C464   C     0.21074   0.26907   0.68996   0.00000  Uiso   1.00
C465   C     0.27701   0.11280   0.69263   0.00000  Uiso   1.00
C466   C     0.20703   0.61253   0.69454   0.00000  Uiso   1.00
C467   C     0.18110   0.67031   0.71511   0.00000  Uiso   1.00
C468   C     0.25412   0.73147   0.72501   0.00000  Uiso   1.00
C469   C     0.34546   0.84283   0.74795   0.00000  Uiso   1.00
C470   C     0.13911   0.57287   0.65330   0.00000  Uiso   1.00
C471   C     0.05607   0.59733   0.63919   0.00000  Uiso   1.00
C472   C     0.07191   0.62511   0.61437   0.00000  Uiso   1.00
C473   C     0.05779   0.67490   0.57328   0.00000  Uiso   1.00
C474   C     0.31463   0.54640   0.66178   0.00000  Uiso   1.00
C475   C     0.28634   0.44337   0.67116   0.00000  Uiso   1.00
C476   C     0.34582   0.35953   0.67005   0.00000  Uiso   1.00
C477   C     0.30639   0.27227   0.67963   0.00000  Uiso   1.00
C478   C     0.30251   0.61573   0.68422   0.00000  Uiso   1.00
C479   C     0.37558   0.67682   0.69410   0.00000  Uiso   1.00
C480   C     0.34976   0.73467   0.71468   0.00000  Uiso   1.00
C481   C     0.23459   0.57607   0.64298   0.00000  Uiso   1.00
C482   C     0.25055   0.60383   0.61818   0.00000  Uiso   1.00
C483   C     0.16755   0.62832   0.60404   0.00000  Uiso   1.00
H484   H     0.06452   0.53803   0.68880   0.00000  Uiso   1.00
H485   H     0.07745   0.35058   0.69904   0.00000  Uiso   1.00
H486   H     0.10720   0.66783   0.72308   0.00000  Uiso   1.00
H487   H     0.98220   0.59484   0.64718   0.00000  Uiso   1.00
H488   H     0.13391   0.14418   0.70585   0.00000  Uiso   1.00
H489   H     0.19664   0.81313   0.75654   0.00000  Uiso   1.00
H490   H     0.93304   0.65924   0.59648   0.00000  Uiso   1.00
H491   H     0.38896   0.54889   0.65375   0.00000  Uiso   1.00
H492   H     0.41970   0.36203   0.66207   0.00000  Uiso   1.00
H493   H     0.44945   0.67928   0.68611   0.00000  Uiso   1.00
H494   H     0.32445   0.60630   0.61021   0.00000  Uiso   1.00
H495   H     0.41170   0.15347   0.67584   0.00000  Uiso   1.00
H496   H     0.47442   0.82243   0.72653   0.00000  Uiso   1.00
H497   H     0.21082   0.66854   0.56648   0.00000  Uiso   1.00
O498   O     0.28718   0.02572   0.69695   0.00000  Uiso   1.00
O499   O     0.36947   0.90337   0.76345   0.00000  Uiso   1.00
O500   O     0.02363   0.70146   0.55347   0.00000  Uiso   1.00
N501   N     0.19506   0.17200   0.69764   0.00000  Uiso   1.00
N502   N     0.25371   0.79743   0.74503   0.00000  Uiso   1.00
N503   N     0.00727   0.65357   0.59540   0.00000  Uiso   1.00
N504   N     0.34454   0.17701   0.68149   0.00000  Uiso   1.00
N505   N     0.40318   0.80243   0.72889   0.00000  Uiso   1.00
N506   N     0.15674   0.65858   0.57925   0.00000  Uiso   1.00
C507   C     0.63885   0.04051   0.18077   0.00000  Uiso   1.00
C508   C     0.69086   0.94017   0.18147   0.00000  Uiso   1.00
C509   C     0.65134   0.85302   0.19106   0.00000  Uiso   1.00
C510   C     0.71074   0.76907   0.18996   0.00000  Uiso   1.00
C511   C     0.77701   0.61280   0.19263   0.00000  Uiso   1.00
C512   C     0.70703   0.11253   0.19454   0.00000  Uiso   1.00
C513   C     0.68110   0.17031   0.21511   0.00000  Uiso   1.00
C514   C     0.75412   0.23147   0.22501   0.00000  Uiso   1.00
C515   C     0.84546   0.34283   0.24795   0.00000  Uiso   1.00
C516   C     0.63911   0.07287   0.15330   0.00000  Uiso   1.00
C517   C     0.55607   0.09733   0.13919   0.00000  Uiso   1.00
C518   C     0.57191   0.12511   0.11437   0.00000  Uiso   1.00
C519   C     0.55779   0.17490   0.07328   0.00000  Uiso   1.00
C520   C     0.81463   0.04640   0.16178   0.00000  Uiso   1.00
C521   C     0.78634   0.94337   0.17116   0.00000  Uiso   1.00
C522   C     0.84582   0.85953   0.17005   0.00000  Uiso   1.00
C523   C     0.80639   0.77227   0.17963   0.00000  Uiso   1.00
C524   C     0.80251   0.11573   0.18422   0.00000  Uiso   1.00
C525   C     0.87558   0.17682   0.19410   0.00000  Uiso   1.00
C526   C     0.84976   0.23467   0.21468   0.00000  Uiso   1.00
C527   C     0.73459   0.07607   0.14298   0.00000  Uiso   1.00
C528   C     0.75055   0.10383   0.11818   0.00000  Uiso   1.00
C529   C     0.66755   0.12832   0.10404   0.00000  Uiso   1.00
H530   H     0.56452   0.03803   0.18880   0.00000  Uiso   1.00
H531   H     0.57745   0.85058   0.19904   0.00000  Uiso   1.00
H532   H     0.60720   0.16783   0.22308   0.00000  Uiso   1.00
H533   H     0.48220   0.09484   0.14718   0.00000  Uiso   1.00
H534   H     0.63391   0.64418   0.20585   0.00000  Uiso   1.00
H535   H     0.69664   0.31313   0.25654   0.00000  Uiso   1.00
H536   H     0.43304   0.15924   0.09648   0.00000  Uiso   1.00
H537   H     0.88896   0.04889   0.15375   0.00000  Uiso   1.00
H538   H     0.91970   0.86203   0.16207   0.00000  Uiso   1.00
H539   H     0.94945   0.17928   0.18611   0.00000  Uiso   1.00
H540   H     0.82445   0.10630   0.11021   0.00000  Uiso   1.00
H541   H     0.91170   0.65347   0.17584   0.00000  Uiso   1.00
H542   H     0.97442   0.32243   0.22653   0.00000  Uiso   1.00
H543   H     0.71082   0.16854   0.06648   0.00000  Uiso   1.00
O544   O     0.78718   0.52572   0.19695   0.00000  Uiso   1.00
O545   O     0.86947   0.40337   0.26345   0.00000  Uiso   1.00
O546   O     0.52363   0.20146   0.05347   0.00000  Uiso   1.00
N547   N     0.69506   0.67200   0.19764   0.00000  Uiso   1.00
N548   N     0.75371   0.29743   0.24503   0.00000  Uiso   1.00
N549   N     0.50727   0.15357   0.09540   0.00000  Uiso   1.00
N550   N     0.84454   0.67701   0.18149   0.00000  Uiso   1.00
N551   N     0.90318   0.30243   0.22889   0.00000  Uiso   1.00
N552   N     0.65674   0.15858   0.07925   0.00000  Uiso   1.00
C553   C     0.04051   0.36115   0.81923   0.00000  Uiso   1.00
C554   C     0.94017   0.30914   0.81853   0.00000  Uiso   1.00
C555   C     0.85302   0.34866   0.80894   0.00000  Uiso   1.00
C556   C     0.76907   0.28926   0.81004   0.00000  Uiso   1.00
C557   C     0.61280   0.22299   0.80737   0.00000  Uiso   1.00
C558   C     0.11253   0.29297   0.80546   0.00000  Uiso   1.00
C559   C     0.17031   0.31890   0.78489   0.00000  Uiso   1.00
C560   C     0.23147   0.24588   0.77499   0.00000  Uiso   1.00
C561   C     0.34283   0.15454   0.75205   0.00000  Uiso   1.00
C562   C     0.07287   0.36089   0.84670   0.00000  Uiso   1.00
C563   C     0.09733   0.44393   0.86081   0.00000  Uiso   1.00
C564   C     0.12511   0.42809   0.88563   0.00000  Uiso   1.00
C565   C     0.17490   0.44221   0.92672   0.00000  Uiso   1.00
C566   C     0.04640   0.18537   0.83822   0.00000  Uiso   1.00
C567   C     0.94337   0.21366   0.82884   0.00000  Uiso   1.00
C568   C     0.85953   0.15418   0.82995   0.00000  Uiso   1.00
C569   C     0.77227   0.19361   0.82037   0.00000  Uiso   1.00
C570   C     0.11573   0.19749   0.81578   0.00000  Uiso   1.00
C571   C     0.17682   0.12442   0.80590   0.00000  Uiso   1.00
C572   C     0.23467   0.15024   0.78532   0.00000  Uiso   1.00
C573   C     0.07607   0.26541   0.85702   0.00000  Uiso   1.00
C574   C     0.10383   0.24945   0.88182   0.00000  Uiso   1.00
C575   C     0.12832   0.33245   0.89596   0.00000  Uiso   1.00
H576   H     0.03803   0.43548   0.81120   0.00000  Uiso   1.00
H577   H     0.85058   0.42255   0.80096   0.00000  Uiso   1.00
H578   H     0.16783   0.39280   0.77692   0.00000  Uiso   1.00
H579   H     0.09484   0.51780   0.85282   0.00000  Uiso   1.00
H580   H     0.64418   0.36609   0.79415   0.00000  Uiso   1.00
H581   H     0.31313   0.30336   0.74346   0.00000  Uiso   1.00
H582   H     0.15924   0.56696   0.90352   0.00000  Uiso   1.00
H583   H     0.04889   0.11104   0.84625   0.00000  Uiso   1.00
H584   H     0.86203   0.08030   0.83793   0.00000  Uiso   1.00
H585   H     0.17928   0.05055   0.81389   0.00000  Uiso   1.00
H586   H     0.10630   0.17555   0.88979   0.00000  Uiso   1.00
H587   H     0.65347   0.08830   0.82416   0.00000  Uiso   1.00
H588   H     0.32243   0.02558   0.77347   0.00000  Uiso   1.00
H589   H     0.16854   0.28918   0.93352   0.00000  Uiso   1.00
O590   O     0.52572   0.21282   0.80305   0.00000  Uiso   1.00
O591   O     0.40337   0.13053   0.73655   0.00000  Uiso   1.00
O592   O     0.20146   0.47637   0.94653   0.00000  Uiso   1.00
N593   N     0.67200   0.30494   0.80236   0.00000  Uiso   1.00
N594   N     0.29743   0.24629   0.75497   0.00000  Uiso   1.00
N595   N     0.15357   0.49273   0.90460   0.00000  Uiso   1.00
N596   N     0.67701   0.15546   0.81851   0.00000  Uiso   1.00
N597   N     0.30243   0.09682   0.77111   0.00000  Uiso   1.00
N598   N     0.15858   0.34326   0.92075   0.00000  Uiso   1.00
C599   C     0.54051   0.86115   0.31923   0.00000  Uiso   1.00
C600   C     0.44017   0.80914   0.31853   0.00000  Uiso   1.00
C601   C     0.35302   0.84866   0.30894   0.00000  Uiso   1.00
C602   C     0.26907   0.78926   0.31004   0.00000  Uiso   1.00
C603   C     0.11280   0.72299   0.30737   0.00000  Uiso   1.00
C604   C     0.61253   0.79297   0.30546   0.00000  Uiso   1.00
C605   C     0.67031   0.81890   0.28489   0.00000  Uiso   1.00
C606   C     0.73147   0.74588   0.27499   0.00000  Uiso   1.00
C607   C     0.84283   0.65454   0.25205   0.00000  Uiso   1.00
C608   C     0.57287   0.86089   0.34670   0.00000  Uiso   1.00
C609   C     0.59733   0.94393   0.36081   0.00000  Uiso   1.00
C610   C     0.62511   0.92809   0.38563   0.00000  Uiso   1.00
C611   C     0.67490   0.94221   0.42672   0.00000  Uiso   1.00
C612   C     0.54640   0.68537   0.33822   0.00000  Uiso   1.00
C613   C     0.44337   0.71366   0.32884   0.00000  Uiso   1.00
C614   C     0.35953   0.65418   0.32995   0.00000  Uiso   1.00
C615   C     0.27227   0.69361   0.32037   0.00000  Uiso   1.00
C616   C     0.61573   0.69749   0.31578   0.00000  Uiso   1.00
C617   C     0.67682   0.62442   0.30590   0.00000  Uiso   1.00
C618   C     0.73467   0.65024   0.28532   0.00000  Uiso   1.00
C619   C     0.57607   0.76541   0.35702   0.00000  Uiso   1.00
C620   C     0.60383   0.74945   0.38182   0.00000  Uiso   1.00
C621   C     0.62832   0.83245   0.39596   0.00000  Uiso   1.00
H622   H     0.53803   0.93548   0.31120   0.00000  Uiso   1.00
H623   H     0.35058   0.92255   0.30096   0.00000  Uiso   1.00
H624   H     0.66783   0.89280   0.27692   0.00000  Uiso   1.00
H625   H     0.59484   0.01780   0.35282   0.00000  Uiso   1.00
H626   H     0.14418   0.86609   0.29415   0.00000  Uiso   1.00
H627   H     0.81313   0.80336   0.24346   0.00000  Uiso   1.00
H628   H     0.65924   0.06696   0.40352   0.00000  Uiso   1.00
H629   H     0.54889   0.61104   0.34625   0.00000  Uiso   1.00
H630   H     0.36203   0.58030   0.33793   0.00000  Uiso   1.00
H631   H     0.67928   0.55055   0.31389   0.00000  Uiso   1.00
H632   H     0.60630   0.67555   0.38979   0.00000  Uiso   1.00
H633   H     0.15347   0.58830   0.32416   0.00000  Uiso   1.00
H634   H     0.82243   0.52558   0.27347   0.00000  Uiso   1.00
H635   H     0.66854   0.78918   0.43352   0.00000  Uiso   1.00
O636   O     0.02572   0.71282   0.30305   0.00000  Uiso   1.00
O637   O     0.90337   0.63053   0.23655   0.00000  Uiso   1.00
O638   O     0.70146   0.97637   0.44653   0.00000  Uiso   1.00
N639   N     0.17200   0.80494   0.30236   0.00000  Uiso   1.00
N640   N     0.79743   0.74629   0.25497   0.00000  Uiso   1.00
N641   N     0.65357   0.99273   0.40460   0.00000  Uiso   1.00
N642   N     0.17701   0.65546   0.31851   0.00000  Uiso   1.00
N643   N     0.80243   0.59682   0.27111   0.00000  Uiso   1.00
N644   N     0.65858   0.84326   0.42075   0.00000  Uiso   1.00
C645   C     0.95949   0.63885   0.81923   0.00000  Uiso   1.00
C646   C     0.05983   0.69086   0.81853   0.00000  Uiso   1.00
C647   C     0.14698   0.65134   0.80894   0.00000  Uiso   1.00
C648   C     0.23093   0.71074   0.81004   0.00000  Uiso   1.00
C649   C     0.38720   0.77701   0.80737   0.00000  Uiso   1.00
C650   C     0.88747   0.70703   0.80546   0.00000  Uiso   1.00
C651   C     0.82969   0.68110   0.78489   0.00000  Uiso   1.00
C652   C     0.76853   0.75412   0.77499   0.00000  Uiso   1.00
C653   C     0.65717   0.84546   0.75205   0.00000  Uiso   1.00
C654   C     0.92713   0.63911   0.84670   0.00000  Uiso   1.00
C655   C     0.90267   0.55607   0.86081   0.00000  Uiso   1.00
C656   C     0.87489   0.57191   0.88563   0.00000  Uiso   1.00
C657   C     0.82510   0.55779   0.92672   0.00000  Uiso   1.00
C658   C     0.95360   0.81463   0.83822   0.00000  Uiso   1.00
C659   C     0.05663   0.78634   0.82884   0.00000  Uiso   1.00
C660   C     0.14047   0.84582   0.82995   0.00000  Uiso   1.00
C661   C     0.22773   0.80639   0.82037   0.00000  Uiso   1.00
C662   C     0.88427   0.80251   0.81578   0.00000  Uiso   1.00
C663   C     0.82318   0.87558   0.80590   0.00000  Uiso   1.00
C664   C     0.76533   0.84976   0.78532   0.00000  Uiso   1.00
C665   C     0.92393   0.73459   0.85702   0.00000  Uiso   1.00
C666   C     0.89617   0.75055   0.88182   0.00000  Uiso   1.00
C667   C     0.87168   0.66755   0.89596   0.00000  Uiso   1.00
H668   H     0.96197   0.56452   0.81120   0.00000  Uiso   1.00
H669   H     0.14942   0.57745   0.80096   0.00000  Uiso   1.00
H670   H     0.83217   0.60720   0.77692   0.00000  Uiso   1.00
H671   H     0.90516   0.48220   0.85282   0.00000  Uiso   1.00
H672   H     0.35582   0.63391   0.79415   0.00000  Uiso   1.00
H673   H     0.68687   0.69664   0.74346   0.00000  Uiso   1.00
H674   H     0.84076   0.43304   0.90352   0.00000  Uiso   1.00
H675   H     0.95111   0.88896   0.84625   0.00000  Uiso   1.00
H676   H     0.13797   0.91970   0.83793   0.00000  Uiso   1.00
H677   H     0.82072   0.94945   0.81389   0.00000  Uiso   1.00
H678   H     0.89370   0.82445   0.88979   0.00000  Uiso   1.00
H679   H     0.34653   0.91170   0.82416   0.00000  Uiso   1.00
H680   H     0.67757   0.97442   0.77347   0.00000  Uiso   1.00
H681   H     0.83146   0.71082   0.93352   0.00000  Uiso   1.00
O682   O     0.47428   0.78718   0.80305   0.00000  Uiso   1.00
O683   O     0.59663   0.86947   0.73655   0.00000  Uiso   1.00
O684   O     0.79854   0.52363   0.94653   0.00000  Uiso   1.00
N685   N     0.32800   0.69506   0.80236   0.00000  Uiso   1.00
N686   N     0.70257   0.75371   0.75497   0.00000  Uiso   1.00
N687   N     0.84643   0.50727   0.90460   0.00000  Uiso   1.00
N688   N     0.32299   0.84454   0.81851   0.00000  Uiso   1.00
N689   N     0.69757   0.90318   0.77111   0.00000  Uiso   1.00
N690   N     0.84142   0.65674   0.92075   0.00000  Uiso   1.00
C691   C     0.45949   0.13885   0.31923   0.00000  Uiso   1.00
C692   C     0.55983   0.19086   0.31853   0.00000  Uiso   1.00
C693   C     0.64698   0.15134   0.30894   0.00000  Uiso   1.00
C694   C     0.73093   0.21074   0.31004   0.00000  Uiso   1.00
C695   C     0.88720   0.27701   0.30737   0.00000  Uiso   1.00
C696   C     0.38747   0.20703   0.30546   0.00000  Uiso   1.00
C697   C     0.32969   0.18110   0.28489   0.00000  Uiso   1.00
C698   C     0.26853   0.25412   0.27499   0.00000  Uiso   1.00
C699   C     0.15717   0.34546   0.25205   0.00000  Uiso   1.00
C700   C     0.42713   0.13911   0.34670   0.00000  Uiso   1.00
C701   C     0.40267   0.05607   0.36081   0.00000  Uiso   1.00
C702   C     0.37489   0.07191   0.38563   0.00000  Uiso   1.00
C703   C     0.32510   0.05779   0.42672   0.00000  Uiso   1.00
C704   C     0.45360   0.31463   0.33822   0.00000  Uiso   1.00
C705   C     0.55663   0.28634   0.32884   0.00000  Uiso   1.00
C706   C     0.64047   0.34582   0.32995   0.00000  Uiso   1.00
C707   C     0.72773   0.30639   0.32037   0.00000  Uiso   1.00
C708   C     0.38427   0.30251   0.31578   0.00000  Uiso   1.00
C709   C     0.32318   0.37558   0.30590   0.00000  Uiso   1.00
C710   C     0.26533   0.34976   0.28532   0.00000  Uiso   1.00
C711   C     0.42393   0.23459   0.35702   0.00000  Uiso   1.00
C712   C     0.39617   0.25055   0.38182   0.00000  Uiso   1.00
C713   C     0.37168   0.16755   0.39596   0.00000  Uiso   1.00
H714   H     0.46197   0.06452   0.31120   0.00000  Uiso   1.00
H715   H     0.64942   0.07745   0.30096   0.00000  Uiso   1.00
H716   H     0.33217   0.10720   0.27692   0.00000  Uiso   1.00
H717   H     0.40516   0.98220   0.35282   0.00000  Uiso   1.00
H718   H     0.85582   0.13391   0.29415   0.00000  Uiso   1.00
H719   H     0.18687   0.19664   0.24346   0.00000  Uiso   1.00
H720   H     0.34076   0.93304   0.40352   0.00000  Uiso   1.00
H721   H     0.45111   0.38896   0.34625   0.00000  Uiso   1.00
H722   H     0.63797   0.41970   0.33793   0.00000  Uiso   1.00
H723   H     0.32072   0.44945   0.31389   0.00000  Uiso   1.00
H724   H     0.39370   0.32445   0.38979   0.00000  Uiso   1.00
H725   H     0.84653   0.41170   0.32416   0.00000  Uiso   1.00
H726   H     0.17757   0.47442   0.27347   0.00000  Uiso   1.00
H727   H     0.33146   0.21082   0.43352   0.00000  Uiso   1.00
O728   O     0.97428   0.28718   0.30305   0.00000  Uiso   1.00
O729   O     0.09663   0.36947   0.23655   0.00000  Uiso   1.00
O730   O     0.29854   0.02363   0.44653   0.00000  Uiso   1.00
N731   N     0.82800   0.19506   0.30236   0.00000  Uiso   1.00
N732   N     0.20257   0.25371   0.25497   0.00000  Uiso   1.00
N733   N     0.34643   0.00727   0.40460   0.00000  Uiso   1.00
N734   N     0.82299   0.34454   0.31851   0.00000  Uiso   1.00
N735   N     0.19757   0.40318   0.27111   0.00000  Uiso   1.00
N736   N     0.34142   0.15674   0.42075   0.00000  Uiso   1.00
