data_job_00534
_audit_creation_date              2018-12-19
_audit_creation_method            'Materials Studio'
_symmetry_space_group_name_H-M    'P1'
_symmetry_Int_Tables_number       1
_symmetry_cell_setting            triclinic
loop_
_symmetry_equiv_pos_as_xyz
  x,y,z
_cell_length_a                    35.5383
_cell_length_b                    24.6027
_cell_length_c                    10.4633
_cell_angle_alpha                 90.0000
_cell_angle_beta                  90.0000
_cell_angle_gamma                 90.0000
loop_
_atom_site_label
_atom_site_type_symbol
_atom_site_fract_x
_atom_site_fract_y
_atom_site_fract_z
_atom_site_U_iso_or_equiv
_atom_site_adp_type
_atom_site_occupancy
C1     C     0.67860   0.74037   0.64810   0.00000  Uiso   1.00
C2     C     0.69189   0.79799   0.67724   0.00000  Uiso   1.00
C3     C     0.72322   0.81174   0.74953   0.00000  Uiso   1.00
C4     C     0.73063   0.86675   0.76512   0.00000  Uiso   1.00
C5     C     0.75477   0.95016   0.81875   0.00000  Uiso   1.00
C6     C     0.63804   0.73718   0.69512   0.00000  Uiso   1.00
C7     C     0.62409   0.69979   0.78242   0.00000  Uiso   1.00
C8     C     0.58617   0.70361   0.81304   0.00000  Uiso   1.00
C9     C     0.52671   0.69259   0.89434   0.00000  Uiso   1.00
C10    C     0.67670   0.73615   0.50285   0.00000  Uiso   1.00
C11    C     0.69525   0.69788   0.42849   0.00000  Uiso   1.00
C12    C     0.68986   0.70082   0.29724   0.00000  Uiso   1.00
C13    C     0.69043   0.68820   0.08003   0.00000  Uiso   1.00
C14    C     0.63605   0.81362   0.54725   0.00000  Uiso   1.00
C15    C     0.66878   0.83777   0.62246   0.00000  Uiso   1.00
C16    C     0.67614   0.89278   0.63794   0.00000  Uiso   1.00
C17    C     0.70748   0.90660   0.71023   0.00000  Uiso   1.00
C18    C     0.61493   0.77696   0.64034   0.00000  Uiso   1.00
C19    C     0.57702   0.78084   0.67083   0.00000  Uiso   1.00
C20    C     0.56302   0.74347   0.75816   0.00000  Uiso   1.00
C21    C     0.65359   0.77593   0.44807   0.00000  Uiso   1.00
C22    C     0.64817   0.77893   0.31691   0.00000  Uiso   1.00
C23    C     0.66671   0.74068   0.24236   0.00000  Uiso   1.00
H24    H     0.69659   0.70940   0.69076   0.00000  Uiso   1.00
H25    H     0.74109   0.78093   0.79192   0.00000  Uiso   1.00
H26    H     0.64198   0.66901   0.82478   0.00000  Uiso   1.00
H27    H     0.71313   0.66710   0.47092   0.00000  Uiso   1.00
H28    H     0.78024   0.87779   0.87995   0.00000  Uiso   1.00
H29    H     0.57125   0.64178   0.94922   0.00000  Uiso   1.00
H30    H     0.72128   0.63776   0.20302   0.00000  Uiso   1.00
H31    H     0.61805   0.84460   0.50459   0.00000  Uiso   1.00
H32    H     0.65825   0.92356   0.59554   0.00000  Uiso   1.00
H33    H     0.55914   0.81163   0.62841   0.00000  Uiso   1.00
H34    H     0.63029   0.80972   0.27454   0.00000  Uiso   1.00
H35    H     0.71300   0.99355   0.72057   0.00000  Uiso   1.00
H36    H     0.50402   0.75753   0.78984   0.00000  Uiso   1.00
H37    H     0.65404   0.75351   0.04364   0.00000  Uiso   1.00
O38    O     0.77447   0.98517   0.86348   0.00000  Uiso   1.00
O39    O     0.50030   0.67552   0.95434   0.00000  Uiso   1.00
O40    O     0.69712   0.67025   0.97535   0.00000  Uiso   1.00
N41    N     0.75890   0.89420   0.82994   0.00000  Uiso   1.00
N42    N     0.56352   0.67354   0.89472   0.00000  Uiso   1.00
N43    N     0.70377   0.66978   0.19709   0.00000  Uiso   1.00
N44    N     0.72272   0.95649   0.74417   0.00000  Uiso   1.00
N45    N     0.52734   0.73583   0.80895   0.00000  Uiso   1.00
N46    N     0.66759   0.73206   0.11132   0.00000  Uiso   1.00
C47    C     0.67860   0.24037   0.14810   0.00000  Uiso   1.00
C48    C     0.69189   0.29799   0.17724   0.00000  Uiso   1.00
C49    C     0.72322   0.31174   0.24953   0.00000  Uiso   1.00
C50    C     0.73063   0.36675   0.26512   0.00000  Uiso   1.00
C51    C     0.75477   0.45016   0.31875   0.00000  Uiso   1.00
C52    C     0.63804   0.23718   0.19512   0.00000  Uiso   1.00
C53    C     0.62409   0.19979   0.28242   0.00000  Uiso   1.00
C54    C     0.58617   0.20361   0.31304   0.00000  Uiso   1.00
C55    C     0.52671   0.19259   0.39434   0.00000  Uiso   1.00
C56    C     0.67670   0.23615   0.00285   0.00000  Uiso   1.00
C57    C     0.69525   0.19788   0.92849   0.00000  Uiso   1.00
C58    C     0.68986   0.20082   0.79724   0.00000  Uiso   1.00
C59    C     0.69043   0.18820   0.58003   0.00000  Uiso   1.00
C60    C     0.63605   0.31362   0.04725   0.00000  Uiso   1.00
C61    C     0.66878   0.33777   0.12246   0.00000  Uiso   1.00
C62    C     0.67614   0.39278   0.13794   0.00000  Uiso   1.00
C63    C     0.70748   0.40660   0.21023   0.00000  Uiso   1.00
C64    C     0.61493   0.27696   0.14034   0.00000  Uiso   1.00
C65    C     0.57702   0.28084   0.17083   0.00000  Uiso   1.00
C66    C     0.56302   0.24347   0.25816   0.00000  Uiso   1.00
C67    C     0.65359   0.27593   0.94807   0.00000  Uiso   1.00
C68    C     0.64817   0.27893   0.81691   0.00000  Uiso   1.00
C69    C     0.66671   0.24068   0.74236   0.00000  Uiso   1.00
H70    H     0.69659   0.20940   0.19076   0.00000  Uiso   1.00
H71    H     0.74109   0.28093   0.29192   0.00000  Uiso   1.00
H72    H     0.64198   0.16901   0.32478   0.00000  Uiso   1.00
H73    H     0.71313   0.16710   0.97092   0.00000  Uiso   1.00
H74    H     0.78024   0.37779   0.37995   0.00000  Uiso   1.00
H75    H     0.57125   0.14178   0.44922   0.00000  Uiso   1.00
H76    H     0.72128   0.13776   0.70302   0.00000  Uiso   1.00
H77    H     0.61805   0.34460   0.00459   0.00000  Uiso   1.00
H78    H     0.65825   0.42356   0.09554   0.00000  Uiso   1.00
H79    H     0.55914   0.31163   0.12841   0.00000  Uiso   1.00
H80    H     0.63029   0.30972   0.77454   0.00000  Uiso   1.00
H81    H     0.71300   0.49355   0.22057   0.00000  Uiso   1.00
H82    H     0.50402   0.25753   0.28984   0.00000  Uiso   1.00
H83    H     0.65404   0.25351   0.54364   0.00000  Uiso   1.00
O84    O     0.77447   0.48517   0.36348   0.00000  Uiso   1.00
O85    O     0.50030   0.17552   0.45434   0.00000  Uiso   1.00
O86    O     0.69712   0.17025   0.47535   0.00000  Uiso   1.00
N87    N     0.75890   0.39420   0.32994   0.00000  Uiso   1.00
N88    N     0.56352   0.17354   0.39472   0.00000  Uiso   1.00
N89    N     0.70377   0.16978   0.69709   0.00000  Uiso   1.00
N90    N     0.72272   0.45649   0.24417   0.00000  Uiso   1.00
N91    N     0.52734   0.23583   0.30895   0.00000  Uiso   1.00
N92    N     0.66759   0.23206   0.61132   0.00000  Uiso   1.00
C93    C     0.17860   0.74037   0.14810   0.00000  Uiso   1.00
C94    C     0.19189   0.79799   0.17724   0.00000  Uiso   1.00
C95    C     0.22322   0.81174   0.24953   0.00000  Uiso   1.00
C96    C     0.23063   0.86675   0.26512   0.00000  Uiso   1.00
C97    C     0.25477   0.95016   0.31875   0.00000  Uiso   1.00
C98    C     0.13804   0.73718   0.19512   0.00000  Uiso   1.00
C99    C     0.12409   0.69979   0.28242   0.00000  Uiso   1.00
C100   C     0.08617   0.70361   0.31304   0.00000  Uiso   1.00
C101   C     0.02671   0.69259   0.39434   0.00000  Uiso   1.00
C102   C     0.17670   0.73615   0.00285   0.00000  Uiso   1.00
C103   C     0.19525   0.69788   0.92849   0.00000  Uiso   1.00
C104   C     0.18986   0.70082   0.79724   0.00000  Uiso   1.00
C105   C     0.19043   0.68820   0.58003   0.00000  Uiso   1.00
C106   C     0.13605   0.81362   0.04725   0.00000  Uiso   1.00
C107   C     0.16878   0.83777   0.12246   0.00000  Uiso   1.00
C108   C     0.17614   0.89278   0.13794   0.00000  Uiso   1.00
C109   C     0.20748   0.90660   0.21023   0.00000  Uiso   1.00
C110   C     0.11493   0.77696   0.14034   0.00000  Uiso   1.00
C111   C     0.07702   0.78084   0.17083   0.00000  Uiso   1.00
C112   C     0.06302   0.74347   0.25816   0.00000  Uiso   1.00
C113   C     0.15359   0.77593   0.94807   0.00000  Uiso   1.00
C114   C     0.14817   0.77893   0.81691   0.00000  Uiso   1.00
C115   C     0.16671   0.74068   0.74236   0.00000  Uiso   1.00
H116   H     0.19659   0.70940   0.19076   0.00000  Uiso   1.00
H117   H     0.24109   0.78093   0.29192   0.00000  Uiso   1.00
H118   H     0.14198   0.66901   0.32478   0.00000  Uiso   1.00
H119   H     0.21313   0.66710   0.97092   0.00000  Uiso   1.00
H120   H     0.28024   0.87779   0.37995   0.00000  Uiso   1.00
H121   H     0.07125   0.64178   0.44922   0.00000  Uiso   1.00
H122   H     0.22128   0.63776   0.70302   0.00000  Uiso   1.00
H123   H     0.11805   0.84460   0.00459   0.00000  Uiso   1.00
H124   H     0.15825   0.92356   0.09554   0.00000  Uiso   1.00
H125   H     0.05914   0.81163   0.12841   0.00000  Uiso   1.00
H126   H     0.13029   0.80972   0.77454   0.00000  Uiso   1.00
H127   H     0.21300   0.99355   0.22057   0.00000  Uiso   1.00
H128   H     0.00402   0.75753   0.28984   0.00000  Uiso   1.00
H129   H     0.15404   0.75351   0.54364   0.00000  Uiso   1.00
O130   O     0.27447   0.98517   0.36348   0.00000  Uiso   1.00
O131   O     0.00030   0.67552   0.45434   0.00000  Uiso   1.00
O132   O     0.19712   0.67025   0.47535   0.00000  Uiso   1.00
N133   N     0.25890   0.89420   0.32994   0.00000  Uiso   1.00
N134   N     0.06352   0.67354   0.39472   0.00000  Uiso   1.00
N135   N     0.20377   0.66978   0.69709   0.00000  Uiso   1.00
N136   N     0.22272   0.95649   0.24417   0.00000  Uiso   1.00
N137   N     0.02734   0.73583   0.30895   0.00000  Uiso   1.00
N138   N     0.16759   0.73206   0.61132   0.00000  Uiso   1.00
C139   C     0.17860   0.24037   0.64810   0.00000  Uiso   1.00
C140   C     0.19189   0.29799   0.67724   0.00000  Uiso   1.00
C141   C     0.22322   0.31174   0.74953   0.00000  Uiso   1.00
C142   C     0.23063   0.36675   0.76512   0.00000  Uiso   1.00
C143   C     0.25477   0.45016   0.81875   0.00000  Uiso   1.00
C144   C     0.13804   0.23718   0.69512   0.00000  Uiso   1.00
C145   C     0.12409   0.19979   0.78242   0.00000  Uiso   1.00
C146   C     0.08617   0.20361   0.81304   0.00000  Uiso   1.00
C147   C     0.02671   0.19259   0.89434   0.00000  Uiso   1.00
C148   C     0.17670   0.23615   0.50285   0.00000  Uiso   1.00
C149   C     0.19525   0.19788   0.42849   0.00000  Uiso   1.00
C150   C     0.18986   0.20082   0.29724   0.00000  Uiso   1.00
C151   C     0.19043   0.18820   0.08003   0.00000  Uiso   1.00
C152   C     0.13605   0.31362   0.54725   0.00000  Uiso   1.00
C153   C     0.16878   0.33777   0.62246   0.00000  Uiso   1.00
C154   C     0.17614   0.39278   0.63794   0.00000  Uiso   1.00
C155   C     0.20748   0.40660   0.71023   0.00000  Uiso   1.00
C156   C     0.11493   0.27696   0.64034   0.00000  Uiso   1.00
C157   C     0.07702   0.28084   0.67083   0.00000  Uiso   1.00
C158   C     0.06302   0.24347   0.75816   0.00000  Uiso   1.00
C159   C     0.15359   0.27593   0.44807   0.00000  Uiso   1.00
C160   C     0.14817   0.27893   0.31691   0.00000  Uiso   1.00
C161   C     0.16671   0.24068   0.24236   0.00000  Uiso   1.00
H162   H     0.19659   0.20940   0.69076   0.00000  Uiso   1.00
H163   H     0.24109   0.28093   0.79192   0.00000  Uiso   1.00
H164   H     0.14198   0.16901   0.82478   0.00000  Uiso   1.00
H165   H     0.21313   0.16710   0.47092   0.00000  Uiso   1.00
H166   H     0.28024   0.37779   0.87995   0.00000  Uiso   1.00
H167   H     0.07125   0.14178   0.94922   0.00000  Uiso   1.00
H168   H     0.22128   0.13776   0.20302   0.00000  Uiso   1.00
H169   H     0.11805   0.34460   0.50459   0.00000  Uiso   1.00
H170   H     0.15825   0.42356   0.59554   0.00000  Uiso   1.00
H171   H     0.05914   0.31163   0.62841   0.00000  Uiso   1.00
H172   H     0.13029   0.30972   0.27454   0.00000  Uiso   1.00
H173   H     0.21300   0.49355   0.72057   0.00000  Uiso   1.00
H174   H     0.00402   0.25753   0.78984   0.00000  Uiso   1.00
H175   H     0.15404   0.25351   0.04364   0.00000  Uiso   1.00
O176   O     0.27447   0.48517   0.86348   0.00000  Uiso   1.00
O177   O     0.00030   0.17552   0.95434   0.00000  Uiso   1.00
O178   O     0.19712   0.17025   0.97535   0.00000  Uiso   1.00
N179   N     0.25890   0.39420   0.82994   0.00000  Uiso   1.00
N180   N     0.06352   0.17354   0.89472   0.00000  Uiso   1.00
N181   N     0.20377   0.16978   0.19709   0.00000  Uiso   1.00
N182   N     0.22272   0.45649   0.74417   0.00000  Uiso   1.00
N183   N     0.02734   0.23583   0.80895   0.00000  Uiso   1.00
N184   N     0.16759   0.23206   0.11132   0.00000  Uiso   1.00
C185   C     0.32140   0.25963   0.64810   0.00000  Uiso   1.00
C186   C     0.30811   0.20201   0.67724   0.00000  Uiso   1.00
C187   C     0.27678   0.18826   0.74953   0.00000  Uiso   1.00
C188   C     0.26937   0.13325   0.76512   0.00000  Uiso   1.00
C189   C     0.24523   0.04984   0.81875   0.00000  Uiso   1.00
C190   C     0.36196   0.26282   0.69512   0.00000  Uiso   1.00
C191   C     0.37591   0.30021   0.78242   0.00000  Uiso   1.00
C192   C     0.41383   0.29639   0.81304   0.00000  Uiso   1.00
C193   C     0.47329   0.30741   0.89434   0.00000  Uiso   1.00
C194   C     0.32330   0.26385   0.50285   0.00000  Uiso   1.00
C195   C     0.30475   0.30212   0.42849   0.00000  Uiso   1.00
C196   C     0.31014   0.29918   0.29724   0.00000  Uiso   1.00
C197   C     0.30957   0.31180   0.08003   0.00000  Uiso   1.00
C198   C     0.36395   0.18638   0.54725   0.00000  Uiso   1.00
C199   C     0.33122   0.16223   0.62246   0.00000  Uiso   1.00
C200   C     0.32386   0.10722   0.63794   0.00000  Uiso   1.00
C201   C     0.29252   0.09340   0.71023   0.00000  Uiso   1.00
C202   C     0.38507   0.22304   0.64034   0.00000  Uiso   1.00
C203   C     0.42298   0.21916   0.67083   0.00000  Uiso   1.00
C204   C     0.43698   0.25653   0.75816   0.00000  Uiso   1.00
C205   C     0.34641   0.22407   0.44807   0.00000  Uiso   1.00
C206   C     0.35183   0.22107   0.31691   0.00000  Uiso   1.00
C207   C     0.33329   0.25932   0.24236   0.00000  Uiso   1.00
H208   H     0.30341   0.29060   0.69076   0.00000  Uiso   1.00
H209   H     0.25891   0.21907   0.79192   0.00000  Uiso   1.00
H210   H     0.35802   0.33099   0.82478   0.00000  Uiso   1.00
H211   H     0.28687   0.33290   0.47092   0.00000  Uiso   1.00
H212   H     0.21976   0.12221   0.87995   0.00000  Uiso   1.00
H213   H     0.42875   0.35822   0.94922   0.00000  Uiso   1.00
H214   H     0.27872   0.36224   0.20302   0.00000  Uiso   1.00
H215   H     0.38195   0.15540   0.50459   0.00000  Uiso   1.00
H216   H     0.34175   0.07644   0.59554   0.00000  Uiso   1.00
H217   H     0.44086   0.18837   0.62841   0.00000  Uiso   1.00
H218   H     0.36971   0.19028   0.27454   0.00000  Uiso   1.00
H219   H     0.28700   0.00645   0.72057   0.00000  Uiso   1.00
H220   H     0.49598   0.24247   0.78984   0.00000  Uiso   1.00
H221   H     0.34596   0.24649   0.04364   0.00000  Uiso   1.00
O222   O     0.22553   0.01483   0.86348   0.00000  Uiso   1.00
O223   O     0.49970   0.32448   0.95434   0.00000  Uiso   1.00
O224   O     0.30288   0.32975   0.97535   0.00000  Uiso   1.00
N225   N     0.24110   0.10580   0.82994   0.00000  Uiso   1.00
N226   N     0.43648   0.32646   0.89472   0.00000  Uiso   1.00
N227   N     0.29623   0.33022   0.19709   0.00000  Uiso   1.00
N228   N     0.27728   0.04351   0.74417   0.00000  Uiso   1.00
N229   N     0.47266   0.26417   0.80895   0.00000  Uiso   1.00
N230   N     0.33241   0.26794   0.11132   0.00000  Uiso   1.00
C231   C     0.32140   0.75963   0.14810   0.00000  Uiso   1.00
C232   C     0.30811   0.70201   0.17724   0.00000  Uiso   1.00
C233   C     0.27678   0.68826   0.24953   0.00000  Uiso   1.00
C234   C     0.26937   0.63325   0.26512   0.00000  Uiso   1.00
C235   C     0.24523   0.54984   0.31875   0.00000  Uiso   1.00
C236   C     0.36196   0.76282   0.19512   0.00000  Uiso   1.00
C237   C     0.37591   0.80021   0.28242   0.00000  Uiso   1.00
C238   C     0.41383   0.79639   0.31304   0.00000  Uiso   1.00
C239   C     0.47329   0.80741   0.39434   0.00000  Uiso   1.00
C240   C     0.32330   0.76385   0.00285   0.00000  Uiso   1.00
C241   C     0.30475   0.80212   0.92849   0.00000  Uiso   1.00
C242   C     0.31014   0.79918   0.79724   0.00000  Uiso   1.00
C243   C     0.30957   0.81180   0.58003   0.00000  Uiso   1.00
C244   C     0.36395   0.68638   0.04725   0.00000  Uiso   1.00
C245   C     0.33122   0.66223   0.12246   0.00000  Uiso   1.00
C246   C     0.32386   0.60722   0.13794   0.00000  Uiso   1.00
C247   C     0.29252   0.59340   0.21023   0.00000  Uiso   1.00
C248   C     0.38507   0.72304   0.14034   0.00000  Uiso   1.00
C249   C     0.42298   0.71916   0.17083   0.00000  Uiso   1.00
C250   C     0.43698   0.75653   0.25816   0.00000  Uiso   1.00
C251   C     0.34641   0.72407   0.94807   0.00000  Uiso   1.00
C252   C     0.35183   0.72107   0.81691   0.00000  Uiso   1.00
C253   C     0.33329   0.75932   0.74236   0.00000  Uiso   1.00
H254   H     0.30341   0.79060   0.19076   0.00000  Uiso   1.00
H255   H     0.25891   0.71907   0.29192   0.00000  Uiso   1.00
H256   H     0.35802   0.83099   0.32478   0.00000  Uiso   1.00
H257   H     0.28687   0.83290   0.97092   0.00000  Uiso   1.00
H258   H     0.21976   0.62221   0.37995   0.00000  Uiso   1.00
H259   H     0.42875   0.85822   0.44922   0.00000  Uiso   1.00
H260   H     0.27872   0.86224   0.70302   0.00000  Uiso   1.00
H261   H     0.38195   0.65540   0.00459   0.00000  Uiso   1.00
H262   H     0.34175   0.57644   0.09554   0.00000  Uiso   1.00
H263   H     0.44086   0.68837   0.12841   0.00000  Uiso   1.00
H264   H     0.36971   0.69028   0.77454   0.00000  Uiso   1.00
H265   H     0.28700   0.50645   0.22057   0.00000  Uiso   1.00
H266   H     0.49598   0.74247   0.28984   0.00000  Uiso   1.00
H267   H     0.34596   0.74649   0.54364   0.00000  Uiso   1.00
O268   O     0.22553   0.51483   0.36348   0.00000  Uiso   1.00
O269   O     0.49970   0.82448   0.45434   0.00000  Uiso   1.00
O270   O     0.30288   0.82975   0.47535   0.00000  Uiso   1.00
N271   N     0.24110   0.60580   0.32994   0.00000  Uiso   1.00
N272   N     0.43648   0.82646   0.39472   0.00000  Uiso   1.00
N273   N     0.29623   0.83022   0.69709   0.00000  Uiso   1.00
N274   N     0.27728   0.54351   0.24417   0.00000  Uiso   1.00
N275   N     0.47266   0.76417   0.30895   0.00000  Uiso   1.00
N276   N     0.33241   0.76794   0.61132   0.00000  Uiso   1.00
C277   C     0.82140   0.25963   0.14810   0.00000  Uiso   1.00
C278   C     0.80811   0.20201   0.17724   0.00000  Uiso   1.00
C279   C     0.77678   0.18826   0.24953   0.00000  Uiso   1.00
C280   C     0.76937   0.13325   0.26512   0.00000  Uiso   1.00
C281   C     0.74523   0.04984   0.31875   0.00000  Uiso   1.00
C282   C     0.86196   0.26282   0.19512   0.00000  Uiso   1.00
C283   C     0.87591   0.30021   0.28242   0.00000  Uiso   1.00
C284   C     0.91383   0.29639   0.31304   0.00000  Uiso   1.00
C285   C     0.97329   0.30741   0.39434   0.00000  Uiso   1.00
C286   C     0.82330   0.26385   0.00285   0.00000  Uiso   1.00
C287   C     0.80475   0.30212   0.92849   0.00000  Uiso   1.00
C288   C     0.81014   0.29918   0.79724   0.00000  Uiso   1.00
C289   C     0.80957   0.31180   0.58003   0.00000  Uiso   1.00
C290   C     0.86395   0.18638   0.04725   0.00000  Uiso   1.00
C291   C     0.83122   0.16223   0.12246   0.00000  Uiso   1.00
C292   C     0.82386   0.10722   0.13794   0.00000  Uiso   1.00
C293   C     0.79252   0.09340   0.21023   0.00000  Uiso   1.00
C294   C     0.88507   0.22304   0.14034   0.00000  Uiso   1.00
C295   C     0.92298   0.21916   0.17083   0.00000  Uiso   1.00
C296   C     0.93698   0.25653   0.25816   0.00000  Uiso   1.00
C297   C     0.84641   0.22407   0.94807   0.00000  Uiso   1.00
C298   C     0.85183   0.22107   0.81691   0.00000  Uiso   1.00
C299   C     0.83329   0.25932   0.74236   0.00000  Uiso   1.00
H300   H     0.80341   0.29060   0.19076   0.00000  Uiso   1.00
H301   H     0.75891   0.21907   0.29192   0.00000  Uiso   1.00
H302   H     0.85802   0.33099   0.32478   0.00000  Uiso   1.00
H303   H     0.78687   0.33290   0.97092   0.00000  Uiso   1.00
H304   H     0.71976   0.12221   0.37995   0.00000  Uiso   1.00
H305   H     0.92875   0.35822   0.44922   0.00000  Uiso   1.00
H306   H     0.77872   0.36224   0.70302   0.00000  Uiso   1.00
H307   H     0.88195   0.15540   0.00459   0.00000  Uiso   1.00
H308   H     0.84175   0.07644   0.09554   0.00000  Uiso   1.00
H309   H     0.94086   0.18837   0.12841   0.00000  Uiso   1.00
H310   H     0.86971   0.19028   0.77454   0.00000  Uiso   1.00
H311   H     0.78700   0.00645   0.22057   0.00000  Uiso   1.00
H312   H     0.99598   0.24247   0.28984   0.00000  Uiso   1.00
H313   H     0.84596   0.24649   0.54364   0.00000  Uiso   1.00
O314   O     0.72553   0.01483   0.36348   0.00000  Uiso   1.00
O315   O     0.99970   0.32448   0.45434   0.00000  Uiso   1.00
O316   O     0.80288   0.32975   0.47535   0.00000  Uiso   1.00
N317   N     0.74110   0.10580   0.32994   0.00000  Uiso   1.00
N318   N     0.93648   0.32646   0.39472   0.00000  Uiso   1.00
N319   N     0.79623   0.33022   0.69709   0.00000  Uiso   1.00
N320   N     0.77728   0.04351   0.24417   0.00000  Uiso   1.00
N321   N     0.97266   0.26417   0.30895   0.00000  Uiso   1.00
N322   N     0.83241   0.26794   0.61132   0.00000  Uiso   1.00
C323   C     0.82140   0.75963   0.64810   0.00000  Uiso   1.00
C324   C     0.80811   0.70201   0.67724   0.00000  Uiso   1.00
C325   C     0.77678   0.68826   0.74953   0.00000  Uiso   1.00
C326   C     0.76937   0.63325   0.76512   0.00000  Uiso   1.00
C327   C     0.74523   0.54984   0.81875   0.00000  Uiso   1.00
C328   C     0.86196   0.76282   0.69512   0.00000  Uiso   1.00
C329   C     0.87591   0.80021   0.78242   0.00000  Uiso   1.00
C330   C     0.91383   0.79639   0.81304   0.00000  Uiso   1.00
C331   C     0.97329   0.80741   0.89434   0.00000  Uiso   1.00
C332   C     0.82330   0.76385   0.50285   0.00000  Uiso   1.00
C333   C     0.80475   0.80212   0.42849   0.00000  Uiso   1.00
C334   C     0.81014   0.79918   0.29724   0.00000  Uiso   1.00
C335   C     0.80957   0.81180   0.08003   0.00000  Uiso   1.00
C336   C     0.86395   0.68638   0.54725   0.00000  Uiso   1.00
C337   C     0.83122   0.66223   0.62246   0.00000  Uiso   1.00
C338   C     0.82386   0.60722   0.63794   0.00000  Uiso   1.00
C339   C     0.79252   0.59340   0.71023   0.00000  Uiso   1.00
C340   C     0.88507   0.72304   0.64034   0.00000  Uiso   1.00
C341   C     0.92298   0.71916   0.67083   0.00000  Uiso   1.00
C342   C     0.93698   0.75653   0.75816   0.00000  Uiso   1.00
C343   C     0.84641   0.72407   0.44807   0.00000  Uiso   1.00
C344   C     0.85183   0.72107   0.31691   0.00000  Uiso   1.00
C345   C     0.83329   0.75932   0.24236   0.00000  Uiso   1.00
H346   H     0.80341   0.79060   0.69076   0.00000  Uiso   1.00
H347   H     0.75891   0.71907   0.79192   0.00000  Uiso   1.00
H348   H     0.85802   0.83099   0.82478   0.00000  Uiso   1.00
H349   H     0.78687   0.83290   0.47092   0.00000  Uiso   1.00
H350   H     0.71976   0.62221   0.87995   0.00000  Uiso   1.00
H351   H     0.92875   0.85822   0.94922   0.00000  Uiso   1.00
H352   H     0.77872   0.86224   0.20302   0.00000  Uiso   1.00
H353   H     0.88195   0.65540   0.50459   0.00000  Uiso   1.00
H354   H     0.84175   0.57644   0.59554   0.00000  Uiso   1.00
H355   H     0.94086   0.68837   0.62841   0.00000  Uiso   1.00
H356   H     0.86971   0.69028   0.27454   0.00000  Uiso   1.00
H357   H     0.78700   0.50645   0.72057   0.00000  Uiso   1.00
H358   H     0.99598   0.74247   0.78984   0.00000  Uiso   1.00
H359   H     0.84596   0.74649   0.04364   0.00000  Uiso   1.00
O360   O     0.72553   0.51483   0.86348   0.00000  Uiso   1.00
O361   O     0.99970   0.82448   0.95434   0.00000  Uiso   1.00
O362   O     0.80288   0.82975   0.97535   0.00000  Uiso   1.00
N363   N     0.74110   0.60580   0.82994   0.00000  Uiso   1.00
N364   N     0.93648   0.82646   0.89472   0.00000  Uiso   1.00
N365   N     0.79623   0.83022   0.19709   0.00000  Uiso   1.00
N366   N     0.77728   0.54351   0.74417   0.00000  Uiso   1.00
N367   N     0.97266   0.76417   0.80895   0.00000  Uiso   1.00
N368   N     0.83241   0.76794   0.11132   0.00000  Uiso   1.00
C369   C     0.92860   0.50963   0.89810   0.00000  Uiso   1.00
C370   C     0.94189   0.45201   0.92724   0.00000  Uiso   1.00
C371   C     0.97322   0.43826   0.99953   0.00000  Uiso   1.00
C372   C     0.98063   0.38325   0.01512   0.00000  Uiso   1.00
C373   C     0.00477   0.29984   0.06875   0.00000  Uiso   1.00
C374   C     0.88804   0.51282   0.94512   0.00000  Uiso   1.00
C375   C     0.87409   0.55021   0.03242   0.00000  Uiso   1.00
C376   C     0.83617   0.54639   0.06304   0.00000  Uiso   1.00
C377   C     0.77671   0.55741   0.14434   0.00000  Uiso   1.00
C378   C     0.92670   0.51385   0.75285   0.00000  Uiso   1.00
C379   C     0.94525   0.55212   0.67849   0.00000  Uiso   1.00
C380   C     0.93986   0.54918   0.54724   0.00000  Uiso   1.00
C381   C     0.94043   0.56180   0.33003   0.00000  Uiso   1.00
C382   C     0.88605   0.43638   0.79725   0.00000  Uiso   1.00
C383   C     0.91878   0.41223   0.87246   0.00000  Uiso   1.00
C384   C     0.92614   0.35722   0.88794   0.00000  Uiso   1.00
C385   C     0.95748   0.34340   0.96023   0.00000  Uiso   1.00
C386   C     0.86493   0.47304   0.89034   0.00000  Uiso   1.00
C387   C     0.82702   0.46916   0.92083   0.00000  Uiso   1.00
C388   C     0.81302   0.50653   0.00816   0.00000  Uiso   1.00
C389   C     0.90359   0.47407   0.69807   0.00000  Uiso   1.00
C390   C     0.89817   0.47107   0.56691   0.00000  Uiso   1.00
C391   C     0.91671   0.50932   0.49236   0.00000  Uiso   1.00
H392   H     0.94659   0.54060   0.94076   0.00000  Uiso   1.00
H393   H     0.99109   0.46907   0.04192   0.00000  Uiso   1.00
H394   H     0.89198   0.58099   0.07478   0.00000  Uiso   1.00
H395   H     0.96313   0.58290   0.72092   0.00000  Uiso   1.00
H396   H     0.03024   0.37221   0.12995   0.00000  Uiso   1.00
H397   H     0.82125   0.60822   0.19922   0.00000  Uiso   1.00
H398   H     0.97128   0.61224   0.45302   0.00000  Uiso   1.00
H399   H     0.86805   0.40540   0.75459   0.00000  Uiso   1.00
H400   H     0.90825   0.32644   0.84554   0.00000  Uiso   1.00
H401   H     0.80914   0.43837   0.87841   0.00000  Uiso   1.00
H402   H     0.88029   0.44028   0.52454   0.00000  Uiso   1.00
H403   H     0.96300   0.25645   0.97057   0.00000  Uiso   1.00
H404   H     0.75402   0.49247   0.03984   0.00000  Uiso   1.00
H405   H     0.90404   0.49649   0.29364   0.00000  Uiso   1.00
O406   O     0.02447   0.26483   0.11348   0.00000  Uiso   1.00
O407   O     0.75030   0.57448   0.20434   0.00000  Uiso   1.00
O408   O     0.94712   0.57975   0.22535   0.00000  Uiso   1.00
N409   N     0.00890   0.35580   0.07994   0.00000  Uiso   1.00
N410   N     0.81352   0.57646   0.14472   0.00000  Uiso   1.00
N411   N     0.95377   0.58022   0.44709   0.00000  Uiso   1.00
N412   N     0.97272   0.29351   0.99417   0.00000  Uiso   1.00
N413   N     0.77734   0.51417   0.05895   0.00000  Uiso   1.00
N414   N     0.91759   0.51794   0.36132   0.00000  Uiso   1.00
C415   C     0.92860   0.00963   0.39810   0.00000  Uiso   1.00
C416   C     0.94189   0.95201   0.42724   0.00000  Uiso   1.00
C417   C     0.97322   0.93826   0.49953   0.00000  Uiso   1.00
C418   C     0.98063   0.88325   0.51512   0.00000  Uiso   1.00
C419   C     0.00477   0.79984   0.56875   0.00000  Uiso   1.00
C420   C     0.88804   0.01282   0.44512   0.00000  Uiso   1.00
C421   C     0.87409   0.05021   0.53242   0.00000  Uiso   1.00
C422   C     0.83617   0.04639   0.56304   0.00000  Uiso   1.00
C423   C     0.77671   0.05741   0.64434   0.00000  Uiso   1.00
C424   C     0.92670   0.01385   0.25285   0.00000  Uiso   1.00
C425   C     0.94525   0.05212   0.17849   0.00000  Uiso   1.00
C426   C     0.93986   0.04918   0.04724   0.00000  Uiso   1.00
C427   C     0.94043   0.06180   0.83003   0.00000  Uiso   1.00
C428   C     0.88605   0.93638   0.29725   0.00000  Uiso   1.00
C429   C     0.91878   0.91223   0.37246   0.00000  Uiso   1.00
C430   C     0.92614   0.85722   0.38794   0.00000  Uiso   1.00
C431   C     0.95748   0.84340   0.46023   0.00000  Uiso   1.00
C432   C     0.86493   0.97304   0.39034   0.00000  Uiso   1.00
C433   C     0.82702   0.96916   0.42083   0.00000  Uiso   1.00
C434   C     0.81302   0.00653   0.50816   0.00000  Uiso   1.00
C435   C     0.90359   0.97407   0.19807   0.00000  Uiso   1.00
C436   C     0.89817   0.97107   0.06691   0.00000  Uiso   1.00
C437   C     0.91671   0.00932   0.99236   0.00000  Uiso   1.00
H438   H     0.94659   0.04060   0.44076   0.00000  Uiso   1.00
H439   H     0.99109   0.96907   0.54192   0.00000  Uiso   1.00
H440   H     0.89198   0.08099   0.57478   0.00000  Uiso   1.00
H441   H     0.96313   0.08290   0.22092   0.00000  Uiso   1.00
H442   H     0.03024   0.87221   0.62995   0.00000  Uiso   1.00
H443   H     0.82125   0.10822   0.69922   0.00000  Uiso   1.00
H444   H     0.97128   0.11224   0.95302   0.00000  Uiso   1.00
H445   H     0.86805   0.90540   0.25459   0.00000  Uiso   1.00
H446   H     0.90825   0.82644   0.34554   0.00000  Uiso   1.00
H447   H     0.80914   0.93837   0.37841   0.00000  Uiso   1.00
H448   H     0.88029   0.94028   0.02454   0.00000  Uiso   1.00
H449   H     0.96300   0.75645   0.47057   0.00000  Uiso   1.00
H450   H     0.75402   0.99247   0.53984   0.00000  Uiso   1.00
H451   H     0.90404   0.99649   0.79364   0.00000  Uiso   1.00
O452   O     0.02447   0.76483   0.61348   0.00000  Uiso   1.00
O453   O     0.75030   0.07448   0.70434   0.00000  Uiso   1.00
O454   O     0.94712   0.07975   0.72535   0.00000  Uiso   1.00
N455   N     0.00890   0.85580   0.57994   0.00000  Uiso   1.00
N456   N     0.81352   0.07646   0.64472   0.00000  Uiso   1.00
N457   N     0.95377   0.08022   0.94709   0.00000  Uiso   1.00
N458   N     0.97272   0.79351   0.49417   0.00000  Uiso   1.00
N459   N     0.77734   0.01417   0.55895   0.00000  Uiso   1.00
N460   N     0.91759   0.01794   0.86132   0.00000  Uiso   1.00
C461   C     0.42860   0.50963   0.39810   0.00000  Uiso   1.00
C462   C     0.44189   0.45201   0.42724   0.00000  Uiso   1.00
C463   C     0.47322   0.43826   0.49953   0.00000  Uiso   1.00
C464   C     0.48063   0.38325   0.51512   0.00000  Uiso   1.00
C465   C     0.50477   0.29984   0.56875   0.00000  Uiso   1.00
C466   C     0.38804   0.51282   0.44512   0.00000  Uiso   1.00
C467   C     0.37409   0.55021   0.53242   0.00000  Uiso   1.00
C468   C     0.33617   0.54639   0.56304   0.00000  Uiso   1.00
C469   C     0.27671   0.55741   0.64434   0.00000  Uiso   1.00
C470   C     0.42670   0.51385   0.25285   0.00000  Uiso   1.00
C471   C     0.44525   0.55212   0.17849   0.00000  Uiso   1.00
C472   C     0.43986   0.54918   0.04724   0.00000  Uiso   1.00
C473   C     0.44043   0.56180   0.83003   0.00000  Uiso   1.00
C474   C     0.38605   0.43638   0.29725   0.00000  Uiso   1.00
C475   C     0.41878   0.41223   0.37246   0.00000  Uiso   1.00
C476   C     0.42614   0.35722   0.38794   0.00000  Uiso   1.00
C477   C     0.45748   0.34340   0.46023   0.00000  Uiso   1.00
C478   C     0.36493   0.47304   0.39034   0.00000  Uiso   1.00
C479   C     0.32702   0.46916   0.42083   0.00000  Uiso   1.00
C480   C     0.31302   0.50653   0.50816   0.00000  Uiso   1.00
C481   C     0.40359   0.47407   0.19807   0.00000  Uiso   1.00
C482   C     0.39817   0.47107   0.06691   0.00000  Uiso   1.00
C483   C     0.41671   0.50932   0.99236   0.00000  Uiso   1.00
H484   H     0.44659   0.54060   0.44076   0.00000  Uiso   1.00
H485   H     0.49109   0.46907   0.54192   0.00000  Uiso   1.00
H486   H     0.39198   0.58099   0.57478   0.00000  Uiso   1.00
H487   H     0.46313   0.58290   0.22092   0.00000  Uiso   1.00
H488   H     0.53024   0.37221   0.62995   0.00000  Uiso   1.00
H489   H     0.32125   0.60822   0.69922   0.00000  Uiso   1.00
H490   H     0.47128   0.61224   0.95302   0.00000  Uiso   1.00
H491   H     0.36805   0.40540   0.25459   0.00000  Uiso   1.00
H492   H     0.40825   0.32644   0.34554   0.00000  Uiso   1.00
H493   H     0.30914   0.43837   0.37841   0.00000  Uiso   1.00
H494   H     0.38029   0.44028   0.02454   0.00000  Uiso   1.00
H495   H     0.46300   0.25645   0.47057   0.00000  Uiso   1.00
H496   H     0.25402   0.49247   0.53984   0.00000  Uiso   1.00
H497   H     0.40404   0.49649   0.79364   0.00000  Uiso   1.00
O498   O     0.52447   0.26483   0.61348   0.00000  Uiso   1.00
O499   O     0.25030   0.57448   0.70434   0.00000  Uiso   1.00
O500   O     0.44712   0.57975   0.72535   0.00000  Uiso   1.00
N501   N     0.50890   0.35580   0.57994   0.00000  Uiso   1.00
N502   N     0.31352   0.57646   0.64472   0.00000  Uiso   1.00
N503   N     0.45377   0.58022   0.94709   0.00000  Uiso   1.00
N504   N     0.47272   0.29351   0.49417   0.00000  Uiso   1.00
N505   N     0.27734   0.51417   0.55895   0.00000  Uiso   1.00
N506   N     0.41759   0.51794   0.86132   0.00000  Uiso   1.00
C507   C     0.42860   0.00963   0.89810   0.00000  Uiso   1.00
C508   C     0.44189   0.95201   0.92724   0.00000  Uiso   1.00
C509   C     0.47322   0.93826   0.99953   0.00000  Uiso   1.00
C510   C     0.48063   0.88325   0.01512   0.00000  Uiso   1.00
C511   C     0.50477   0.79984   0.06875   0.00000  Uiso   1.00
C512   C     0.38804   0.01282   0.94512   0.00000  Uiso   1.00
C513   C     0.37409   0.05021   0.03242   0.00000  Uiso   1.00
C514   C     0.33617   0.04639   0.06304   0.00000  Uiso   1.00
C515   C     0.27671   0.05741   0.14434   0.00000  Uiso   1.00
C516   C     0.42670   0.01385   0.75285   0.00000  Uiso   1.00
C517   C     0.44525   0.05212   0.67849   0.00000  Uiso   1.00
C518   C     0.43986   0.04918   0.54724   0.00000  Uiso   1.00
C519   C     0.44043   0.06180   0.33003   0.00000  Uiso   1.00
C520   C     0.38605   0.93638   0.79725   0.00000  Uiso   1.00
C521   C     0.41878   0.91223   0.87246   0.00000  Uiso   1.00
C522   C     0.42614   0.85722   0.88794   0.00000  Uiso   1.00
C523   C     0.45748   0.84340   0.96023   0.00000  Uiso   1.00
C524   C     0.36493   0.97304   0.89034   0.00000  Uiso   1.00
C525   C     0.32702   0.96916   0.92083   0.00000  Uiso   1.00
C526   C     0.31302   0.00653   0.00816   0.00000  Uiso   1.00
C527   C     0.40359   0.97407   0.69807   0.00000  Uiso   1.00
C528   C     0.39817   0.97107   0.56691   0.00000  Uiso   1.00
C529   C     0.41671   0.00932   0.49236   0.00000  Uiso   1.00
H530   H     0.44659   0.04060   0.94076   0.00000  Uiso   1.00
H531   H     0.49109   0.96907   0.04192   0.00000  Uiso   1.00
H532   H     0.39198   0.08099   0.07478   0.00000  Uiso   1.00
H533   H     0.46313   0.08290   0.72092   0.00000  Uiso   1.00
H534   H     0.53024   0.87221   0.12995   0.00000  Uiso   1.00
H535   H     0.32125   0.10822   0.19922   0.00000  Uiso   1.00
H536   H     0.47128   0.11224   0.45302   0.00000  Uiso   1.00
H537   H     0.36805   0.90540   0.75459   0.00000  Uiso   1.00
H538   H     0.40825   0.82644   0.84554   0.00000  Uiso   1.00
H539   H     0.30914   0.93837   0.87841   0.00000  Uiso   1.00
H540   H     0.38029   0.94028   0.52454   0.00000  Uiso   1.00
H541   H     0.46300   0.75645   0.97057   0.00000  Uiso   1.00
H542   H     0.25402   0.99247   0.03984   0.00000  Uiso   1.00
H543   H     0.40404   0.99649   0.29364   0.00000  Uiso   1.00
O544   O     0.52447   0.76483   0.11348   0.00000  Uiso   1.00
O545   O     0.25030   0.07448   0.20434   0.00000  Uiso   1.00
O546   O     0.44712   0.07975   0.22535   0.00000  Uiso   1.00
N547   N     0.50890   0.85580   0.07994   0.00000  Uiso   1.00
N548   N     0.31352   0.07646   0.14472   0.00000  Uiso   1.00
N549   N     0.45377   0.08022   0.44709   0.00000  Uiso   1.00
N550   N     0.47272   0.79351   0.99417   0.00000  Uiso   1.00
N551   N     0.27734   0.01417   0.05895   0.00000  Uiso   1.00
N552   N     0.41759   0.01794   0.36132   0.00000  Uiso   1.00
C553   C     0.57140   0.99037   0.89810   0.00000  Uiso   1.00
C554   C     0.55811   0.04799   0.92724   0.00000  Uiso   1.00
C555   C     0.52678   0.06174   0.99953   0.00000  Uiso   1.00
C556   C     0.51937   0.11675   0.01512   0.00000  Uiso   1.00
C557   C     0.49523   0.20016   0.06875   0.00000  Uiso   1.00
C558   C     0.61196   0.98718   0.94512   0.00000  Uiso   1.00
C559   C     0.62591   0.94979   0.03242   0.00000  Uiso   1.00
C560   C     0.66383   0.95361   0.06304   0.00000  Uiso   1.00
C561   C     0.72329   0.94259   0.14434   0.00000  Uiso   1.00
C562   C     0.57330   0.98615   0.75285   0.00000  Uiso   1.00
C563   C     0.55475   0.94788   0.67849   0.00000  Uiso   1.00
C564   C     0.56014   0.95082   0.54724   0.00000  Uiso   1.00
C565   C     0.55957   0.93820   0.33003   0.00000  Uiso   1.00
C566   C     0.61395   0.06362   0.79725   0.00000  Uiso   1.00
C567   C     0.58122   0.08777   0.87246   0.00000  Uiso   1.00
C568   C     0.57386   0.14278   0.88794   0.00000  Uiso   1.00
C569   C     0.54252   0.15660   0.96023   0.00000  Uiso   1.00
C570   C     0.63507   0.02696   0.89034   0.00000  Uiso   1.00
C571   C     0.67298   0.03084   0.92083   0.00000  Uiso   1.00
C572   C     0.68698   0.99347   0.00816   0.00000  Uiso   1.00
C573   C     0.59641   0.02593   0.69807   0.00000  Uiso   1.00
C574   C     0.60183   0.02893   0.56691   0.00000  Uiso   1.00
C575   C     0.58329   0.99068   0.49236   0.00000  Uiso   1.00
H576   H     0.55341   0.95940   0.94076   0.00000  Uiso   1.00
H577   H     0.50891   0.03093   0.04192   0.00000  Uiso   1.00
H578   H     0.60802   0.91901   0.07478   0.00000  Uiso   1.00
H579   H     0.53687   0.91710   0.72092   0.00000  Uiso   1.00
H580   H     0.46976   0.12779   0.12995   0.00000  Uiso   1.00
H581   H     0.67875   0.89178   0.19922   0.00000  Uiso   1.00
H582   H     0.52872   0.88776   0.45302   0.00000  Uiso   1.00
H583   H     0.63195   0.09460   0.75459   0.00000  Uiso   1.00
H584   H     0.59175   0.17356   0.84554   0.00000  Uiso   1.00
H585   H     0.69086   0.06163   0.87841   0.00000  Uiso   1.00
H586   H     0.61971   0.05972   0.52454   0.00000  Uiso   1.00
H587   H     0.53700   0.24355   0.97057   0.00000  Uiso   1.00
H588   H     0.74598   0.00753   0.03984   0.00000  Uiso   1.00
H589   H     0.59596   0.00351   0.29364   0.00000  Uiso   1.00
O590   O     0.47553   0.23517   0.11348   0.00000  Uiso   1.00
O591   O     0.74970   0.92552   0.20434   0.00000  Uiso   1.00
O592   O     0.55288   0.92025   0.22535   0.00000  Uiso   1.00
N593   N     0.49110   0.14420   0.07994   0.00000  Uiso   1.00
N594   N     0.68648   0.92354   0.14472   0.00000  Uiso   1.00
N595   N     0.54623   0.91978   0.44709   0.00000  Uiso   1.00
N596   N     0.52728   0.20649   0.99417   0.00000  Uiso   1.00
N597   N     0.72266   0.98583   0.05895   0.00000  Uiso   1.00
N598   N     0.58241   0.98206   0.36132   0.00000  Uiso   1.00
C599   C     0.57140   0.49037   0.39810   0.00000  Uiso   1.00
C600   C     0.55811   0.54799   0.42724   0.00000  Uiso   1.00
C601   C     0.52678   0.56174   0.49953   0.00000  Uiso   1.00
C602   C     0.51937   0.61675   0.51512   0.00000  Uiso   1.00
C603   C     0.49523   0.70016   0.56875   0.00000  Uiso   1.00
C604   C     0.61196   0.48718   0.44512   0.00000  Uiso   1.00
C605   C     0.62591   0.44979   0.53242   0.00000  Uiso   1.00
C606   C     0.66383   0.45361   0.56304   0.00000  Uiso   1.00
C607   C     0.72329   0.44259   0.64434   0.00000  Uiso   1.00
C608   C     0.57330   0.48615   0.25285   0.00000  Uiso   1.00
C609   C     0.55475   0.44788   0.17849   0.00000  Uiso   1.00
C610   C     0.56014   0.45082   0.04724   0.00000  Uiso   1.00
C611   C     0.55957   0.43820   0.83003   0.00000  Uiso   1.00
C612   C     0.61395   0.56362   0.29725   0.00000  Uiso   1.00
C613   C     0.58122   0.58777   0.37246   0.00000  Uiso   1.00
C614   C     0.57386   0.64278   0.38794   0.00000  Uiso   1.00
C615   C     0.54252   0.65660   0.46023   0.00000  Uiso   1.00
C616   C     0.63507   0.52696   0.39034   0.00000  Uiso   1.00
C617   C     0.67298   0.53084   0.42083   0.00000  Uiso   1.00
C618   C     0.68698   0.49347   0.50816   0.00000  Uiso   1.00
C619   C     0.59641   0.52593   0.19807   0.00000  Uiso   1.00
C620   C     0.60183   0.52893   0.06691   0.00000  Uiso   1.00
C621   C     0.58329   0.49068   0.99236   0.00000  Uiso   1.00
H622   H     0.55341   0.45940   0.44076   0.00000  Uiso   1.00
H623   H     0.50891   0.53093   0.54192   0.00000  Uiso   1.00
H624   H     0.60802   0.41901   0.57478   0.00000  Uiso   1.00
H625   H     0.53687   0.41710   0.22092   0.00000  Uiso   1.00
H626   H     0.46976   0.62779   0.62995   0.00000  Uiso   1.00
H627   H     0.67875   0.39178   0.69922   0.00000  Uiso   1.00
H628   H     0.52872   0.38776   0.95302   0.00000  Uiso   1.00
H629   H     0.63195   0.59460   0.25459   0.00000  Uiso   1.00
H630   H     0.59175   0.67356   0.34554   0.00000  Uiso   1.00
H631   H     0.69086   0.56163   0.37841   0.00000  Uiso   1.00
H632   H     0.61971   0.55972   0.02454   0.00000  Uiso   1.00
H633   H     0.53700   0.74355   0.47057   0.00000  Uiso   1.00
H634   H     0.74598   0.50753   0.53984   0.00000  Uiso   1.00
H635   H     0.59596   0.50351   0.79364   0.00000  Uiso   1.00
O636   O     0.47553   0.73517   0.61348   0.00000  Uiso   1.00
O637   O     0.74970   0.42552   0.70434   0.00000  Uiso   1.00
O638   O     0.55288   0.42025   0.72535   0.00000  Uiso   1.00
N639   N     0.49110   0.64420   0.57994   0.00000  Uiso   1.00
N640   N     0.68648   0.42354   0.64472   0.00000  Uiso   1.00
N641   N     0.54623   0.41978   0.94709   0.00000  Uiso   1.00
N642   N     0.52728   0.70649   0.49417   0.00000  Uiso   1.00
N643   N     0.72266   0.48583   0.55895   0.00000  Uiso   1.00
N644   N     0.58241   0.48206   0.86132   0.00000  Uiso   1.00
C645   C     0.07140   0.99037   0.39810   0.00000  Uiso   1.00
C646   C     0.05811   0.04799   0.42724   0.00000  Uiso   1.00
C647   C     0.02678   0.06174   0.49953   0.00000  Uiso   1.00
C648   C     0.01937   0.11675   0.51512   0.00000  Uiso   1.00
C649   C     0.99523   0.20016   0.56875   0.00000  Uiso   1.00
C650   C     0.11196   0.98718   0.44512   0.00000  Uiso   1.00
C651   C     0.12591   0.94979   0.53242   0.00000  Uiso   1.00
C652   C     0.16383   0.95361   0.56304   0.00000  Uiso   1.00
C653   C     0.22329   0.94259   0.64434   0.00000  Uiso   1.00
C654   C     0.07330   0.98615   0.25285   0.00000  Uiso   1.00
C655   C     0.05475   0.94788   0.17849   0.00000  Uiso   1.00
C656   C     0.06014   0.95082   0.04724   0.00000  Uiso   1.00
C657   C     0.05957   0.93820   0.83003   0.00000  Uiso   1.00
C658   C     0.11395   0.06362   0.29725   0.00000  Uiso   1.00
C659   C     0.08122   0.08777   0.37246   0.00000  Uiso   1.00
C660   C     0.07386   0.14278   0.38794   0.00000  Uiso   1.00
C661   C     0.04252   0.15660   0.46023   0.00000  Uiso   1.00
C662   C     0.13507   0.02696   0.39034   0.00000  Uiso   1.00
C663   C     0.17298   0.03084   0.42083   0.00000  Uiso   1.00
C664   C     0.18698   0.99347   0.50816   0.00000  Uiso   1.00
C665   C     0.09641   0.02593   0.19807   0.00000  Uiso   1.00
C666   C     0.10183   0.02893   0.06691   0.00000  Uiso   1.00
C667   C     0.08329   0.99068   0.99236   0.00000  Uiso   1.00
H668   H     0.05341   0.95940   0.44076   0.00000  Uiso   1.00
H669   H     0.00891   0.03093   0.54192   0.00000  Uiso   1.00
H670   H     0.10802   0.91901   0.57478   0.00000  Uiso   1.00
H671   H     0.03687   0.91710   0.22092   0.00000  Uiso   1.00
H672   H     0.96976   0.12779   0.62995   0.00000  Uiso   1.00
H673   H     0.17875   0.89178   0.69922   0.00000  Uiso   1.00
H674   H     0.02872   0.88776   0.95302   0.00000  Uiso   1.00
H675   H     0.13195   0.09460   0.25459   0.00000  Uiso   1.00
H676   H     0.09175   0.17356   0.34554   0.00000  Uiso   1.00
H677   H     0.19086   0.06163   0.37841   0.00000  Uiso   1.00
H678   H     0.11971   0.05972   0.02454   0.00000  Uiso   1.00
H679   H     0.03700   0.24355   0.47057   0.00000  Uiso   1.00
H680   H     0.24598   0.00753   0.53984   0.00000  Uiso   1.00
H681   H     0.09596   0.00351   0.79364   0.00000  Uiso   1.00
O682   O     0.97553   0.23517   0.61348   0.00000  Uiso   1.00
O683   O     0.24970   0.92552   0.70434   0.00000  Uiso   1.00
O684   O     0.05288   0.92025   0.72535   0.00000  Uiso   1.00
N685   N     0.99110   0.14420   0.57994   0.00000  Uiso   1.00
N686   N     0.18648   0.92354   0.64472   0.00000  Uiso   1.00
N687   N     0.04623   0.91978   0.94709   0.00000  Uiso   1.00
N688   N     0.02728   0.20649   0.49417   0.00000  Uiso   1.00
N689   N     0.22266   0.98583   0.55895   0.00000  Uiso   1.00
N690   N     0.08241   0.98206   0.86132   0.00000  Uiso   1.00
C691   C     0.07140   0.49037   0.89810   0.00000  Uiso   1.00
C692   C     0.05811   0.54799   0.92724   0.00000  Uiso   1.00
C693   C     0.02678   0.56174   0.99953   0.00000  Uiso   1.00
C694   C     0.01937   0.61675   0.01512   0.00000  Uiso   1.00
C695   C     0.99523   0.70016   0.06875   0.00000  Uiso   1.00
C696   C     0.11196   0.48718   0.94512   0.00000  Uiso   1.00
C697   C     0.12591   0.44979   0.03242   0.00000  Uiso   1.00
C698   C     0.16383   0.45361   0.06304   0.00000  Uiso   1.00
C699   C     0.22329   0.44259   0.14434   0.00000  Uiso   1.00
C700   C     0.07330   0.48615   0.75285   0.00000  Uiso   1.00
C701   C     0.05475   0.44788   0.67849   0.00000  Uiso   1.00
C702   C     0.06014   0.45082   0.54724   0.00000  Uiso   1.00
C703   C     0.05957   0.43820   0.33003   0.00000  Uiso   1.00
C704   C     0.11395   0.56362   0.79725   0.00000  Uiso   1.00
C705   C     0.08122   0.58777   0.87246   0.00000  Uiso   1.00
C706   C     0.07386   0.64278   0.88794   0.00000  Uiso   1.00
C707   C     0.04252   0.65660   0.96023   0.00000  Uiso   1.00
C708   C     0.13507   0.52696   0.89034   0.00000  Uiso   1.00
C709   C     0.17298   0.53084   0.92083   0.00000  Uiso   1.00
C710   C     0.18698   0.49347   0.00816   0.00000  Uiso   1.00
C711   C     0.09641   0.52593   0.69807   0.00000  Uiso   1.00
C712   C     0.10183   0.52893   0.56691   0.00000  Uiso   1.00
C713   C     0.08329   0.49068   0.49236   0.00000  Uiso   1.00
H714   H     0.05341   0.45940   0.94076   0.00000  Uiso   1.00
H715   H     0.00891   0.53093   0.04192   0.00000  Uiso   1.00
H716   H     0.10802   0.41901   0.07478   0.00000  Uiso   1.00
H717   H     0.03687   0.41710   0.72092   0.00000  Uiso   1.00
H718   H     0.96976   0.62779   0.12995   0.00000  Uiso   1.00
H719   H     0.17875   0.39178   0.19922   0.00000  Uiso   1.00
H720   H     0.02872   0.38776   0.45302   0.00000  Uiso   1.00
H721   H     0.13195   0.59460   0.75459   0.00000  Uiso   1.00
H722   H     0.09175   0.67356   0.84554   0.00000  Uiso   1.00
H723   H     0.19086   0.56163   0.87841   0.00000  Uiso   1.00
H724   H     0.11971   0.55972   0.52454   0.00000  Uiso   1.00
H725   H     0.03700   0.74355   0.97057   0.00000  Uiso   1.00
H726   H     0.24598   0.50753   0.03984   0.00000  Uiso   1.00
H727   H     0.09596   0.50351   0.29364   0.00000  Uiso   1.00
O728   O     0.97553   0.73517   0.11348   0.00000  Uiso   1.00
O729   O     0.24970   0.42552   0.20434   0.00000  Uiso   1.00
O730   O     0.05288   0.42025   0.22535   0.00000  Uiso   1.00
N731   N     0.99110   0.64420   0.07994   0.00000  Uiso   1.00
N732   N     0.18648   0.42354   0.14472   0.00000  Uiso   1.00
N733   N     0.04623   0.41978   0.44709   0.00000  Uiso   1.00
N734   N     0.02728   0.70649   0.99417   0.00000  Uiso   1.00
N735   N     0.22266   0.48583   0.05895   0.00000  Uiso   1.00
N736   N     0.08241   0.48206   0.36132   0.00000  Uiso   1.00
