data_job_03652
_audit_creation_date              2018-12-19
_audit_creation_method            'Materials Studio'
_symmetry_space_group_name_H-M    'P1'
_symmetry_Int_Tables_number       1
_symmetry_cell_setting            triclinic
loop_
_symmetry_equiv_pos_as_xyz
  x,y,z
_cell_length_a                    15.2931
_cell_length_b                    47.3679
_cell_length_c                    19.1154
_cell_angle_alpha                 90.0000
_cell_angle_beta                  90.0000
_cell_angle_gamma                 90.0000
loop_
_atom_site_label
_atom_site_type_symbol
_atom_site_fract_x
_atom_site_fract_y
_atom_site_fract_z
_atom_site_U_iso_or_equiv
_atom_site_adp_type
_atom_site_occupancy
C1     C     0.44589   0.37856   0.67980   0.00000  Uiso   1.00
C2     C     0.50042   0.35294   0.65908   0.00000  Uiso   1.00
C3     C     0.47267   0.33084   0.61689   0.00000  Uiso   1.00
C4     C     0.53237   0.30937   0.60410   0.00000  Uiso   1.00
C5     C     0.60419   0.26948   0.56762   0.00000  Uiso   1.00
C6     C     0.44570   0.37918   0.75956   0.00000  Uiso   1.00
C7     C     0.37194   0.37915   0.80186   0.00000  Uiso   1.00
C8     C     0.38557   0.37978   0.87366   0.00000  Uiso   1.00
C9     C     0.37243   0.38066   0.99319   0.00000  Uiso   1.00
C10    C     0.49802   0.40435   0.65661   0.00000  Uiso   1.00
C11    C     0.46825   0.42550   0.61236   0.00000  Uiso   1.00
C12    C     0.52593   0.44733   0.59749   0.00000  Uiso   1.00
C13    C     0.59403   0.48729   0.55717   0.00000  Uiso   1.00
C14    C     0.60125   0.37972   0.73210   0.00000  Uiso   1.00
C15    C     0.58481   0.35357   0.68748   0.00000  Uiso   1.00
C16    C     0.64456   0.33213   0.67475   0.00000  Uiso   1.00
C17    C     0.61691   0.31000   0.63255   0.00000  Uiso   1.00
C18    C     0.53008   0.37981   0.78797   0.00000  Uiso   1.00
C19    C     0.54383   0.38044   0.85972   0.00000  Uiso   1.00
C20    C     0.47011   0.38042   0.90211   0.00000  Uiso   1.00
C21    C     0.58241   0.40499   0.68501   0.00000  Uiso   1.00
C22    C     0.64014   0.42679   0.67021   0.00000  Uiso   1.00
C23    C     0.61047   0.44796   0.62594   0.00000  Uiso   1.00
H24    H     0.38019   0.37807   0.65770   0.00000  Uiso   1.00
H25    H     0.40735   0.33036   0.59493   0.00000  Uiso   1.00
H26    H     0.30664   0.37867   0.77987   0.00000  Uiso   1.00
H27    H     0.40294   0.42500   0.59039   0.00000  Uiso   1.00
H28    H     0.47468   0.27773   0.53788   0.00000  Uiso   1.00
H29    H     0.26232   0.37961   0.92784   0.00000  Uiso   1.00
H30    H     0.46538   0.47732   0.52829   0.00000  Uiso   1.00
H31    H     0.66696   0.38022   0.75421   0.00000  Uiso   1.00
H32    H     0.70986   0.33262   0.69673   0.00000  Uiso   1.00
H33    H     0.60914   0.38093   0.88168   0.00000  Uiso   1.00
H34    H     0.70544   0.42727   0.69220   0.00000  Uiso   1.00
H35    H     0.72021   0.27957   0.62051   0.00000  Uiso   1.00
H36    H     0.50784   0.38145   0.01047   0.00000  Uiso   1.00
H37    H     0.71090   0.47916   0.61093   0.00000  Uiso   1.00
O38    O     0.62049   0.24730   0.53967   0.00000  Uiso   1.00
O39    O     0.34187   0.38097   0.05127   0.00000  Uiso   1.00
O40    O     0.60828   0.50916   0.52708   0.00000  Uiso   1.00
N41    N     0.52658   0.28470   0.56520   0.00000  Uiso   1.00
N42    N     0.32803   0.37995   0.92979   0.00000  Uiso   1.00
N43    N     0.51787   0.47130   0.55627   0.00000  Uiso   1.00
N44    N     0.65870   0.28569   0.60967   0.00000  Uiso   1.00
N45    N     0.46015   0.38094   0.97425   0.00000  Uiso   1.00
N46    N     0.64999   0.47229   0.60073   0.00000  Uiso   1.00
C47    C     0.94589   0.87856   0.17980   0.00000  Uiso   1.00
C48    C     0.00042   0.85294   0.15908   0.00000  Uiso   1.00
C49    C     0.97267   0.83084   0.11689   0.00000  Uiso   1.00
C50    C     0.03237   0.80937   0.10410   0.00000  Uiso   1.00
C51    C     0.10419   0.76948   0.06762   0.00000  Uiso   1.00
C52    C     0.94570   0.87918   0.25956   0.00000  Uiso   1.00
C53    C     0.87194   0.87915   0.30186   0.00000  Uiso   1.00
C54    C     0.88557   0.87978   0.37366   0.00000  Uiso   1.00
C55    C     0.87243   0.88066   0.49319   0.00000  Uiso   1.00
C56    C     0.99802   0.90435   0.15661   0.00000  Uiso   1.00
C57    C     0.96825   0.92550   0.11236   0.00000  Uiso   1.00
C58    C     0.02593   0.94733   0.09749   0.00000  Uiso   1.00
C59    C     0.09403   0.98729   0.05717   0.00000  Uiso   1.00
C60    C     0.10125   0.87972   0.23210   0.00000  Uiso   1.00
C61    C     0.08481   0.85357   0.18748   0.00000  Uiso   1.00
C62    C     0.14456   0.83213   0.17475   0.00000  Uiso   1.00
C63    C     0.11691   0.81000   0.13255   0.00000  Uiso   1.00
C64    C     0.03008   0.87981   0.28797   0.00000  Uiso   1.00
C65    C     0.04383   0.88044   0.35972   0.00000  Uiso   1.00
C66    C     0.97011   0.88042   0.40211   0.00000  Uiso   1.00
C67    C     0.08241   0.90499   0.18501   0.00000  Uiso   1.00
C68    C     0.14014   0.92679   0.17021   0.00000  Uiso   1.00
C69    C     0.11047   0.94796   0.12594   0.00000  Uiso   1.00
H70    H     0.88019   0.87807   0.15770   0.00000  Uiso   1.00
H71    H     0.90735   0.83036   0.09493   0.00000  Uiso   1.00
H72    H     0.80664   0.87867   0.27987   0.00000  Uiso   1.00
H73    H     0.90294   0.92500   0.09039   0.00000  Uiso   1.00
H74    H     0.97468   0.77773   0.03788   0.00000  Uiso   1.00
H75    H     0.76232   0.87961   0.42784   0.00000  Uiso   1.00
H76    H     0.96538   0.97732   0.02829   0.00000  Uiso   1.00
H77    H     0.16696   0.88022   0.25421   0.00000  Uiso   1.00
H78    H     0.20986   0.83262   0.19673   0.00000  Uiso   1.00
H79    H     0.10914   0.88093   0.38168   0.00000  Uiso   1.00
H80    H     0.20544   0.92727   0.19220   0.00000  Uiso   1.00
H81    H     0.22021   0.77957   0.12051   0.00000  Uiso   1.00
H82    H     0.00784   0.88145   0.51047   0.00000  Uiso   1.00
H83    H     0.21090   0.97916   0.11093   0.00000  Uiso   1.00
O84    O     0.12049   0.74730   0.03967   0.00000  Uiso   1.00
O85    O     0.84187   0.88097   0.55127   0.00000  Uiso   1.00
O86    O     0.10828   0.00916   0.02708   0.00000  Uiso   1.00
N87    N     0.02658   0.78470   0.06520   0.00000  Uiso   1.00
N88    N     0.82803   0.87995   0.42979   0.00000  Uiso   1.00
N89    N     0.01787   0.97130   0.05627   0.00000  Uiso   1.00
N90    N     0.15870   0.78569   0.10967   0.00000  Uiso   1.00
N91    N     0.96015   0.88094   0.47425   0.00000  Uiso   1.00
N92    N     0.14999   0.97229   0.10073   0.00000  Uiso   1.00
C93    C     0.05411   0.62144   0.17980   0.00000  Uiso   1.00
C94    C     0.99958   0.64706   0.15908   0.00000  Uiso   1.00
C95    C     0.02733   0.66916   0.11689   0.00000  Uiso   1.00
C96    C     0.96763   0.69063   0.10410   0.00000  Uiso   1.00
C97    C     0.89581   0.73052   0.06762   0.00000  Uiso   1.00
C98    C     0.05430   0.62082   0.25956   0.00000  Uiso   1.00
C99    C     0.12806   0.62085   0.30186   0.00000  Uiso   1.00
C100   C     0.11443   0.62022   0.37366   0.00000  Uiso   1.00
C101   C     0.12757   0.61934   0.49319   0.00000  Uiso   1.00
C102   C     0.00198   0.59565   0.15661   0.00000  Uiso   1.00
C103   C     0.03175   0.57450   0.11236   0.00000  Uiso   1.00
C104   C     0.97407   0.55267   0.09749   0.00000  Uiso   1.00
C105   C     0.90597   0.51271   0.05717   0.00000  Uiso   1.00
C106   C     0.89875   0.62028   0.23210   0.00000  Uiso   1.00
C107   C     0.91519   0.64643   0.18748   0.00000  Uiso   1.00
C108   C     0.85544   0.66787   0.17475   0.00000  Uiso   1.00
C109   C     0.88309   0.69000   0.13255   0.00000  Uiso   1.00
C110   C     0.96992   0.62019   0.28797   0.00000  Uiso   1.00
C111   C     0.95617   0.61956   0.35972   0.00000  Uiso   1.00
C112   C     0.02989   0.61958   0.40211   0.00000  Uiso   1.00
C113   C     0.91759   0.59501   0.18501   0.00000  Uiso   1.00
C114   C     0.85986   0.57321   0.17021   0.00000  Uiso   1.00
C115   C     0.88953   0.55204   0.12594   0.00000  Uiso   1.00
H116   H     0.11981   0.62193   0.15770   0.00000  Uiso   1.00
H117   H     0.09265   0.66964   0.09493   0.00000  Uiso   1.00
H118   H     0.19336   0.62133   0.27987   0.00000  Uiso   1.00
H119   H     0.09706   0.57500   0.09039   0.00000  Uiso   1.00
H120   H     0.02532   0.72227   0.03788   0.00000  Uiso   1.00
H121   H     0.23768   0.62039   0.42784   0.00000  Uiso   1.00
H122   H     0.03462   0.52268   0.02829   0.00000  Uiso   1.00
H123   H     0.83304   0.61978   0.25421   0.00000  Uiso   1.00
H124   H     0.79014   0.66738   0.19673   0.00000  Uiso   1.00
H125   H     0.89086   0.61907   0.38168   0.00000  Uiso   1.00
H126   H     0.79456   0.57273   0.19220   0.00000  Uiso   1.00
H127   H     0.77979   0.72043   0.12051   0.00000  Uiso   1.00
H128   H     0.99216   0.61855   0.51047   0.00000  Uiso   1.00
H129   H     0.78910   0.52084   0.11093   0.00000  Uiso   1.00
O130   O     0.87951   0.75270   0.03967   0.00000  Uiso   1.00
O131   O     0.15813   0.61903   0.55127   0.00000  Uiso   1.00
O132   O     0.89172   0.49084   0.02708   0.00000  Uiso   1.00
N133   N     0.97342   0.71530   0.06520   0.00000  Uiso   1.00
N134   N     0.17197   0.62005   0.42979   0.00000  Uiso   1.00
N135   N     0.98213   0.52870   0.05627   0.00000  Uiso   1.00
N136   N     0.84130   0.71431   0.10967   0.00000  Uiso   1.00
N137   N     0.03985   0.61906   0.47425   0.00000  Uiso   1.00
N138   N     0.85001   0.52771   0.10073   0.00000  Uiso   1.00
C139   C     0.55411   0.12144   0.67980   0.00000  Uiso   1.00
C140   C     0.49958   0.14706   0.65908   0.00000  Uiso   1.00
C141   C     0.52733   0.16916   0.61689   0.00000  Uiso   1.00
C142   C     0.46763   0.19063   0.60410   0.00000  Uiso   1.00
C143   C     0.39581   0.23052   0.56762   0.00000  Uiso   1.00
C144   C     0.55430   0.12082   0.75956   0.00000  Uiso   1.00
C145   C     0.62806   0.12085   0.80186   0.00000  Uiso   1.00
C146   C     0.61443   0.12022   0.87366   0.00000  Uiso   1.00
C147   C     0.62757   0.11934   0.99319   0.00000  Uiso   1.00
C148   C     0.50198   0.09565   0.65661   0.00000  Uiso   1.00
C149   C     0.53175   0.07450   0.61236   0.00000  Uiso   1.00
C150   C     0.47407   0.05267   0.59749   0.00000  Uiso   1.00
C151   C     0.40597   0.01271   0.55717   0.00000  Uiso   1.00
C152   C     0.39875   0.12028   0.73210   0.00000  Uiso   1.00
C153   C     0.41519   0.14643   0.68748   0.00000  Uiso   1.00
C154   C     0.35544   0.16787   0.67475   0.00000  Uiso   1.00
C155   C     0.38309   0.19000   0.63255   0.00000  Uiso   1.00
C156   C     0.46992   0.12019   0.78797   0.00000  Uiso   1.00
C157   C     0.45617   0.11956   0.85972   0.00000  Uiso   1.00
C158   C     0.52989   0.11958   0.90211   0.00000  Uiso   1.00
C159   C     0.41759   0.09501   0.68501   0.00000  Uiso   1.00
C160   C     0.35986   0.07321   0.67021   0.00000  Uiso   1.00
C161   C     0.38953   0.05204   0.62594   0.00000  Uiso   1.00
H162   H     0.61981   0.12193   0.65770   0.00000  Uiso   1.00
H163   H     0.59265   0.16964   0.59493   0.00000  Uiso   1.00
H164   H     0.69336   0.12133   0.77987   0.00000  Uiso   1.00
H165   H     0.59706   0.07500   0.59039   0.00000  Uiso   1.00
H166   H     0.52532   0.22227   0.53788   0.00000  Uiso   1.00
H167   H     0.73768   0.12039   0.92784   0.00000  Uiso   1.00
H168   H     0.53462   0.02268   0.52829   0.00000  Uiso   1.00
H169   H     0.33304   0.11978   0.75421   0.00000  Uiso   1.00
H170   H     0.29014   0.16738   0.69673   0.00000  Uiso   1.00
H171   H     0.39086   0.11907   0.88168   0.00000  Uiso   1.00
H172   H     0.29456   0.07273   0.69220   0.00000  Uiso   1.00
H173   H     0.27979   0.22043   0.62051   0.00000  Uiso   1.00
H174   H     0.49216   0.11855   0.01047   0.00000  Uiso   1.00
H175   H     0.28910   0.02084   0.61093   0.00000  Uiso   1.00
O176   O     0.37951   0.25270   0.53967   0.00000  Uiso   1.00
O177   O     0.65813   0.11903   0.05127   0.00000  Uiso   1.00
O178   O     0.39172   0.99084   0.52708   0.00000  Uiso   1.00
N179   N     0.47342   0.21530   0.56520   0.00000  Uiso   1.00
N180   N     0.67197   0.12005   0.92979   0.00000  Uiso   1.00
N181   N     0.48213   0.02870   0.55627   0.00000  Uiso   1.00
N182   N     0.34130   0.21431   0.60967   0.00000  Uiso   1.00
N183   N     0.53985   0.11906   0.97425   0.00000  Uiso   1.00
N184   N     0.35001   0.02771   0.60073   0.00000  Uiso   1.00
C185   C     0.55411   0.87856   0.82020   0.00000  Uiso   1.00
C186   C     0.49958   0.85294   0.84092   0.00000  Uiso   1.00
C187   C     0.52733   0.83084   0.88311   0.00000  Uiso   1.00
C188   C     0.46763   0.80937   0.89590   0.00000  Uiso   1.00
C189   C     0.39581   0.76948   0.93238   0.00000  Uiso   1.00
C190   C     0.55430   0.87918   0.74044   0.00000  Uiso   1.00
C191   C     0.62806   0.87915   0.69814   0.00000  Uiso   1.00
C192   C     0.61443   0.87978   0.62634   0.00000  Uiso   1.00
C193   C     0.62757   0.88066   0.50681   0.00000  Uiso   1.00
C194   C     0.50198   0.90435   0.84339   0.00000  Uiso   1.00
C195   C     0.53175   0.92550   0.88764   0.00000  Uiso   1.00
C196   C     0.47407   0.94733   0.90251   0.00000  Uiso   1.00
C197   C     0.40597   0.98729   0.94283   0.00000  Uiso   1.00
C198   C     0.39875   0.87972   0.76790   0.00000  Uiso   1.00
C199   C     0.41519   0.85357   0.81252   0.00000  Uiso   1.00
C200   C     0.35544   0.83213   0.82525   0.00000  Uiso   1.00
C201   C     0.38309   0.81000   0.86745   0.00000  Uiso   1.00
C202   C     0.46992   0.87981   0.71203   0.00000  Uiso   1.00
C203   C     0.45617   0.88044   0.64028   0.00000  Uiso   1.00
C204   C     0.52989   0.88042   0.59789   0.00000  Uiso   1.00
C205   C     0.41759   0.90499   0.81499   0.00000  Uiso   1.00
C206   C     0.35986   0.92679   0.82979   0.00000  Uiso   1.00
C207   C     0.38953   0.94796   0.87406   0.00000  Uiso   1.00
H208   H     0.61981   0.87807   0.84230   0.00000  Uiso   1.00
H209   H     0.59265   0.83036   0.90507   0.00000  Uiso   1.00
H210   H     0.69336   0.87867   0.72013   0.00000  Uiso   1.00
H211   H     0.59706   0.92500   0.90961   0.00000  Uiso   1.00
H212   H     0.52532   0.77773   0.96212   0.00000  Uiso   1.00
H213   H     0.73768   0.87961   0.57216   0.00000  Uiso   1.00
H214   H     0.53462   0.97732   0.97171   0.00000  Uiso   1.00
H215   H     0.33304   0.88022   0.74579   0.00000  Uiso   1.00
H216   H     0.29014   0.83262   0.80327   0.00000  Uiso   1.00
H217   H     0.39086   0.88093   0.61832   0.00000  Uiso   1.00
H218   H     0.29456   0.92727   0.80780   0.00000  Uiso   1.00
H219   H     0.27979   0.77957   0.87949   0.00000  Uiso   1.00
H220   H     0.49216   0.88145   0.48953   0.00000  Uiso   1.00
H221   H     0.28910   0.97916   0.88907   0.00000  Uiso   1.00
O222   O     0.37951   0.74730   0.96033   0.00000  Uiso   1.00
O223   O     0.65813   0.88097   0.44873   0.00000  Uiso   1.00
O224   O     0.39172   0.00916   0.97292   0.00000  Uiso   1.00
N225   N     0.47342   0.78470   0.93480   0.00000  Uiso   1.00
N226   N     0.67197   0.87995   0.57021   0.00000  Uiso   1.00
N227   N     0.48213   0.97130   0.94373   0.00000  Uiso   1.00
N228   N     0.34130   0.78569   0.89033   0.00000  Uiso   1.00
N229   N     0.53985   0.88094   0.52575   0.00000  Uiso   1.00
N230   N     0.35001   0.97229   0.89927   0.00000  Uiso   1.00
C231   C     0.05411   0.37856   0.32020   0.00000  Uiso   1.00
C232   C     0.99958   0.35294   0.34092   0.00000  Uiso   1.00
C233   C     0.02733   0.33084   0.38311   0.00000  Uiso   1.00
C234   C     0.96763   0.30937   0.39590   0.00000  Uiso   1.00
C235   C     0.89581   0.26948   0.43238   0.00000  Uiso   1.00
C236   C     0.05430   0.37918   0.24044   0.00000  Uiso   1.00
C237   C     0.12806   0.37915   0.19814   0.00000  Uiso   1.00
C238   C     0.11443   0.37978   0.12634   0.00000  Uiso   1.00
C239   C     0.12757   0.38066   0.00681   0.00000  Uiso   1.00
C240   C     0.00198   0.40435   0.34339   0.00000  Uiso   1.00
C241   C     0.03175   0.42550   0.38764   0.00000  Uiso   1.00
C242   C     0.97407   0.44733   0.40251   0.00000  Uiso   1.00
C243   C     0.90597   0.48729   0.44283   0.00000  Uiso   1.00
C244   C     0.89875   0.37972   0.26790   0.00000  Uiso   1.00
C245   C     0.91519   0.35357   0.31252   0.00000  Uiso   1.00
C246   C     0.85544   0.33213   0.32525   0.00000  Uiso   1.00
C247   C     0.88309   0.31000   0.36745   0.00000  Uiso   1.00
C248   C     0.96992   0.37981   0.21203   0.00000  Uiso   1.00
C249   C     0.95617   0.38044   0.14028   0.00000  Uiso   1.00
C250   C     0.02989   0.38042   0.09789   0.00000  Uiso   1.00
C251   C     0.91759   0.40499   0.31499   0.00000  Uiso   1.00
C252   C     0.85986   0.42679   0.32979   0.00000  Uiso   1.00
C253   C     0.88953   0.44796   0.37406   0.00000  Uiso   1.00
H254   H     0.11981   0.37807   0.34230   0.00000  Uiso   1.00
H255   H     0.09265   0.33036   0.40507   0.00000  Uiso   1.00
H256   H     0.19336   0.37867   0.22013   0.00000  Uiso   1.00
H257   H     0.09706   0.42500   0.40961   0.00000  Uiso   1.00
H258   H     0.02532   0.27773   0.46212   0.00000  Uiso   1.00
H259   H     0.23768   0.37961   0.07216   0.00000  Uiso   1.00
H260   H     0.03462   0.47732   0.47171   0.00000  Uiso   1.00
H261   H     0.83304   0.38022   0.24579   0.00000  Uiso   1.00
H262   H     0.79014   0.33262   0.30327   0.00000  Uiso   1.00
H263   H     0.89086   0.38093   0.11832   0.00000  Uiso   1.00
H264   H     0.79456   0.42727   0.30780   0.00000  Uiso   1.00
H265   H     0.77979   0.27957   0.37949   0.00000  Uiso   1.00
H266   H     0.99216   0.38145   0.98953   0.00000  Uiso   1.00
H267   H     0.78910   0.47916   0.38907   0.00000  Uiso   1.00
O268   O     0.87951   0.24730   0.46033   0.00000  Uiso   1.00
O269   O     0.15813   0.38097   0.94873   0.00000  Uiso   1.00
O270   O     0.89172   0.50916   0.47292   0.00000  Uiso   1.00
N271   N     0.97342   0.28470   0.43480   0.00000  Uiso   1.00
N272   N     0.17197   0.37995   0.07021   0.00000  Uiso   1.00
N273   N     0.98213   0.47130   0.44373   0.00000  Uiso   1.00
N274   N     0.84130   0.28569   0.39033   0.00000  Uiso   1.00
N275   N     0.03985   0.38094   0.02575   0.00000  Uiso   1.00
N276   N     0.85001   0.47229   0.39927   0.00000  Uiso   1.00
C277   C     0.94589   0.12144   0.32020   0.00000  Uiso   1.00
C278   C     0.00042   0.14706   0.34092   0.00000  Uiso   1.00
C279   C     0.97267   0.16916   0.38311   0.00000  Uiso   1.00
C280   C     0.03237   0.19063   0.39590   0.00000  Uiso   1.00
C281   C     0.10419   0.23052   0.43238   0.00000  Uiso   1.00
C282   C     0.94570   0.12082   0.24044   0.00000  Uiso   1.00
C283   C     0.87194   0.12085   0.19814   0.00000  Uiso   1.00
C284   C     0.88557   0.12022   0.12634   0.00000  Uiso   1.00
C285   C     0.87243   0.11934   0.00681   0.00000  Uiso   1.00
C286   C     0.99802   0.09565   0.34339   0.00000  Uiso   1.00
C287   C     0.96825   0.07450   0.38764   0.00000  Uiso   1.00
C288   C     0.02593   0.05267   0.40251   0.00000  Uiso   1.00
C289   C     0.09403   0.01271   0.44283   0.00000  Uiso   1.00
C290   C     0.10125   0.12028   0.26790   0.00000  Uiso   1.00
C291   C     0.08481   0.14643   0.31252   0.00000  Uiso   1.00
C292   C     0.14456   0.16787   0.32525   0.00000  Uiso   1.00
C293   C     0.11691   0.19000   0.36745   0.00000  Uiso   1.00
C294   C     0.03008   0.12019   0.21203   0.00000  Uiso   1.00
C295   C     0.04383   0.11956   0.14028   0.00000  Uiso   1.00
C296   C     0.97011   0.11958   0.09789   0.00000  Uiso   1.00
C297   C     0.08241   0.09501   0.31499   0.00000  Uiso   1.00
C298   C     0.14014   0.07321   0.32979   0.00000  Uiso   1.00
C299   C     0.11047   0.05204   0.37406   0.00000  Uiso   1.00
H300   H     0.88019   0.12193   0.34230   0.00000  Uiso   1.00
H301   H     0.90735   0.16964   0.40507   0.00000  Uiso   1.00
H302   H     0.80664   0.12133   0.22013   0.00000  Uiso   1.00
H303   H     0.90294   0.07500   0.40961   0.00000  Uiso   1.00
H304   H     0.97468   0.22227   0.46212   0.00000  Uiso   1.00
H305   H     0.76232   0.12039   0.07216   0.00000  Uiso   1.00
H306   H     0.96538   0.02268   0.47171   0.00000  Uiso   1.00
H307   H     0.16696   0.11978   0.24579   0.00000  Uiso   1.00
H308   H     0.20986   0.16738   0.30327   0.00000  Uiso   1.00
H309   H     0.10914   0.11907   0.11832   0.00000  Uiso   1.00
H310   H     0.20544   0.07273   0.30780   0.00000  Uiso   1.00
H311   H     0.22021   0.22043   0.37949   0.00000  Uiso   1.00
H312   H     0.00784   0.11855   0.98953   0.00000  Uiso   1.00
H313   H     0.21090   0.02084   0.38907   0.00000  Uiso   1.00
O314   O     0.12049   0.25270   0.46033   0.00000  Uiso   1.00
O315   O     0.84187   0.11903   0.94873   0.00000  Uiso   1.00
O316   O     0.10828   0.99084   0.47292   0.00000  Uiso   1.00
N317   N     0.02658   0.21530   0.43480   0.00000  Uiso   1.00
N318   N     0.82803   0.12005   0.07021   0.00000  Uiso   1.00
N319   N     0.01787   0.02870   0.44373   0.00000  Uiso   1.00
N320   N     0.15870   0.21431   0.39033   0.00000  Uiso   1.00
N321   N     0.96015   0.11906   0.02575   0.00000  Uiso   1.00
N322   N     0.14999   0.02771   0.39927   0.00000  Uiso   1.00
C323   C     0.44589   0.62144   0.82020   0.00000  Uiso   1.00
C324   C     0.50042   0.64706   0.84092   0.00000  Uiso   1.00
C325   C     0.47267   0.66916   0.88311   0.00000  Uiso   1.00
C326   C     0.53237   0.69063   0.89590   0.00000  Uiso   1.00
C327   C     0.60419   0.73052   0.93238   0.00000  Uiso   1.00
C328   C     0.44570   0.62082   0.74044   0.00000  Uiso   1.00
C329   C     0.37194   0.62085   0.69814   0.00000  Uiso   1.00
C330   C     0.38557   0.62022   0.62634   0.00000  Uiso   1.00
C331   C     0.37243   0.61934   0.50681   0.00000  Uiso   1.00
C332   C     0.49802   0.59565   0.84339   0.00000  Uiso   1.00
C333   C     0.46825   0.57450   0.88764   0.00000  Uiso   1.00
C334   C     0.52593   0.55267   0.90251   0.00000  Uiso   1.00
C335   C     0.59403   0.51271   0.94283   0.00000  Uiso   1.00
C336   C     0.60125   0.62028   0.76790   0.00000  Uiso   1.00
C337   C     0.58481   0.64643   0.81252   0.00000  Uiso   1.00
C338   C     0.64456   0.66787   0.82525   0.00000  Uiso   1.00
C339   C     0.61691   0.69000   0.86745   0.00000  Uiso   1.00
C340   C     0.53008   0.62019   0.71203   0.00000  Uiso   1.00
C341   C     0.54383   0.61956   0.64028   0.00000  Uiso   1.00
C342   C     0.47011   0.61958   0.59789   0.00000  Uiso   1.00
C343   C     0.58241   0.59501   0.81499   0.00000  Uiso   1.00
C344   C     0.64014   0.57321   0.82979   0.00000  Uiso   1.00
C345   C     0.61047   0.55204   0.87406   0.00000  Uiso   1.00
H346   H     0.38019   0.62193   0.84230   0.00000  Uiso   1.00
H347   H     0.40735   0.66964   0.90507   0.00000  Uiso   1.00
H348   H     0.30664   0.62133   0.72013   0.00000  Uiso   1.00
H349   H     0.40294   0.57500   0.90961   0.00000  Uiso   1.00
H350   H     0.47468   0.72227   0.96212   0.00000  Uiso   1.00
H351   H     0.26232   0.62039   0.57216   0.00000  Uiso   1.00
H352   H     0.46538   0.52268   0.97171   0.00000  Uiso   1.00
H353   H     0.66696   0.61978   0.74579   0.00000  Uiso   1.00
H354   H     0.70986   0.66738   0.80327   0.00000  Uiso   1.00
H355   H     0.60914   0.61907   0.61832   0.00000  Uiso   1.00
H356   H     0.70544   0.57273   0.80780   0.00000  Uiso   1.00
H357   H     0.72021   0.72043   0.87949   0.00000  Uiso   1.00
H358   H     0.50784   0.61855   0.48953   0.00000  Uiso   1.00
H359   H     0.71090   0.52084   0.88907   0.00000  Uiso   1.00
O360   O     0.62049   0.75270   0.96033   0.00000  Uiso   1.00
O361   O     0.34187   0.61903   0.44873   0.00000  Uiso   1.00
O362   O     0.60828   0.49084   0.97292   0.00000  Uiso   1.00
N363   N     0.52658   0.71530   0.93480   0.00000  Uiso   1.00
N364   N     0.32803   0.62005   0.57021   0.00000  Uiso   1.00
N365   N     0.51787   0.52870   0.94373   0.00000  Uiso   1.00
N366   N     0.65870   0.71431   0.89033   0.00000  Uiso   1.00
N367   N     0.46015   0.61906   0.52575   0.00000  Uiso   1.00
N368   N     0.64999   0.52771   0.89927   0.00000  Uiso   1.00
C369   C     0.55411   0.62144   0.32020   0.00000  Uiso   1.00
C370   C     0.49958   0.64706   0.34092   0.00000  Uiso   1.00
C371   C     0.52733   0.66916   0.38311   0.00000  Uiso   1.00
C372   C     0.46763   0.69063   0.39590   0.00000  Uiso   1.00
C373   C     0.39581   0.73052   0.43238   0.00000  Uiso   1.00
C374   C     0.55430   0.62082   0.24044   0.00000  Uiso   1.00
C375   C     0.62806   0.62085   0.19814   0.00000  Uiso   1.00
C376   C     0.61443   0.62022   0.12634   0.00000  Uiso   1.00
C377   C     0.62757   0.61934   0.00681   0.00000  Uiso   1.00
C378   C     0.50198   0.59565   0.34339   0.00000  Uiso   1.00
C379   C     0.53175   0.57450   0.38764   0.00000  Uiso   1.00
C380   C     0.47407   0.55267   0.40251   0.00000  Uiso   1.00
C381   C     0.40597   0.51271   0.44283   0.00000  Uiso   1.00
C382   C     0.39875   0.62028   0.26790   0.00000  Uiso   1.00
C383   C     0.41519   0.64643   0.31252   0.00000  Uiso   1.00
C384   C     0.35544   0.66787   0.32525   0.00000  Uiso   1.00
C385   C     0.38309   0.69000   0.36745   0.00000  Uiso   1.00
C386   C     0.46992   0.62019   0.21203   0.00000  Uiso   1.00
C387   C     0.45617   0.61956   0.14028   0.00000  Uiso   1.00
C388   C     0.52989   0.61958   0.09789   0.00000  Uiso   1.00
C389   C     0.41759   0.59501   0.31499   0.00000  Uiso   1.00
C390   C     0.35986   0.57321   0.32979   0.00000  Uiso   1.00
C391   C     0.38953   0.55204   0.37406   0.00000  Uiso   1.00
H392   H     0.61981   0.62193   0.34230   0.00000  Uiso   1.00
H393   H     0.59265   0.66964   0.40507   0.00000  Uiso   1.00
H394   H     0.69336   0.62133   0.22013   0.00000  Uiso   1.00
H395   H     0.59706   0.57500   0.40961   0.00000  Uiso   1.00
H396   H     0.52532   0.72227   0.46212   0.00000  Uiso   1.00
H397   H     0.73768   0.62039   0.07216   0.00000  Uiso   1.00
H398   H     0.53462   0.52268   0.47171   0.00000  Uiso   1.00
H399   H     0.33304   0.61978   0.24579   0.00000  Uiso   1.00
H400   H     0.29014   0.66738   0.30327   0.00000  Uiso   1.00
H401   H     0.39086   0.61907   0.11832   0.00000  Uiso   1.00
H402   H     0.29456   0.57273   0.30780   0.00000  Uiso   1.00
H403   H     0.27979   0.72043   0.37949   0.00000  Uiso   1.00
H404   H     0.49216   0.61855   0.98953   0.00000  Uiso   1.00
H405   H     0.28910   0.52084   0.38907   0.00000  Uiso   1.00
O406   O     0.37951   0.75270   0.46033   0.00000  Uiso   1.00
O407   O     0.65813   0.61903   0.94873   0.00000  Uiso   1.00
O408   O     0.39172   0.49084   0.47292   0.00000  Uiso   1.00
N409   N     0.47342   0.71530   0.43480   0.00000  Uiso   1.00
N410   N     0.67197   0.62005   0.07021   0.00000  Uiso   1.00
N411   N     0.48213   0.52870   0.44373   0.00000  Uiso   1.00
N412   N     0.34130   0.71431   0.39033   0.00000  Uiso   1.00
N413   N     0.53985   0.61906   0.02575   0.00000  Uiso   1.00
N414   N     0.35001   0.52771   0.39927   0.00000  Uiso   1.00
C415   C     0.05411   0.12144   0.82020   0.00000  Uiso   1.00
C416   C     0.99958   0.14706   0.84092   0.00000  Uiso   1.00
C417   C     0.02733   0.16916   0.88311   0.00000  Uiso   1.00
C418   C     0.96763   0.19063   0.89590   0.00000  Uiso   1.00
C419   C     0.89581   0.23052   0.93238   0.00000  Uiso   1.00
C420   C     0.05430   0.12082   0.74044   0.00000  Uiso   1.00
C421   C     0.12806   0.12085   0.69814   0.00000  Uiso   1.00
C422   C     0.11443   0.12022   0.62634   0.00000  Uiso   1.00
C423   C     0.12757   0.11934   0.50681   0.00000  Uiso   1.00
C424   C     0.00198   0.09565   0.84339   0.00000  Uiso   1.00
C425   C     0.03175   0.07450   0.88764   0.00000  Uiso   1.00
C426   C     0.97407   0.05267   0.90251   0.00000  Uiso   1.00
C427   C     0.90597   0.01271   0.94283   0.00000  Uiso   1.00
C428   C     0.89875   0.12028   0.76790   0.00000  Uiso   1.00
C429   C     0.91519   0.14643   0.81252   0.00000  Uiso   1.00
C430   C     0.85544   0.16787   0.82525   0.00000  Uiso   1.00
C431   C     0.88309   0.19000   0.86745   0.00000  Uiso   1.00
C432   C     0.96992   0.12019   0.71203   0.00000  Uiso   1.00
C433   C     0.95617   0.11956   0.64028   0.00000  Uiso   1.00
C434   C     0.02989   0.11958   0.59789   0.00000  Uiso   1.00
C435   C     0.91759   0.09501   0.81499   0.00000  Uiso   1.00
C436   C     0.85986   0.07321   0.82979   0.00000  Uiso   1.00
C437   C     0.88953   0.05204   0.87406   0.00000  Uiso   1.00
H438   H     0.11981   0.12193   0.84230   0.00000  Uiso   1.00
H439   H     0.09265   0.16964   0.90507   0.00000  Uiso   1.00
H440   H     0.19336   0.12133   0.72013   0.00000  Uiso   1.00
H441   H     0.09706   0.07500   0.90961   0.00000  Uiso   1.00
H442   H     0.02532   0.22227   0.96212   0.00000  Uiso   1.00
H443   H     0.23768   0.12039   0.57216   0.00000  Uiso   1.00
H444   H     0.03462   0.02268   0.97171   0.00000  Uiso   1.00
H445   H     0.83304   0.11978   0.74579   0.00000  Uiso   1.00
H446   H     0.79014   0.16738   0.80327   0.00000  Uiso   1.00
H447   H     0.89086   0.11907   0.61832   0.00000  Uiso   1.00
H448   H     0.79456   0.07273   0.80780   0.00000  Uiso   1.00
H449   H     0.77979   0.22043   0.87949   0.00000  Uiso   1.00
H450   H     0.99216   0.11855   0.48953   0.00000  Uiso   1.00
H451   H     0.78910   0.02084   0.88907   0.00000  Uiso   1.00
O452   O     0.87951   0.25270   0.96033   0.00000  Uiso   1.00
O453   O     0.15813   0.11903   0.44873   0.00000  Uiso   1.00
O454   O     0.89172   0.99084   0.97292   0.00000  Uiso   1.00
N455   N     0.97342   0.21530   0.93480   0.00000  Uiso   1.00
N456   N     0.17197   0.12005   0.57021   0.00000  Uiso   1.00
N457   N     0.98213   0.02870   0.94373   0.00000  Uiso   1.00
N458   N     0.84130   0.21431   0.89033   0.00000  Uiso   1.00
N459   N     0.03985   0.11906   0.52575   0.00000  Uiso   1.00
N460   N     0.85001   0.02771   0.89927   0.00000  Uiso   1.00
C461   C     0.94589   0.37856   0.82020   0.00000  Uiso   1.00
C462   C     0.00042   0.35294   0.84092   0.00000  Uiso   1.00
C463   C     0.97267   0.33084   0.88311   0.00000  Uiso   1.00
C464   C     0.03237   0.30937   0.89590   0.00000  Uiso   1.00
C465   C     0.10419   0.26948   0.93238   0.00000  Uiso   1.00
C466   C     0.94570   0.37918   0.74044   0.00000  Uiso   1.00
C467   C     0.87194   0.37915   0.69814   0.00000  Uiso   1.00
C468   C     0.88557   0.37978   0.62634   0.00000  Uiso   1.00
C469   C     0.87243   0.38066   0.50681   0.00000  Uiso   1.00
C470   C     0.99802   0.40435   0.84339   0.00000  Uiso   1.00
C471   C     0.96825   0.42550   0.88764   0.00000  Uiso   1.00
C472   C     0.02593   0.44733   0.90251   0.00000  Uiso   1.00
C473   C     0.09403   0.48729   0.94283   0.00000  Uiso   1.00
C474   C     0.10125   0.37972   0.76790   0.00000  Uiso   1.00
C475   C     0.08481   0.35357   0.81252   0.00000  Uiso   1.00
C476   C     0.14456   0.33213   0.82525   0.00000  Uiso   1.00
C477   C     0.11691   0.31000   0.86745   0.00000  Uiso   1.00
C478   C     0.03008   0.37981   0.71203   0.00000  Uiso   1.00
C479   C     0.04383   0.38044   0.64028   0.00000  Uiso   1.00
C480   C     0.97011   0.38042   0.59789   0.00000  Uiso   1.00
C481   C     0.08241   0.40499   0.81499   0.00000  Uiso   1.00
C482   C     0.14014   0.42679   0.82979   0.00000  Uiso   1.00
C483   C     0.11047   0.44796   0.87406   0.00000  Uiso   1.00
H484   H     0.88019   0.37807   0.84230   0.00000  Uiso   1.00
H485   H     0.90735   0.33036   0.90507   0.00000  Uiso   1.00
H486   H     0.80664   0.37867   0.72013   0.00000  Uiso   1.00
H487   H     0.90294   0.42500   0.90961   0.00000  Uiso   1.00
H488   H     0.97468   0.27773   0.96212   0.00000  Uiso   1.00
H489   H     0.76232   0.37961   0.57216   0.00000  Uiso   1.00
H490   H     0.96538   0.47732   0.97171   0.00000  Uiso   1.00
H491   H     0.16696   0.38022   0.74579   0.00000  Uiso   1.00
H492   H     0.20986   0.33262   0.80327   0.00000  Uiso   1.00
H493   H     0.10914   0.38093   0.61832   0.00000  Uiso   1.00
H494   H     0.20544   0.42727   0.80780   0.00000  Uiso   1.00
H495   H     0.22021   0.27957   0.87949   0.00000  Uiso   1.00
H496   H     0.00784   0.38145   0.48953   0.00000  Uiso   1.00
H497   H     0.21090   0.47916   0.88907   0.00000  Uiso   1.00
O498   O     0.12049   0.24730   0.96033   0.00000  Uiso   1.00
O499   O     0.84187   0.38097   0.44873   0.00000  Uiso   1.00
O500   O     0.10828   0.50916   0.97292   0.00000  Uiso   1.00
N501   N     0.02658   0.28470   0.93480   0.00000  Uiso   1.00
N502   N     0.82803   0.37995   0.57021   0.00000  Uiso   1.00
N503   N     0.01787   0.47130   0.94373   0.00000  Uiso   1.00
N504   N     0.15870   0.28569   0.89033   0.00000  Uiso   1.00
N505   N     0.96015   0.38094   0.52575   0.00000  Uiso   1.00
N506   N     0.14999   0.47229   0.89927   0.00000  Uiso   1.00
C507   C     0.44589   0.87856   0.32020   0.00000  Uiso   1.00
C508   C     0.50042   0.85294   0.34092   0.00000  Uiso   1.00
C509   C     0.47267   0.83084   0.38311   0.00000  Uiso   1.00
C510   C     0.53237   0.80937   0.39590   0.00000  Uiso   1.00
C511   C     0.60419   0.76948   0.43238   0.00000  Uiso   1.00
C512   C     0.44570   0.87918   0.24044   0.00000  Uiso   1.00
C513   C     0.37194   0.87915   0.19814   0.00000  Uiso   1.00
C514   C     0.38557   0.87978   0.12634   0.00000  Uiso   1.00
C515   C     0.37243   0.88066   0.00681   0.00000  Uiso   1.00
C516   C     0.49802   0.90435   0.34339   0.00000  Uiso   1.00
C517   C     0.46825   0.92550   0.38764   0.00000  Uiso   1.00
C518   C     0.52593   0.94733   0.40251   0.00000  Uiso   1.00
C519   C     0.59403   0.98729   0.44283   0.00000  Uiso   1.00
C520   C     0.60125   0.87972   0.26790   0.00000  Uiso   1.00
C521   C     0.58481   0.85357   0.31252   0.00000  Uiso   1.00
C522   C     0.64456   0.83213   0.32525   0.00000  Uiso   1.00
C523   C     0.61691   0.81000   0.36745   0.00000  Uiso   1.00
C524   C     0.53008   0.87981   0.21203   0.00000  Uiso   1.00
C525   C     0.54383   0.88044   0.14028   0.00000  Uiso   1.00
C526   C     0.47011   0.88042   0.09789   0.00000  Uiso   1.00
C527   C     0.58241   0.90499   0.31499   0.00000  Uiso   1.00
C528   C     0.64014   0.92679   0.32979   0.00000  Uiso   1.00
C529   C     0.61047   0.94796   0.37406   0.00000  Uiso   1.00
H530   H     0.38019   0.87807   0.34230   0.00000  Uiso   1.00
H531   H     0.40735   0.83036   0.40507   0.00000  Uiso   1.00
H532   H     0.30664   0.87867   0.22013   0.00000  Uiso   1.00
H533   H     0.40294   0.92500   0.40961   0.00000  Uiso   1.00
H534   H     0.47468   0.77773   0.46212   0.00000  Uiso   1.00
H535   H     0.26232   0.87961   0.07216   0.00000  Uiso   1.00
H536   H     0.46538   0.97732   0.47171   0.00000  Uiso   1.00
H537   H     0.66696   0.88022   0.24579   0.00000  Uiso   1.00
H538   H     0.70986   0.83262   0.30327   0.00000  Uiso   1.00
H539   H     0.60914   0.88093   0.11832   0.00000  Uiso   1.00
H540   H     0.70544   0.92727   0.30780   0.00000  Uiso   1.00
H541   H     0.72021   0.77957   0.37949   0.00000  Uiso   1.00
H542   H     0.50784   0.88145   0.98953   0.00000  Uiso   1.00
H543   H     0.71090   0.97916   0.38907   0.00000  Uiso   1.00
O544   O     0.62049   0.74730   0.46033   0.00000  Uiso   1.00
O545   O     0.34187   0.88097   0.94873   0.00000  Uiso   1.00
O546   O     0.60828   0.00916   0.47292   0.00000  Uiso   1.00
N547   N     0.52658   0.78470   0.43480   0.00000  Uiso   1.00
N548   N     0.32803   0.87995   0.07021   0.00000  Uiso   1.00
N549   N     0.51787   0.97130   0.44373   0.00000  Uiso   1.00
N550   N     0.65870   0.78569   0.39033   0.00000  Uiso   1.00
N551   N     0.46015   0.88094   0.02575   0.00000  Uiso   1.00
N552   N     0.64999   0.97229   0.39927   0.00000  Uiso   1.00
C553   C     0.44589   0.12144   0.17980   0.00000  Uiso   1.00
C554   C     0.50042   0.14706   0.15908   0.00000  Uiso   1.00
C555   C     0.47267   0.16916   0.11689   0.00000  Uiso   1.00
C556   C     0.53237   0.19063   0.10410   0.00000  Uiso   1.00
C557   C     0.60419   0.23052   0.06762   0.00000  Uiso   1.00
C558   C     0.44570   0.12082   0.25956   0.00000  Uiso   1.00
C559   C     0.37194   0.12085   0.30186   0.00000  Uiso   1.00
C560   C     0.38557   0.12022   0.37366   0.00000  Uiso   1.00
C561   C     0.37243   0.11934   0.49319   0.00000  Uiso   1.00
C562   C     0.49802   0.09565   0.15661   0.00000  Uiso   1.00
C563   C     0.46825   0.07450   0.11236   0.00000  Uiso   1.00
C564   C     0.52593   0.05267   0.09749   0.00000  Uiso   1.00
C565   C     0.59403   0.01271   0.05717   0.00000  Uiso   1.00
C566   C     0.60125   0.12028   0.23210   0.00000  Uiso   1.00
C567   C     0.58481   0.14643   0.18748   0.00000  Uiso   1.00
C568   C     0.64456   0.16787   0.17475   0.00000  Uiso   1.00
C569   C     0.61691   0.19000   0.13255   0.00000  Uiso   1.00
C570   C     0.53008   0.12019   0.28797   0.00000  Uiso   1.00
C571   C     0.54383   0.11956   0.35972   0.00000  Uiso   1.00
C572   C     0.47011   0.11958   0.40211   0.00000  Uiso   1.00
C573   C     0.58241   0.09501   0.18501   0.00000  Uiso   1.00
C574   C     0.64014   0.07321   0.17021   0.00000  Uiso   1.00
C575   C     0.61047   0.05204   0.12594   0.00000  Uiso   1.00
H576   H     0.38019   0.12193   0.15770   0.00000  Uiso   1.00
H577   H     0.40735   0.16964   0.09493   0.00000  Uiso   1.00
H578   H     0.30664   0.12133   0.27987   0.00000  Uiso   1.00
H579   H     0.40294   0.07500   0.09039   0.00000  Uiso   1.00
H580   H     0.47468   0.22227   0.03788   0.00000  Uiso   1.00
H581   H     0.26232   0.12039   0.42784   0.00000  Uiso   1.00
H582   H     0.46538   0.02268   0.02829   0.00000  Uiso   1.00
H583   H     0.66696   0.11978   0.25421   0.00000  Uiso   1.00
H584   H     0.70986   0.16738   0.19673   0.00000  Uiso   1.00
H585   H     0.60914   0.11907   0.38168   0.00000  Uiso   1.00
H586   H     0.70544   0.07273   0.19220   0.00000  Uiso   1.00
H587   H     0.72021   0.22043   0.12051   0.00000  Uiso   1.00
H588   H     0.50784   0.11855   0.51047   0.00000  Uiso   1.00
H589   H     0.71090   0.02084   0.11093   0.00000  Uiso   1.00
O590   O     0.62049   0.25270   0.03967   0.00000  Uiso   1.00
O591   O     0.34187   0.11903   0.55127   0.00000  Uiso   1.00
O592   O     0.60828   0.99084   0.02708   0.00000  Uiso   1.00
N593   N     0.52658   0.21530   0.06520   0.00000  Uiso   1.00
N594   N     0.32803   0.12005   0.42979   0.00000  Uiso   1.00
N595   N     0.51787   0.02870   0.05627   0.00000  Uiso   1.00
N596   N     0.65870   0.21431   0.10967   0.00000  Uiso   1.00
N597   N     0.46015   0.11906   0.47425   0.00000  Uiso   1.00
N598   N     0.64999   0.02771   0.10073   0.00000  Uiso   1.00
C599   C     0.94589   0.62144   0.67980   0.00000  Uiso   1.00
C600   C     0.00042   0.64706   0.65908   0.00000  Uiso   1.00
C601   C     0.97267   0.66916   0.61689   0.00000  Uiso   1.00
C602   C     0.03237   0.69063   0.60410   0.00000  Uiso   1.00
C603   C     0.10419   0.73052   0.56762   0.00000  Uiso   1.00
C604   C     0.94570   0.62082   0.75956   0.00000  Uiso   1.00
C605   C     0.87194   0.62085   0.80186   0.00000  Uiso   1.00
C606   C     0.88557   0.62022   0.87366   0.00000  Uiso   1.00
C607   C     0.87243   0.61934   0.99319   0.00000  Uiso   1.00
C608   C     0.99802   0.59565   0.65661   0.00000  Uiso   1.00
C609   C     0.96825   0.57450   0.61236   0.00000  Uiso   1.00
C610   C     0.02593   0.55267   0.59749   0.00000  Uiso   1.00
C611   C     0.09403   0.51271   0.55717   0.00000  Uiso   1.00
C612   C     0.10125   0.62028   0.73210   0.00000  Uiso   1.00
C613   C     0.08481   0.64643   0.68748   0.00000  Uiso   1.00
C614   C     0.14456   0.66787   0.67475   0.00000  Uiso   1.00
C615   C     0.11691   0.69000   0.63255   0.00000  Uiso   1.00
C616   C     0.03008   0.62019   0.78797   0.00000  Uiso   1.00
C617   C     0.04383   0.61956   0.85972   0.00000  Uiso   1.00
C618   C     0.97011   0.61958   0.90211   0.00000  Uiso   1.00
C619   C     0.08241   0.59501   0.68501   0.00000  Uiso   1.00
C620   C     0.14014   0.57321   0.67021   0.00000  Uiso   1.00
C621   C     0.11047   0.55204   0.62594   0.00000  Uiso   1.00
H622   H     0.88019   0.62193   0.65770   0.00000  Uiso   1.00
H623   H     0.90735   0.66964   0.59493   0.00000  Uiso   1.00
H624   H     0.80664   0.62133   0.77987   0.00000  Uiso   1.00
H625   H     0.90294   0.57500   0.59039   0.00000  Uiso   1.00
H626   H     0.97468   0.72227   0.53788   0.00000  Uiso   1.00
H627   H     0.76232   0.62039   0.92784   0.00000  Uiso   1.00
H628   H     0.96538   0.52268   0.52829   0.00000  Uiso   1.00
H629   H     0.16696   0.61978   0.75421   0.00000  Uiso   1.00
H630   H     0.20986   0.66738   0.69673   0.00000  Uiso   1.00
H631   H     0.10914   0.61907   0.88168   0.00000  Uiso   1.00
H632   H     0.20544   0.57273   0.69220   0.00000  Uiso   1.00
H633   H     0.22021   0.72043   0.62051   0.00000  Uiso   1.00
H634   H     0.00784   0.61855   0.01047   0.00000  Uiso   1.00
H635   H     0.21090   0.52084   0.61093   0.00000  Uiso   1.00
O636   O     0.12049   0.75270   0.53967   0.00000  Uiso   1.00
O637   O     0.84187   0.61903   0.05127   0.00000  Uiso   1.00
O638   O     0.10828   0.49084   0.52708   0.00000  Uiso   1.00
N639   N     0.02658   0.71530   0.56520   0.00000  Uiso   1.00
N640   N     0.82803   0.62005   0.92979   0.00000  Uiso   1.00
N641   N     0.01787   0.52870   0.55627   0.00000  Uiso   1.00
N642   N     0.15870   0.71431   0.60967   0.00000  Uiso   1.00
N643   N     0.96015   0.61906   0.97425   0.00000  Uiso   1.00
N644   N     0.14999   0.52771   0.60073   0.00000  Uiso   1.00
C645   C     0.05411   0.87856   0.67980   0.00000  Uiso   1.00
C646   C     0.99958   0.85294   0.65908   0.00000  Uiso   1.00
C647   C     0.02733   0.83084   0.61689   0.00000  Uiso   1.00
C648   C     0.96763   0.80937   0.60410   0.00000  Uiso   1.00
C649   C     0.89581   0.76948   0.56762   0.00000  Uiso   1.00
C650   C     0.05430   0.87918   0.75956   0.00000  Uiso   1.00
C651   C     0.12806   0.87915   0.80186   0.00000  Uiso   1.00
C652   C     0.11443   0.87978   0.87366   0.00000  Uiso   1.00
C653   C     0.12757   0.88066   0.99319   0.00000  Uiso   1.00
C654   C     0.00198   0.90435   0.65661   0.00000  Uiso   1.00
C655   C     0.03175   0.92550   0.61236   0.00000  Uiso   1.00
C656   C     0.97407   0.94733   0.59749   0.00000  Uiso   1.00
C657   C     0.90597   0.98729   0.55717   0.00000  Uiso   1.00
C658   C     0.89875   0.87972   0.73210   0.00000  Uiso   1.00
C659   C     0.91519   0.85357   0.68748   0.00000  Uiso   1.00
C660   C     0.85544   0.83213   0.67475   0.00000  Uiso   1.00
C661   C     0.88309   0.81000   0.63255   0.00000  Uiso   1.00
C662   C     0.96992   0.87981   0.78797   0.00000  Uiso   1.00
C663   C     0.95617   0.88044   0.85972   0.00000  Uiso   1.00
C664   C     0.02989   0.88042   0.90211   0.00000  Uiso   1.00
C665   C     0.91759   0.90499   0.68501   0.00000  Uiso   1.00
C666   C     0.85986   0.92679   0.67021   0.00000  Uiso   1.00
C667   C     0.88953   0.94796   0.62594   0.00000  Uiso   1.00
H668   H     0.11981   0.87807   0.65770   0.00000  Uiso   1.00
H669   H     0.09265   0.83036   0.59493   0.00000  Uiso   1.00
H670   H     0.19336   0.87867   0.77987   0.00000  Uiso   1.00
H671   H     0.09706   0.92500   0.59039   0.00000  Uiso   1.00
H672   H     0.02532   0.77773   0.53788   0.00000  Uiso   1.00
H673   H     0.23768   0.87961   0.92784   0.00000  Uiso   1.00
H674   H     0.03462   0.97732   0.52829   0.00000  Uiso   1.00
H675   H     0.83304   0.88022   0.75421   0.00000  Uiso   1.00
H676   H     0.79014   0.83262   0.69673   0.00000  Uiso   1.00
H677   H     0.89086   0.88093   0.88168   0.00000  Uiso   1.00
H678   H     0.79456   0.92727   0.69220   0.00000  Uiso   1.00
H679   H     0.77979   0.77957   0.62051   0.00000  Uiso   1.00
H680   H     0.99216   0.88145   0.01047   0.00000  Uiso   1.00
H681   H     0.78910   0.97916   0.61093   0.00000  Uiso   1.00
O682   O     0.87951   0.74730   0.53967   0.00000  Uiso   1.00
O683   O     0.15813   0.88097   0.05127   0.00000  Uiso   1.00
O684   O     0.89172   0.00916   0.52708   0.00000  Uiso   1.00
N685   N     0.97342   0.78470   0.56520   0.00000  Uiso   1.00
N686   N     0.17197   0.87995   0.92979   0.00000  Uiso   1.00
N687   N     0.98213   0.97130   0.55627   0.00000  Uiso   1.00
N688   N     0.84130   0.78569   0.60967   0.00000  Uiso   1.00
N689   N     0.03985   0.88094   0.97425   0.00000  Uiso   1.00
N690   N     0.85001   0.97229   0.60073   0.00000  Uiso   1.00
C691   C     0.55411   0.37856   0.17980   0.00000  Uiso   1.00
C692   C     0.49958   0.35294   0.15908   0.00000  Uiso   1.00
C693   C     0.52733   0.33084   0.11689   0.00000  Uiso   1.00
C694   C     0.46763   0.30937   0.10410   0.00000  Uiso   1.00
C695   C     0.39581   0.26948   0.06762   0.00000  Uiso   1.00
C696   C     0.55430   0.37918   0.25956   0.00000  Uiso   1.00
C697   C     0.62806   0.37915   0.30186   0.00000  Uiso   1.00
C698   C     0.61443   0.37978   0.37366   0.00000  Uiso   1.00
C699   C     0.62757   0.38066   0.49319   0.00000  Uiso   1.00
C700   C     0.50198   0.40435   0.15661   0.00000  Uiso   1.00
C701   C     0.53175   0.42550   0.11236   0.00000  Uiso   1.00
C702   C     0.47407   0.44733   0.09749   0.00000  Uiso   1.00
C703   C     0.40597   0.48729   0.05717   0.00000  Uiso   1.00
C704   C     0.39875   0.37972   0.23210   0.00000  Uiso   1.00
C705   C     0.41519   0.35357   0.18748   0.00000  Uiso   1.00
C706   C     0.35544   0.33213   0.17475   0.00000  Uiso   1.00
C707   C     0.38309   0.31000   0.13255   0.00000  Uiso   1.00
C708   C     0.46992   0.37981   0.28797   0.00000  Uiso   1.00
C709   C     0.45617   0.38044   0.35972   0.00000  Uiso   1.00
C710   C     0.52989   0.38042   0.40211   0.00000  Uiso   1.00
C711   C     0.41759   0.40499   0.18501   0.00000  Uiso   1.00
C712   C     0.35986   0.42679   0.17021   0.00000  Uiso   1.00
C713   C     0.38953   0.44796   0.12594   0.00000  Uiso   1.00
H714   H     0.61981   0.37807   0.15770   0.00000  Uiso   1.00
H715   H     0.59265   0.33036   0.09493   0.00000  Uiso   1.00
H716   H     0.69336   0.37867   0.27987   0.00000  Uiso   1.00
H717   H     0.59706   0.42500   0.09039   0.00000  Uiso   1.00
H718   H     0.52532   0.27773   0.03788   0.00000  Uiso   1.00
H719   H     0.73768   0.37961   0.42784   0.00000  Uiso   1.00
H720   H     0.53462   0.47732   0.02829   0.00000  Uiso   1.00
H721   H     0.33304   0.38022   0.25421   0.00000  Uiso   1.00
H722   H     0.29014   0.33262   0.19673   0.00000  Uiso   1.00
H723   H     0.39086   0.38093   0.38168   0.00000  Uiso   1.00
H724   H     0.29456   0.42727   0.19220   0.00000  Uiso   1.00
H725   H     0.27979   0.27957   0.12051   0.00000  Uiso   1.00
H726   H     0.49216   0.38145   0.51047   0.00000  Uiso   1.00
H727   H     0.28910   0.47916   0.11093   0.00000  Uiso   1.00
O728   O     0.37951   0.24730   0.03967   0.00000  Uiso   1.00
O729   O     0.65813   0.38097   0.55127   0.00000  Uiso   1.00
O730   O     0.39172   0.50916   0.02708   0.00000  Uiso   1.00
N731   N     0.47342   0.28470   0.06520   0.00000  Uiso   1.00
N732   N     0.67197   0.37995   0.42979   0.00000  Uiso   1.00
N733   N     0.48213   0.47130   0.05627   0.00000  Uiso   1.00
N734   N     0.34130   0.28569   0.10967   0.00000  Uiso   1.00
N735   N     0.53985   0.38094   0.47425   0.00000  Uiso   1.00
N736   N     0.35001   0.47229   0.10073   0.00000  Uiso   1.00
