data_job_06997
_audit_creation_date              2018-12-19
_audit_creation_method            'Materials Studio'
_symmetry_space_group_name_H-M    'P1'
_symmetry_Int_Tables_number       1
_symmetry_cell_setting            triclinic
loop_
_symmetry_equiv_pos_as_xyz
  x,y,z
_cell_length_a                    39.8872
_cell_length_b                    25.9838
_cell_length_c                    21.7297
_cell_angle_alpha                 90.0000
_cell_angle_beta                  62.8587
_cell_angle_gamma                 90.0000
loop_
_atom_site_label
_atom_site_type_symbol
_atom_site_fract_x
_atom_site_fract_y
_atom_site_fract_z
_atom_site_U_iso_or_equiv
_atom_site_adp_type
_atom_site_occupancy
C1     C     0.66754   0.52292   0.16122   0.00000  Uiso   1.00
C2     C     0.67887   0.47266   0.18287   0.00000  Uiso   1.00
C3     C     0.70411   0.46784   0.21017   0.00000  Uiso   1.00
C4     C     0.71071   0.41850   0.22668   0.00000  Uiso   1.00
C5     C     0.73106   0.34698   0.26185   0.00000  Uiso   1.00
C6     C     0.67628   0.51598   0.08570   0.00000  Uiso   1.00
C7     C     0.69934   0.54759   0.03129   0.00000  Uiso   1.00
C8     C     0.70376   0.53472   0.96600   0.00000  Uiso   1.00
C9     C     0.22008   0.03048   0.85031   0.00000  Uiso   1.00
C10    C     0.12474   0.02595   0.20192   0.00000  Uiso   1.00
C11    C     0.10445   0.06596   0.24523   0.00000  Uiso   1.00
C12    C     0.06547   0.06150   0.27777   0.00000  Uiso   1.00
C13    C     0.00175   0.07274   0.34254   0.00000  Uiso   1.00
C14    C     0.63438   0.44387   0.14200   0.00000  Uiso   1.00
C15    C     0.66086   0.42972   0.17243   0.00000  Uiso   1.00
C16    C     0.66742   0.38037   0.18890   0.00000  Uiso   1.00
C17    C     0.69266   0.37548   0.21622   0.00000  Uiso   1.00
C18    C     0.65827   0.47304   0.07525   0.00000  Uiso   1.00
C19    C     0.66266   0.46012   0.01002   0.00000  Uiso   1.00
C20    C     0.18572   0.99171   0.95554   0.00000  Uiso   1.00
C21    C     0.10672   0.98301   0.19148   0.00000  Uiso   1.00
C22    C     0.06777   0.97849   0.22396   0.00000  Uiso   1.00
C23    C     0.04743   0.01848   0.26731   0.00000  Uiso   1.00
H24    H     0.68156   0.55635   0.16935   0.00000  Uiso   1.00
H25    H     0.21804   0.00108   0.21824   0.00000  Uiso   1.00
H26    H     0.71327   0.58082   0.03939   0.00000  Uiso   1.00
H27    H     0.61840   0.59918   0.25330   0.00000  Uiso   1.00
H28    H     0.75056   0.42086   0.26782   0.00000  Uiso   1.00
H29    H     0.74050   0.58901   0.89071   0.00000  Uiso   1.00
H30    H     0.04044   0.12773   0.34176   0.00000  Uiso   1.00
H31    H     0.62035   0.41043   0.13386   0.00000  Uiso   1.00
H32    H     0.65348   0.34715   0.18081   0.00000  Uiso   1.00
H33    H     0.64871   0.42689   0.00196   0.00000  Uiso   1.00
H34    H     0.05384   0.94526   0.21586   0.00000  Uiso   1.00
H35    H     0.69816   0.29593   0.23744   0.00000  Uiso   1.00
H36    H     0.68809   0.46408   0.86033   0.00000  Uiso   1.00
H37    H     0.98803   0.00280   0.31138   0.00000  Uiso   1.00
O38    O     0.74726   0.31940   0.28413   0.00000  Uiso   1.00
O39    O     0.23405   0.04001   0.78938   0.00000  Uiso   1.00
O40    O     0.97158   0.09081   0.38115   0.00000  Uiso   1.00
N41    N     0.73367   0.40014   0.25424   0.00000  Uiso   1.00
N42    N     0.72427   0.55735   0.90166   0.00000  Uiso   1.00
N43    N     0.03723   0.09356   0.32334   0.00000  Uiso   1.00
N44    N     0.70548   0.33292   0.23789   0.00000  Uiso   1.00
N45    N     0.19607   0.99012   0.88531   0.00000  Uiso   1.00
N46    N     0.00903   0.02633   0.30700   0.00000  Uiso   1.00
C47    C     0.55268   0.23421   0.15949   0.00000  Uiso   1.00
C48    C     0.51542   0.25970   0.17365   0.00000  Uiso   1.00
C49    C     0.48211   0.23421   0.18780   0.00000  Uiso   1.00
C50    C     0.45111   0.26447   0.19929   0.00000  Uiso   1.00
C51    C     0.89290   0.79586   0.22164   0.00000  Uiso   1.00
C52    C     0.58160   0.25423   0.08922   0.00000  Uiso   1.00
C53    C     0.60393   0.22414   0.03239   0.00000  Uiso   1.00
C54    C     0.62864   0.24979   0.97281   0.00000  Uiso   1.00
C55    C     0.67320   0.27269   0.86409   0.00000  Uiso   1.00
C56    C     0.56390   0.25658   0.21232   0.00000  Uiso   1.00
C57    C     0.57137   0.22847   0.25899   0.00000  Uiso   1.00
C58    C     0.58120   0.25610   0.30304   0.00000  Uiso   1.00
C59    C     0.59829   0.28265   0.38547   0.00000  Uiso   1.00
C60    C     0.55687   0.33326   0.15473   0.00000  Uiso   1.00
C61    C     0.51769   0.31350   0.17106   0.00000  Uiso   1.00
C62    C     0.98673   0.84381   0.18254   0.00000  Uiso   1.00
C63    C     0.95338   0.81837   0.19671   0.00000  Uiso   1.00
C64    C     0.58387   0.30803   0.08663   0.00000  Uiso   1.00
C65    C     0.60856   0.33373   0.02712   0.00000  Uiso   1.00
C66    C     0.63092   0.30369   0.97022   0.00000  Uiso   1.00
C67    C     0.56618   0.31038   0.20974   0.00000  Uiso   1.00
C68    C     0.57600   0.33806   0.25373   0.00000  Uiso   1.00
C69    C     0.58348   0.31000   0.30045   0.00000  Uiso   1.00
H70    H     0.55092   0.19232   0.16150   0.00000  Uiso   1.00
H71    H     0.48036   0.19257   0.18979   0.00000  Uiso   1.00
H72    H     0.60216   0.18250   0.03441   0.00000  Uiso   1.00
H73    H     0.56961   0.18683   0.26097   0.00000  Uiso   1.00
H74    H     0.40314   0.21658   0.22000   0.00000  Uiso   1.00
H75    H     0.65998   0.19534   0.89237   0.00000  Uiso   1.00
H76    H     0.59134   0.20447   0.37013   0.00000  Uiso   1.00
H77    H     0.55864   0.37515   0.15271   0.00000  Uiso   1.00
H78    H     0.98850   0.88544   0.18053   0.00000  Uiso   1.00
H79    H     0.61031   0.37537   0.02514   0.00000  Uiso   1.00
H80    H     0.57775   0.37970   0.25171   0.00000  Uiso   1.00
H81    H     0.90975   0.87312   0.21248   0.00000  Uiso   1.00
H82    H     0.66660   0.35188   0.88485   0.00000  Uiso   1.00
H83    H     0.59795   0.36101   0.36261   0.00000  Uiso   1.00
O84    O     0.86017   0.79832   0.23467   0.00000  Uiso   1.00
O85    O     0.69715   0.27045   0.80484   0.00000  Uiso   1.00
O86    O     0.60708   0.28243   0.43165   0.00000  Uiso   1.00
N87    N     0.91432   0.75201   0.21443   0.00000  Uiso   1.00
N88    N     0.65445   0.23216   0.90811   0.00000  Uiso   1.00
N89    N     0.59028   0.24069   0.35476   0.00000  Uiso   1.00
N90    N     0.91788   0.83624   0.21038   0.00000  Uiso   1.00
N91    N     0.65800   0.31639   0.90406   0.00000  Uiso   1.00
N92    N     0.59383   0.32492   0.35071   0.00000  Uiso   1.00
C93    C     0.51096   0.70571   0.11534   0.00000  Uiso   1.00
C94    C     0.52266   0.72442   0.16924   0.00000  Uiso   1.00
C95    C     0.50694   0.76562   0.21391   0.00000  Uiso   1.00
C96    C     0.52159   0.77660   0.25940   0.00000  Uiso   1.00
C97    C     0.53532   0.81011   0.34296   0.00000  Uiso   1.00
C98    C     0.54656   0.70679   0.04627   0.00000  Uiso   1.00
C99    C     0.55092   0.73316   0.98753   0.00000  Uiso   1.00
C100   C     0.58568   0.72930   0.92950   0.00000  Uiso   1.00
C101   C     0.63650   0.73541   0.82213   0.00000  Uiso   1.00
C102   C     0.00065   0.14908   0.13145   0.00000  Uiso   1.00
C103   C     0.96641   0.12692   0.14431   0.00000  Uiso   1.00
C104   C     0.96253   0.07447   0.15798   0.00000  Uiso   1.00
C105   C     0.94207   0.99098   0.18286   0.00000  Uiso   1.00
C106   C     0.56495   0.65195   0.11671   0.00000  Uiso   1.00
C107   C     0.55199   0.69522   0.16999   0.00000  Uiso   1.00
C108   C     0.56667   0.70614   0.21543   0.00000  Uiso   1.00
C109   C     0.55097   0.74735   0.26015   0.00000  Uiso   1.00
C110   C     0.57588   0.67759   0.04701   0.00000  Uiso   1.00
C111   C     0.61065   0.67369   0.98905   0.00000  Uiso   1.00
C112   C     0.61506   0.70005   0.93025   0.00000  Uiso   1.00
C113   C     0.02997   0.11988   0.13219   0.00000  Uiso   1.00
C114   C     0.02615   0.06745   0.14584   0.00000  Uiso   1.00
C115   C     0.99191   0.04522   0.15873   0.00000  Uiso   1.00
H116   H     0.48813   0.72844   0.11476   0.00000  Uiso   1.00
H117   H     0.48425   0.78820   0.21331   0.00000  Uiso   1.00
H118   H     0.52822   0.75575   0.98697   0.00000  Uiso   1.00
H119   H     0.94373   0.14953   0.14373   0.00000  Uiso   1.00
H120   H     0.49289   0.84160   0.32289   0.00000  Uiso   1.00
H121   H     0.58560   0.77315   0.84563   0.00000  Uiso   1.00
H122   H     0.90743   0.04916   0.17619   0.00000  Uiso   1.00
H123   H     0.58778   0.62922   0.11729   0.00000  Uiso   1.00
H124   H     0.58936   0.68354   0.21599   0.00000  Uiso   1.00
H125   H     0.63333   0.65109   0.98965   0.00000  Uiso   1.00
H126   H     0.04884   0.04487   0.14641   0.00000  Uiso   1.00
H127   H     0.57820   0.75666   0.32506   0.00000  Uiso   1.00
H128   H     0.67091   0.68820   0.84780   0.00000  Uiso   1.00
H129   H     0.99275   0.96422   0.17836   0.00000  Uiso   1.00
O130   O     0.53480   0.83667   0.38884   0.00000  Uiso   1.00
O131   O     0.65643   0.74685   0.76269   0.00000  Uiso   1.00
O132   O     0.92268   0.95299   0.19638   0.00000  Uiso   1.00
N133   N     0.51274   0.81415   0.30987   0.00000  Uiso   1.00
N134   N     0.59942   0.75016   0.86366   0.00000  Uiso   1.00
N135   N     0.93286   0.04075   0.17268   0.00000  Uiso   1.00
N136   N     0.55865   0.76844   0.31104   0.00000  Uiso   1.00
N137   N     0.64533   0.70445   0.86483   0.00000  Uiso   1.00
N138   N     0.97877   0.99504   0.17385   0.00000  Uiso   1.00
C139   C     0.76842   0.89936   0.53865   0.00000  Uiso   1.00
C140   C     0.78181   0.94678   0.56254   0.00000  Uiso   1.00
C141   C     0.80960   0.94749   0.58417   0.00000  Uiso   1.00
C142   C     0.81778   0.99475   0.60398   0.00000  Uiso   1.00
C143   C     0.84147   0.06154   0.64132   0.00000  Uiso   1.00
C144   C     0.77351   0.91186   0.46632   0.00000  Uiso   1.00
C145   C     0.79432   0.88321   0.40707   0.00000  Uiso   1.00
C146   C     0.79550   0.90107   0.34589   0.00000  Uiso   1.00
C147   C     0.80627   0.91364   0.23386   0.00000  Uiso   1.00
C148   C     0.72603   0.89610   0.58482   0.00000  Uiso   1.00
C149   C     0.70691   0.85420   0.62518   0.00000  Uiso   1.00
C150   C     0.66812   0.85879   0.66375   0.00000  Uiso   1.00
C151   C     0.60517   0.84689   0.73571   0.00000  Uiso   1.00
C152   C     0.73351   0.98203   0.53536   0.00000  Uiso   1.00
C153   C     0.76285   0.99168   0.56075   0.00000  Uiso   1.00
C154   C     0.77099   0.03895   0.58054   0.00000  Uiso   1.00
C155   C     0.79879   0.03973   0.60220   0.00000  Uiso   1.00
C156   C     0.75455   0.95676   0.46454   0.00000  Uiso   1.00
C157   C     0.75570   0.97467   0.40343   0.00000  Uiso   1.00
C158   C     0.77651   0.94605   0.34410   0.00000  Uiso   1.00
C159   C     0.70707   0.94100   0.58304   0.00000  Uiso   1.00
C160   C     0.66829   0.94566   0.62155   0.00000  Uiso   1.00
C161   C     0.64912   0.90377   0.66197   0.00000  Uiso   1.00
H162   H     0.78318   0.86441   0.54003   0.00000  Uiso   1.00
H163   H     0.82427   0.91273   0.58554   0.00000  Uiso   1.00
H164   H     0.80898   0.84846   0.40846   0.00000  Uiso   1.00
H165   H     0.72159   0.81946   0.62655   0.00000  Uiso   1.00
H166   H     0.86148   0.98612   0.63518   0.00000  Uiso   1.00
H167   H     0.82923   0.85059   0.26181   0.00000  Uiso   1.00
H168   H     0.64495   0.78943   0.72168   0.00000  Uiso   1.00
H169   H     0.71875   0.01699   0.53397   0.00000  Uiso   1.00
H170   H     0.75631   0.07369   0.57915   0.00000  Uiso   1.00
H171   H     0.74102   0.00941   0.40207   0.00000  Uiso   1.00
H172   H     0.65363   0.98041   0.62016   0.00000  Uiso   1.00
H173   H     0.80632   0.11675   0.62999   0.00000  Uiso   1.00
H174   H     0.77407   0.98122   0.25663   0.00000  Uiso   1.00
H175   H     0.58979   0.92006   0.71650   0.00000  Uiso   1.00
O176   O     0.85977   0.08598   0.66239   0.00000  Uiso   1.00
O177   O     0.81746   0.90817   0.17256   0.00000  Uiso   1.00
O178   O     0.57569   0.82793   0.77590   0.00000  Uiso   1.00
N179   N     0.84334   0.00908   0.62777   0.00000  Uiso   1.00
N180   N     0.81319   0.88237   0.27870   0.00000  Uiso   1.00
N181   N     0.64090   0.82518   0.70862   0.00000  Uiso   1.00
N182   N     0.81365   0.07937   0.62498   0.00000  Uiso   1.00
N183   N     0.78351   0.95266   0.27591   0.00000  Uiso   1.00
N184   N     0.61122   0.89548   0.70583   0.00000  Uiso   1.00
C185   C     0.63661   0.20625   0.53799   0.00000  Uiso   1.00
C186   C     0.59961   0.18107   0.54988   0.00000  Uiso   1.00
C187   C     0.56635   0.20676   0.56415   0.00000  Uiso   1.00
C188   C     0.53561   0.17677   0.57334   0.00000  Uiso   1.00
C189   C     0.47778   0.14584   0.59251   0.00000  Uiso   1.00
C190   C     0.66605   0.18774   0.46727   0.00000  Uiso   1.00
C191   C     0.68866   0.21904   0.41209   0.00000  Uiso   1.00
C192   C     0.71385   0.19467   0.35175   0.00000  Uiso   1.00
C193   C     0.75920   0.17411   0.24268   0.00000  Uiso   1.00
C194   C     0.64728   0.18214   0.59062   0.00000  Uiso   1.00
C195   C     0.65412   0.20874   0.63914   0.00000  Uiso   1.00
C196   C     0.66351   0.17966   0.68264   0.00000  Uiso   1.00
C197   C     0.67971   0.15040   0.76510   0.00000  Uiso   1.00
C198   C     0.64114   0.10731   0.52895   0.00000  Uiso   1.00
C199   C     0.60207   0.12733   0.54496   0.00000  Uiso   1.00
C200   C     0.57136   0.09729   0.55414   0.00000  Uiso   1.00
C201   C     0.53807   0.12293   0.56842   0.00000  Uiso   1.00
C202   C     0.66851   0.13400   0.46236   0.00000  Uiso   1.00
C203   C     0.69367   0.10958   0.40208   0.00000  Uiso   1.00
C204   C     0.71632   0.14084   0.34682   0.00000  Uiso   1.00
C205   C     0.64974   0.12840   0.58571   0.00000  Uiso   1.00
C206   C     0.65913   0.09928   0.62914   0.00000  Uiso   1.00
C207   C     0.66597   0.12582   0.67772   0.00000  Uiso   1.00
H208   H     0.63470   0.24809   0.54181   0.00000  Uiso   1.00
H209   H     0.56446   0.24834   0.56794   0.00000  Uiso   1.00
H210   H     0.68676   0.26063   0.41591   0.00000  Uiso   1.00
H211   H     0.65221   0.25032   0.64293   0.00000  Uiso   1.00
H212   H     0.48768   0.22493   0.59471   0.00000  Uiso   1.00
H213   H     0.74555   0.25083   0.27415   0.00000  Uiso   1.00
H214   H     0.67271   0.22911   0.75287   0.00000  Uiso   1.00
H215   H     0.64306   0.06547   0.52512   0.00000  Uiso   1.00
H216   H     0.57328   0.05571   0.55034   0.00000  Uiso   1.00
H217   H     0.69557   0.06799   0.39830   0.00000  Uiso   1.00
H218   H     0.66103   0.05769   0.62532   0.00000  Uiso   1.00
H219   H     0.49484   0.06858   0.58042   0.00000  Uiso   1.00
H220   H     0.75271   0.09448   0.25986   0.00000  Uiso   1.00
H221   H     0.67987   0.07276   0.73858   0.00000  Uiso   1.00
O222   O     0.44521   0.14363   0.60443   0.00000  Uiso   1.00
O223   O     0.78353   0.17761   0.18388   0.00000  Uiso   1.00
O224   O     0.68796   0.14911   0.81195   0.00000  Uiso   1.00
N225   N     0.49894   0.18947   0.58790   0.00000  Uiso   1.00
N226   N     0.74003   0.21369   0.28820   0.00000  Uiso   1.00
N227   N     0.67194   0.19338   0.73575   0.00000  Uiso   1.00
N228   N     0.50279   0.10534   0.58022   0.00000  Uiso   1.00
N229   N     0.74388   0.12956   0.28051   0.00000  Uiso   1.00
N230   N     0.67579   0.10925   0.72806   0.00000  Uiso   1.00
C231   C     0.60724   0.72617   0.49744   0.00000  Uiso   1.00
C232   C     0.62074   0.70645   0.54844   0.00000  Uiso   1.00
C233   C     0.60516   0.66576   0.59410   0.00000  Uiso   1.00
C234   C     0.62158   0.65367   0.63650   0.00000  Uiso   1.00
C235   C     0.63786   0.61883   0.71616   0.00000  Uiso   1.00
C236   C     0.64132   0.72375   0.42627   0.00000  Uiso   1.00
C237   C     0.64303   0.69761   0.36921   0.00000  Uiso   1.00
C238   C     0.67677   0.70010   0.30877   0.00000  Uiso   1.00
C239   C     0.72499   0.69215   0.19873   0.00000  Uiso   1.00
C240   C     0.59864   0.78318   0.51358   0.00000  Uiso   1.00
C241   C     0.56446   0.80701   0.52990   0.00000  Uiso   1.00
C242   C     0.56228   0.85954   0.54296   0.00000  Uiso   1.00
C243   C     0.54422   0.94386   0.56848   0.00000  Uiso   1.00
C244   C     0.66412   0.77706   0.49156   0.00000  Uiso   1.00
C245   C     0.65164   0.73409   0.54524   0.00000  Uiso   1.00
C246   C     0.66809   0.72206   0.58759   0.00000  Uiso   1.00
C247   C     0.65253   0.68136   0.63331   0.00000  Uiso   1.00
C248   C     0.67221   0.75139   0.42308   0.00000  Uiso   1.00
C249   C     0.70596   0.75392   0.36270   0.00000  Uiso   1.00
C250   C     0.70772   0.72779   0.30557   0.00000  Uiso   1.00
C251   C     0.62953   0.81082   0.51039   0.00000  Uiso   1.00
C252   C     0.62739   0.86332   0.52340   0.00000  Uiso   1.00
C253   C     0.59323   0.88723   0.53975   0.00000  Uiso   1.00
H254   H     0.58319   0.70465   0.49992   0.00000  Uiso   1.00
H255   H     0.58125   0.64437   0.59655   0.00000  Uiso   1.00
H256   H     0.61912   0.67623   0.37169   0.00000  Uiso   1.00
H257   H     0.54056   0.78561   0.53237   0.00000  Uiso   1.00
H258   H     0.59274   0.58973   0.70225   0.00000  Uiso   1.00
H259   H     0.67257   0.65691   0.22813   0.00000  Uiso   1.00
H260   H     0.50693   0.88756   0.56694   0.00000  Uiso   1.00
H261   H     0.68817   0.79858   0.48907   0.00000  Uiso   1.00
H262   H     0.69200   0.74346   0.58511   0.00000  Uiso   1.00
H263   H     0.72986   0.77532   0.36025   0.00000  Uiso   1.00
H264   H     0.65131   0.88470   0.52093   0.00000  Uiso   1.00
H265   H     0.68262   0.67015   0.69297   0.00000  Uiso   1.00
H266   H     0.76246   0.73733   0.21883   0.00000  Uiso   1.00
H267   H     0.59681   0.96798   0.55765   0.00000  Uiso   1.00
O268   O     0.63831   0.59197   0.76096   0.00000  Uiso   1.00
O269   O     0.74305   0.68012   0.13892   0.00000  Uiso   1.00
O270   O     0.52573   0.98273   0.58345   0.00000  Uiso   1.00
N271   N     0.61336   0.61622   0.68690   0.00000  Uiso   1.00
N272   N     0.68801   0.67903   0.24362   0.00000  Uiso   1.00
N273   N     0.53315   0.89467   0.56037   0.00000  Uiso   1.00
N274   N     0.66173   0.65950   0.68190   0.00000  Uiso   1.00
N275   N     0.73637   0.72230   0.23862   0.00000  Uiso   1.00
N276   N     0.58151   0.93795   0.55537   0.00000  Uiso   1.00
C277   C     0.16754   0.02292   0.16122   0.00000  Uiso   1.00
C278   C     0.17887   0.97266   0.18287   0.00000  Uiso   1.00
C279   C     0.20411   0.96784   0.21017   0.00000  Uiso   1.00
C280   C     0.21071   0.91850   0.22668   0.00000  Uiso   1.00
C281   C     0.23106   0.84698   0.26185   0.00000  Uiso   1.00
C282   C     0.17628   0.01598   0.08570   0.00000  Uiso   1.00
C283   C     0.19934   0.04759   0.03129   0.00000  Uiso   1.00
C284   C     0.20376   0.03472   0.96600   0.00000  Uiso   1.00
C285   C     0.72008   0.53048   0.85031   0.00000  Uiso   1.00
C286   C     0.62474   0.52595   0.20192   0.00000  Uiso   1.00
C287   C     0.60445   0.56596   0.24523   0.00000  Uiso   1.00
C288   C     0.56547   0.56150   0.27777   0.00000  Uiso   1.00
C289   C     0.50175   0.57274   0.34254   0.00000  Uiso   1.00
C290   C     0.13438   0.94387   0.14200   0.00000  Uiso   1.00
C291   C     0.16086   0.92972   0.17243   0.00000  Uiso   1.00
C292   C     0.16742   0.88037   0.18890   0.00000  Uiso   1.00
C293   C     0.19266   0.87548   0.21622   0.00000  Uiso   1.00
C294   C     0.15827   0.97304   0.07525   0.00000  Uiso   1.00
C295   C     0.16266   0.96012   0.01002   0.00000  Uiso   1.00
C296   C     0.68572   0.49171   0.95554   0.00000  Uiso   1.00
C297   C     0.60672   0.48301   0.19148   0.00000  Uiso   1.00
C298   C     0.56777   0.47849   0.22396   0.00000  Uiso   1.00
C299   C     0.54743   0.51848   0.26731   0.00000  Uiso   1.00
H300   H     0.18156   0.05635   0.16935   0.00000  Uiso   1.00
H301   H     0.71804   0.50108   0.21824   0.00000  Uiso   1.00
H302   H     0.21327   0.08082   0.03939   0.00000  Uiso   1.00
H303   H     0.11840   0.09918   0.25330   0.00000  Uiso   1.00
H304   H     0.25056   0.92086   0.26782   0.00000  Uiso   1.00
H305   H     0.24050   0.08901   0.89071   0.00000  Uiso   1.00
H306   H     0.54044   0.62773   0.34176   0.00000  Uiso   1.00
H307   H     0.12035   0.91043   0.13386   0.00000  Uiso   1.00
H308   H     0.15348   0.84715   0.18081   0.00000  Uiso   1.00
H309   H     0.14871   0.92689   0.00196   0.00000  Uiso   1.00
H310   H     0.55384   0.44526   0.21586   0.00000  Uiso   1.00
H311   H     0.19816   0.79593   0.23744   0.00000  Uiso   1.00
H312   H     0.18809   0.96408   0.86033   0.00000  Uiso   1.00
H313   H     0.48803   0.50280   0.31138   0.00000  Uiso   1.00
O314   O     0.24726   0.81940   0.28413   0.00000  Uiso   1.00
O315   O     0.73405   0.54001   0.78938   0.00000  Uiso   1.00
O316   O     0.47158   0.59081   0.38115   0.00000  Uiso   1.00
N317   N     0.23367   0.90014   0.25424   0.00000  Uiso   1.00
N318   N     0.22427   0.05735   0.90166   0.00000  Uiso   1.00
N319   N     0.53723   0.59356   0.32334   0.00000  Uiso   1.00
N320   N     0.20548   0.83292   0.23789   0.00000  Uiso   1.00
N321   N     0.69607   0.49012   0.88531   0.00000  Uiso   1.00
N322   N     0.50903   0.52633   0.30700   0.00000  Uiso   1.00
C323   C     0.05268   0.73421   0.15949   0.00000  Uiso   1.00
C324   C     0.01542   0.75970   0.17365   0.00000  Uiso   1.00
C325   C     0.98211   0.73421   0.18780   0.00000  Uiso   1.00
C326   C     0.95111   0.76447   0.19929   0.00000  Uiso   1.00
C327   C     0.39290   0.29586   0.22164   0.00000  Uiso   1.00
C328   C     0.08160   0.75423   0.08922   0.00000  Uiso   1.00
C329   C     0.10393   0.72414   0.03239   0.00000  Uiso   1.00
C330   C     0.12864   0.74979   0.97281   0.00000  Uiso   1.00
C331   C     0.17320   0.77269   0.86409   0.00000  Uiso   1.00
C332   C     0.06390   0.75658   0.21232   0.00000  Uiso   1.00
C333   C     0.07137   0.72847   0.25899   0.00000  Uiso   1.00
C334   C     0.08120   0.75610   0.30304   0.00000  Uiso   1.00
C335   C     0.09829   0.78265   0.38547   0.00000  Uiso   1.00
C336   C     0.05687   0.83326   0.15473   0.00000  Uiso   1.00
C337   C     0.01769   0.81350   0.17106   0.00000  Uiso   1.00
C338   C     0.48673   0.34381   0.18254   0.00000  Uiso   1.00
C339   C     0.45338   0.31837   0.19671   0.00000  Uiso   1.00
C340   C     0.08387   0.80803   0.08663   0.00000  Uiso   1.00
C341   C     0.10856   0.83373   0.02712   0.00000  Uiso   1.00
C342   C     0.13092   0.80369   0.97022   0.00000  Uiso   1.00
C343   C     0.06618   0.81038   0.20974   0.00000  Uiso   1.00
C344   C     0.07600   0.83806   0.25373   0.00000  Uiso   1.00
C345   C     0.08348   0.81000   0.30045   0.00000  Uiso   1.00
H346   H     0.05092   0.69232   0.16150   0.00000  Uiso   1.00
H347   H     0.98036   0.69257   0.18979   0.00000  Uiso   1.00
H348   H     0.10216   0.68250   0.03441   0.00000  Uiso   1.00
H349   H     0.06961   0.68683   0.26097   0.00000  Uiso   1.00
H350   H     0.90314   0.71658   0.22000   0.00000  Uiso   1.00
H351   H     0.15998   0.69534   0.89237   0.00000  Uiso   1.00
H352   H     0.09134   0.70447   0.37013   0.00000  Uiso   1.00
H353   H     0.05864   0.87515   0.15271   0.00000  Uiso   1.00
H354   H     0.48850   0.38544   0.18053   0.00000  Uiso   1.00
H355   H     0.11031   0.87537   0.02514   0.00000  Uiso   1.00
H356   H     0.07775   0.87970   0.25171   0.00000  Uiso   1.00
H357   H     0.40975   0.37312   0.21248   0.00000  Uiso   1.00
H358   H     0.16660   0.85188   0.88485   0.00000  Uiso   1.00
H359   H     0.09795   0.86101   0.36261   0.00000  Uiso   1.00
O360   O     0.36017   0.29832   0.23467   0.00000  Uiso   1.00
O361   O     0.19715   0.77045   0.80484   0.00000  Uiso   1.00
O362   O     0.10708   0.78243   0.43165   0.00000  Uiso   1.00
N363   N     0.41432   0.25201   0.21443   0.00000  Uiso   1.00
N364   N     0.15445   0.73216   0.90811   0.00000  Uiso   1.00
N365   N     0.09028   0.74069   0.35476   0.00000  Uiso   1.00
N366   N     0.41788   0.33624   0.21038   0.00000  Uiso   1.00
N367   N     0.15800   0.81639   0.90406   0.00000  Uiso   1.00
N368   N     0.09383   0.82492   0.35071   0.00000  Uiso   1.00
C369   C     0.01096   0.20571   0.11534   0.00000  Uiso   1.00
C370   C     0.02266   0.22442   0.16924   0.00000  Uiso   1.00
C371   C     0.00694   0.26562   0.21391   0.00000  Uiso   1.00
C372   C     0.02159   0.27660   0.25940   0.00000  Uiso   1.00
C373   C     0.03532   0.31011   0.34296   0.00000  Uiso   1.00
C374   C     0.04656   0.20679   0.04627   0.00000  Uiso   1.00
C375   C     0.05092   0.23316   0.98753   0.00000  Uiso   1.00
C376   C     0.08568   0.22930   0.92950   0.00000  Uiso   1.00
C377   C     0.13650   0.23541   0.82213   0.00000  Uiso   1.00
C378   C     0.50065   0.64908   0.13145   0.00000  Uiso   1.00
C379   C     0.46641   0.62692   0.14431   0.00000  Uiso   1.00
C380   C     0.46253   0.57447   0.15798   0.00000  Uiso   1.00
C381   C     0.44207   0.49098   0.18286   0.00000  Uiso   1.00
C382   C     0.06495   0.15195   0.11671   0.00000  Uiso   1.00
C383   C     0.05199   0.19522   0.16999   0.00000  Uiso   1.00
C384   C     0.06667   0.20614   0.21543   0.00000  Uiso   1.00
C385   C     0.05097   0.24735   0.26015   0.00000  Uiso   1.00
C386   C     0.07588   0.17759   0.04701   0.00000  Uiso   1.00
C387   C     0.11065   0.17369   0.98905   0.00000  Uiso   1.00
C388   C     0.11506   0.20005   0.93025   0.00000  Uiso   1.00
C389   C     0.52997   0.61988   0.13219   0.00000  Uiso   1.00
C390   C     0.52615   0.56745   0.14584   0.00000  Uiso   1.00
C391   C     0.49191   0.54522   0.15873   0.00000  Uiso   1.00
H392   H     0.98813   0.22844   0.11476   0.00000  Uiso   1.00
H393   H     0.98425   0.28820   0.21331   0.00000  Uiso   1.00
H394   H     0.02822   0.25575   0.98697   0.00000  Uiso   1.00
H395   H     0.44373   0.64953   0.14373   0.00000  Uiso   1.00
H396   H     0.99289   0.34160   0.32289   0.00000  Uiso   1.00
H397   H     0.08560   0.27315   0.84563   0.00000  Uiso   1.00
H398   H     0.40743   0.54916   0.17619   0.00000  Uiso   1.00
H399   H     0.08778   0.12922   0.11729   0.00000  Uiso   1.00
H400   H     0.08936   0.18354   0.21599   0.00000  Uiso   1.00
H401   H     0.13333   0.15109   0.98965   0.00000  Uiso   1.00
H402   H     0.54884   0.54487   0.14641   0.00000  Uiso   1.00
H403   H     0.07820   0.25666   0.32506   0.00000  Uiso   1.00
H404   H     0.17091   0.18820   0.84780   0.00000  Uiso   1.00
H405   H     0.49275   0.46422   0.17836   0.00000  Uiso   1.00
O406   O     0.03480   0.33667   0.38884   0.00000  Uiso   1.00
O407   O     0.15643   0.24685   0.76269   0.00000  Uiso   1.00
O408   O     0.42268   0.45299   0.19638   0.00000  Uiso   1.00
N409   N     0.01274   0.31415   0.30987   0.00000  Uiso   1.00
N410   N     0.09942   0.25016   0.86366   0.00000  Uiso   1.00
N411   N     0.43286   0.54075   0.17268   0.00000  Uiso   1.00
N412   N     0.05865   0.26844   0.31104   0.00000  Uiso   1.00
N413   N     0.14533   0.20445   0.86483   0.00000  Uiso   1.00
N414   N     0.47877   0.49504   0.17385   0.00000  Uiso   1.00
C415   C     0.26842   0.39936   0.53865   0.00000  Uiso   1.00
C416   C     0.28181   0.44678   0.56254   0.00000  Uiso   1.00
C417   C     0.30960   0.44749   0.58417   0.00000  Uiso   1.00
C418   C     0.31778   0.49475   0.60398   0.00000  Uiso   1.00
C419   C     0.34147   0.56154   0.64132   0.00000  Uiso   1.00
C420   C     0.27351   0.41186   0.46632   0.00000  Uiso   1.00
C421   C     0.29432   0.38321   0.40707   0.00000  Uiso   1.00
C422   C     0.29550   0.40107   0.34589   0.00000  Uiso   1.00
C423   C     0.30627   0.41364   0.23386   0.00000  Uiso   1.00
C424   C     0.22603   0.39610   0.58482   0.00000  Uiso   1.00
C425   C     0.20691   0.35420   0.62518   0.00000  Uiso   1.00
C426   C     0.16812   0.35879   0.66375   0.00000  Uiso   1.00
C427   C     0.10517   0.34689   0.73571   0.00000  Uiso   1.00
C428   C     0.23351   0.48203   0.53536   0.00000  Uiso   1.00
C429   C     0.26285   0.49168   0.56075   0.00000  Uiso   1.00
C430   C     0.27099   0.53895   0.58054   0.00000  Uiso   1.00
C431   C     0.29879   0.53973   0.60220   0.00000  Uiso   1.00
C432   C     0.25455   0.45676   0.46454   0.00000  Uiso   1.00
C433   C     0.25570   0.47467   0.40343   0.00000  Uiso   1.00
C434   C     0.27651   0.44605   0.34410   0.00000  Uiso   1.00
C435   C     0.20707   0.44100   0.58304   0.00000  Uiso   1.00
C436   C     0.16829   0.44566   0.62155   0.00000  Uiso   1.00
C437   C     0.14912   0.40377   0.66197   0.00000  Uiso   1.00
H438   H     0.28318   0.36441   0.54003   0.00000  Uiso   1.00
H439   H     0.32427   0.41273   0.58554   0.00000  Uiso   1.00
H440   H     0.30898   0.34846   0.40846   0.00000  Uiso   1.00
H441   H     0.22159   0.31946   0.62655   0.00000  Uiso   1.00
H442   H     0.36148   0.48612   0.63518   0.00000  Uiso   1.00
H443   H     0.32923   0.35059   0.26181   0.00000  Uiso   1.00
H444   H     0.14495   0.28943   0.72168   0.00000  Uiso   1.00
H445   H     0.21875   0.51699   0.53397   0.00000  Uiso   1.00
H446   H     0.25631   0.57369   0.57915   0.00000  Uiso   1.00
H447   H     0.24102   0.50941   0.40207   0.00000  Uiso   1.00
H448   H     0.15363   0.48041   0.62016   0.00000  Uiso   1.00
H449   H     0.30632   0.61675   0.62999   0.00000  Uiso   1.00
H450   H     0.27407   0.48122   0.25663   0.00000  Uiso   1.00
H451   H     0.08979   0.42006   0.71650   0.00000  Uiso   1.00
O452   O     0.35977   0.58598   0.66239   0.00000  Uiso   1.00
O453   O     0.31746   0.40817   0.17256   0.00000  Uiso   1.00
O454   O     0.07569   0.32793   0.77590   0.00000  Uiso   1.00
N455   N     0.34334   0.50908   0.62777   0.00000  Uiso   1.00
N456   N     0.31319   0.38237   0.27870   0.00000  Uiso   1.00
N457   N     0.14090   0.32518   0.70862   0.00000  Uiso   1.00
N458   N     0.31365   0.57937   0.62498   0.00000  Uiso   1.00
N459   N     0.28351   0.45266   0.27591   0.00000  Uiso   1.00
N460   N     0.11122   0.39548   0.70583   0.00000  Uiso   1.00
C461   C     0.13661   0.70625   0.53799   0.00000  Uiso   1.00
C462   C     0.09961   0.68107   0.54988   0.00000  Uiso   1.00
C463   C     0.06635   0.70676   0.56415   0.00000  Uiso   1.00
C464   C     0.03561   0.67677   0.57334   0.00000  Uiso   1.00
C465   C     0.97778   0.64584   0.59251   0.00000  Uiso   1.00
C466   C     0.16605   0.68774   0.46727   0.00000  Uiso   1.00
C467   C     0.18866   0.71904   0.41209   0.00000  Uiso   1.00
C468   C     0.21385   0.69467   0.35175   0.00000  Uiso   1.00
C469   C     0.25920   0.67411   0.24268   0.00000  Uiso   1.00
C470   C     0.14728   0.68214   0.59062   0.00000  Uiso   1.00
C471   C     0.15412   0.70874   0.63914   0.00000  Uiso   1.00
C472   C     0.16351   0.67966   0.68264   0.00000  Uiso   1.00
C473   C     0.17971   0.65040   0.76510   0.00000  Uiso   1.00
C474   C     0.14114   0.60731   0.52895   0.00000  Uiso   1.00
C475   C     0.10207   0.62733   0.54496   0.00000  Uiso   1.00
C476   C     0.07136   0.59729   0.55414   0.00000  Uiso   1.00
C477   C     0.03807   0.62293   0.56842   0.00000  Uiso   1.00
C478   C     0.16851   0.63400   0.46236   0.00000  Uiso   1.00
C479   C     0.19367   0.60958   0.40208   0.00000  Uiso   1.00
C480   C     0.21632   0.64084   0.34682   0.00000  Uiso   1.00
C481   C     0.14974   0.62840   0.58571   0.00000  Uiso   1.00
C482   C     0.15913   0.59928   0.62914   0.00000  Uiso   1.00
C483   C     0.16597   0.62582   0.67772   0.00000  Uiso   1.00
H484   H     0.13470   0.74809   0.54181   0.00000  Uiso   1.00
H485   H     0.06446   0.74834   0.56794   0.00000  Uiso   1.00
H486   H     0.18676   0.76063   0.41591   0.00000  Uiso   1.00
H487   H     0.15221   0.75032   0.64293   0.00000  Uiso   1.00
H488   H     0.98768   0.72493   0.59471   0.00000  Uiso   1.00
H489   H     0.24555   0.75083   0.27415   0.00000  Uiso   1.00
H490   H     0.17271   0.72911   0.75287   0.00000  Uiso   1.00
H491   H     0.14306   0.56547   0.52512   0.00000  Uiso   1.00
H492   H     0.07328   0.55571   0.55034   0.00000  Uiso   1.00
H493   H     0.19557   0.56799   0.39830   0.00000  Uiso   1.00
H494   H     0.16103   0.55769   0.62532   0.00000  Uiso   1.00
H495   H     0.99484   0.56858   0.58042   0.00000  Uiso   1.00
H496   H     0.25271   0.59448   0.25986   0.00000  Uiso   1.00
H497   H     0.17987   0.57276   0.73858   0.00000  Uiso   1.00
O498   O     0.94521   0.64363   0.60443   0.00000  Uiso   1.00
O499   O     0.28353   0.67761   0.18388   0.00000  Uiso   1.00
O500   O     0.18796   0.64911   0.81195   0.00000  Uiso   1.00
N501   N     0.99894   0.68947   0.58790   0.00000  Uiso   1.00
N502   N     0.24003   0.71369   0.28820   0.00000  Uiso   1.00
N503   N     0.17194   0.69338   0.73575   0.00000  Uiso   1.00
N504   N     0.00279   0.60534   0.58022   0.00000  Uiso   1.00
N505   N     0.24388   0.62956   0.28051   0.00000  Uiso   1.00
N506   N     0.17579   0.60925   0.72806   0.00000  Uiso   1.00
C507   C     0.10724   0.22617   0.49744   0.00000  Uiso   1.00
C508   C     0.12074   0.20645   0.54844   0.00000  Uiso   1.00
C509   C     0.10516   0.16576   0.59410   0.00000  Uiso   1.00
C510   C     0.12158   0.15367   0.63650   0.00000  Uiso   1.00
C511   C     0.13786   0.11883   0.71616   0.00000  Uiso   1.00
C512   C     0.14132   0.22375   0.42627   0.00000  Uiso   1.00
C513   C     0.14303   0.19761   0.36921   0.00000  Uiso   1.00
C514   C     0.17677   0.20010   0.30877   0.00000  Uiso   1.00
C515   C     0.22499   0.19215   0.19873   0.00000  Uiso   1.00
C516   C     0.09864   0.28318   0.51358   0.00000  Uiso   1.00
C517   C     0.06446   0.30701   0.52990   0.00000  Uiso   1.00
C518   C     0.06228   0.35954   0.54296   0.00000  Uiso   1.00
C519   C     0.04422   0.44386   0.56848   0.00000  Uiso   1.00
C520   C     0.16412   0.27706   0.49156   0.00000  Uiso   1.00
C521   C     0.15164   0.23409   0.54524   0.00000  Uiso   1.00
C522   C     0.16809   0.22206   0.58759   0.00000  Uiso   1.00
C523   C     0.15253   0.18136   0.63331   0.00000  Uiso   1.00
C524   C     0.17221   0.25139   0.42308   0.00000  Uiso   1.00
C525   C     0.20596   0.25392   0.36270   0.00000  Uiso   1.00
C526   C     0.20772   0.22779   0.30557   0.00000  Uiso   1.00
C527   C     0.12953   0.31082   0.51039   0.00000  Uiso   1.00
C528   C     0.12739   0.36332   0.52340   0.00000  Uiso   1.00
C529   C     0.09323   0.38723   0.53975   0.00000  Uiso   1.00
H530   H     0.08319   0.20465   0.49992   0.00000  Uiso   1.00
H531   H     0.08125   0.14437   0.59655   0.00000  Uiso   1.00
H532   H     0.11912   0.17623   0.37169   0.00000  Uiso   1.00
H533   H     0.04056   0.28561   0.53237   0.00000  Uiso   1.00
H534   H     0.09274   0.08973   0.70225   0.00000  Uiso   1.00
H535   H     0.17257   0.15691   0.22813   0.00000  Uiso   1.00
H536   H     0.00693   0.38756   0.56694   0.00000  Uiso   1.00
H537   H     0.18817   0.29858   0.48907   0.00000  Uiso   1.00
H538   H     0.19200   0.24346   0.58511   0.00000  Uiso   1.00
H539   H     0.22986   0.27532   0.36025   0.00000  Uiso   1.00
H540   H     0.15131   0.38470   0.52093   0.00000  Uiso   1.00
H541   H     0.18262   0.17015   0.69297   0.00000  Uiso   1.00
H542   H     0.26246   0.23733   0.21883   0.00000  Uiso   1.00
H543   H     0.09681   0.46798   0.55765   0.00000  Uiso   1.00
O544   O     0.13831   0.09197   0.76096   0.00000  Uiso   1.00
O545   O     0.24305   0.18012   0.13892   0.00000  Uiso   1.00
O546   O     0.02573   0.48273   0.58345   0.00000  Uiso   1.00
N547   N     0.11336   0.11622   0.68690   0.00000  Uiso   1.00
N548   N     0.18801   0.17903   0.24362   0.00000  Uiso   1.00
N549   N     0.03315   0.39467   0.56037   0.00000  Uiso   1.00
N550   N     0.16173   0.15950   0.68190   0.00000  Uiso   1.00
N551   N     0.23637   0.22230   0.23862   0.00000  Uiso   1.00
N552   N     0.08151   0.43795   0.55537   0.00000  Uiso   1.00
C553   C     0.33246   0.52292   0.83878   0.00000  Uiso   1.00
C554   C     0.32113   0.47266   0.81713   0.00000  Uiso   1.00
C555   C     0.29589   0.46784   0.78983   0.00000  Uiso   1.00
C556   C     0.28929   0.41850   0.77332   0.00000  Uiso   1.00
C557   C     0.26894   0.34698   0.73815   0.00000  Uiso   1.00
C558   C     0.32372   0.51598   0.91430   0.00000  Uiso   1.00
C559   C     0.30066   0.54759   0.96871   0.00000  Uiso   1.00
C560   C     0.29624   0.53472   0.03400   0.00000  Uiso   1.00
C561   C     0.77992   0.03048   0.14969   0.00000  Uiso   1.00
C562   C     0.87526   0.02595   0.79808   0.00000  Uiso   1.00
C563   C     0.89555   0.06596   0.75477   0.00000  Uiso   1.00
C564   C     0.93453   0.06150   0.72223   0.00000  Uiso   1.00
C565   C     0.99825   0.07274   0.65746   0.00000  Uiso   1.00
C566   C     0.36562   0.44387   0.85800   0.00000  Uiso   1.00
C567   C     0.33914   0.42972   0.82757   0.00000  Uiso   1.00
C568   C     0.33258   0.38037   0.81110   0.00000  Uiso   1.00
C569   C     0.30734   0.37548   0.78378   0.00000  Uiso   1.00
C570   C     0.34173   0.47304   0.92475   0.00000  Uiso   1.00
C571   C     0.33734   0.46012   0.98998   0.00000  Uiso   1.00
C572   C     0.81428   0.99171   0.04446   0.00000  Uiso   1.00
C573   C     0.89328   0.98301   0.80852   0.00000  Uiso   1.00
C574   C     0.93223   0.97849   0.77604   0.00000  Uiso   1.00
C575   C     0.95257   0.01848   0.73269   0.00000  Uiso   1.00
H576   H     0.31844   0.55635   0.83065   0.00000  Uiso   1.00
H577   H     0.78196   0.00108   0.78176   0.00000  Uiso   1.00
H578   H     0.28673   0.58082   0.96061   0.00000  Uiso   1.00
H579   H     0.38160   0.59918   0.74670   0.00000  Uiso   1.00
H580   H     0.24944   0.42086   0.73218   0.00000  Uiso   1.00
H581   H     0.25950   0.58901   0.10929   0.00000  Uiso   1.00
H582   H     0.95956   0.12773   0.65824   0.00000  Uiso   1.00
H583   H     0.37965   0.41043   0.86614   0.00000  Uiso   1.00
H584   H     0.34652   0.34715   0.81919   0.00000  Uiso   1.00
H585   H     0.35129   0.42689   0.99804   0.00000  Uiso   1.00
H586   H     0.94616   0.94526   0.78414   0.00000  Uiso   1.00
H587   H     0.30184   0.29593   0.76256   0.00000  Uiso   1.00
H588   H     0.31191   0.46408   0.13967   0.00000  Uiso   1.00
H589   H     0.01197   0.00280   0.68862   0.00000  Uiso   1.00
O590   O     0.25274   0.31940   0.71587   0.00000  Uiso   1.00
O591   O     0.76595   0.04001   0.21062   0.00000  Uiso   1.00
O592   O     0.02842   0.09081   0.61885   0.00000  Uiso   1.00
N593   N     0.26633   0.40014   0.74576   0.00000  Uiso   1.00
N594   N     0.27573   0.55735   0.09834   0.00000  Uiso   1.00
N595   N     0.96277   0.09356   0.67666   0.00000  Uiso   1.00
N596   N     0.29452   0.33292   0.76211   0.00000  Uiso   1.00
N597   N     0.80393   0.99012   0.11469   0.00000  Uiso   1.00
N598   N     0.99097   0.02633   0.69300   0.00000  Uiso   1.00
C599   C     0.44732   0.23421   0.84051   0.00000  Uiso   1.00
C600   C     0.48458   0.25970   0.82635   0.00000  Uiso   1.00
C601   C     0.51789   0.23421   0.81220   0.00000  Uiso   1.00
C602   C     0.54889   0.26447   0.80071   0.00000  Uiso   1.00
C603   C     0.10710   0.79586   0.77836   0.00000  Uiso   1.00
C604   C     0.41840   0.25423   0.91078   0.00000  Uiso   1.00
C605   C     0.39607   0.22414   0.96761   0.00000  Uiso   1.00
C606   C     0.37136   0.24979   0.02719   0.00000  Uiso   1.00
C607   C     0.32680   0.27269   0.13591   0.00000  Uiso   1.00
C608   C     0.43610   0.25658   0.78768   0.00000  Uiso   1.00
C609   C     0.42863   0.22847   0.74101   0.00000  Uiso   1.00
C610   C     0.41880   0.25610   0.69696   0.00000  Uiso   1.00
C611   C     0.40171   0.28265   0.61453   0.00000  Uiso   1.00
C612   C     0.44313   0.33326   0.84527   0.00000  Uiso   1.00
C613   C     0.48231   0.31350   0.82894   0.00000  Uiso   1.00
C614   C     0.01327   0.84381   0.81746   0.00000  Uiso   1.00
C615   C     0.04662   0.81837   0.80329   0.00000  Uiso   1.00
C616   C     0.41613   0.30803   0.91337   0.00000  Uiso   1.00
C617   C     0.39144   0.33373   0.97288   0.00000  Uiso   1.00
C618   C     0.36908   0.30369   0.02978   0.00000  Uiso   1.00
C619   C     0.43382   0.31038   0.79026   0.00000  Uiso   1.00
C620   C     0.42400   0.33806   0.74627   0.00000  Uiso   1.00
C621   C     0.41652   0.31000   0.69955   0.00000  Uiso   1.00
H622   H     0.44908   0.19232   0.83850   0.00000  Uiso   1.00
H623   H     0.51964   0.19257   0.81021   0.00000  Uiso   1.00
H624   H     0.39784   0.18250   0.96559   0.00000  Uiso   1.00
H625   H     0.43039   0.18683   0.73903   0.00000  Uiso   1.00
H626   H     0.59686   0.21658   0.78000   0.00000  Uiso   1.00
H627   H     0.34002   0.19534   0.10763   0.00000  Uiso   1.00
H628   H     0.40866   0.20447   0.62987   0.00000  Uiso   1.00
H629   H     0.44136   0.37515   0.84729   0.00000  Uiso   1.00
H630   H     0.01150   0.88544   0.81947   0.00000  Uiso   1.00
H631   H     0.38969   0.37537   0.97486   0.00000  Uiso   1.00
H632   H     0.42225   0.37970   0.74829   0.00000  Uiso   1.00
H633   H     0.09025   0.87312   0.78752   0.00000  Uiso   1.00
H634   H     0.33340   0.35188   0.11515   0.00000  Uiso   1.00
H635   H     0.40205   0.36101   0.63739   0.00000  Uiso   1.00
O636   O     0.13983   0.79832   0.76533   0.00000  Uiso   1.00
O637   O     0.30285   0.27045   0.19516   0.00000  Uiso   1.00
O638   O     0.39292   0.28243   0.56835   0.00000  Uiso   1.00
N639   N     0.08568   0.75201   0.78557   0.00000  Uiso   1.00
N640   N     0.34555   0.23216   0.09189   0.00000  Uiso   1.00
N641   N     0.40972   0.24069   0.64524   0.00000  Uiso   1.00
N642   N     0.08212   0.83624   0.78962   0.00000  Uiso   1.00
N643   N     0.34200   0.31639   0.09594   0.00000  Uiso   1.00
N644   N     0.40617   0.32492   0.64929   0.00000  Uiso   1.00
C645   C     0.48904   0.70571   0.88466   0.00000  Uiso   1.00
C646   C     0.47734   0.72442   0.83076   0.00000  Uiso   1.00
C647   C     0.49306   0.76562   0.78609   0.00000  Uiso   1.00
C648   C     0.47841   0.77660   0.74060   0.00000  Uiso   1.00
C649   C     0.46468   0.81011   0.65704   0.00000  Uiso   1.00
C650   C     0.45344   0.70679   0.95373   0.00000  Uiso   1.00
C651   C     0.44908   0.73316   0.01247   0.00000  Uiso   1.00
C652   C     0.41432   0.72930   0.07050   0.00000  Uiso   1.00
C653   C     0.36350   0.73541   0.17787   0.00000  Uiso   1.00
C654   C     0.99935   0.14908   0.86855   0.00000  Uiso   1.00
C655   C     0.03359   0.12692   0.85569   0.00000  Uiso   1.00
C656   C     0.03747   0.07447   0.84202   0.00000  Uiso   1.00
C657   C     0.05793   0.99098   0.81714   0.00000  Uiso   1.00
C658   C     0.43505   0.65195   0.88329   0.00000  Uiso   1.00
C659   C     0.44801   0.69522   0.83001   0.00000  Uiso   1.00
C660   C     0.43333   0.70614   0.78457   0.00000  Uiso   1.00
C661   C     0.44903   0.74735   0.73985   0.00000  Uiso   1.00
C662   C     0.42412   0.67759   0.95299   0.00000  Uiso   1.00
C663   C     0.38935   0.67369   0.01095   0.00000  Uiso   1.00
C664   C     0.38494   0.70005   0.06975   0.00000  Uiso   1.00
C665   C     0.97003   0.11988   0.86781   0.00000  Uiso   1.00
C666   C     0.97385   0.06745   0.85416   0.00000  Uiso   1.00
C667   C     0.00809   0.04522   0.84127   0.00000  Uiso   1.00
H668   H     0.51187   0.72844   0.88524   0.00000  Uiso   1.00
H669   H     0.51575   0.78820   0.78669   0.00000  Uiso   1.00
H670   H     0.47178   0.75575   0.01303   0.00000  Uiso   1.00
H671   H     0.05627   0.14953   0.85627   0.00000  Uiso   1.00
H672   H     0.50711   0.84160   0.67711   0.00000  Uiso   1.00
H673   H     0.41440   0.77315   0.15437   0.00000  Uiso   1.00
H674   H     0.09257   0.04916   0.82381   0.00000  Uiso   1.00
H675   H     0.41222   0.62922   0.88271   0.00000  Uiso   1.00
H676   H     0.41064   0.68354   0.78401   0.00000  Uiso   1.00
H677   H     0.36667   0.65109   0.01035   0.00000  Uiso   1.00
H678   H     0.95116   0.04487   0.85359   0.00000  Uiso   1.00
H679   H     0.42180   0.75666   0.67494   0.00000  Uiso   1.00
H680   H     0.32909   0.68820   0.15220   0.00000  Uiso   1.00
H681   H     0.00725   0.96422   0.82164   0.00000  Uiso   1.00
O682   O     0.46520   0.83667   0.61116   0.00000  Uiso   1.00
O683   O     0.34357   0.74685   0.23731   0.00000  Uiso   1.00
O684   O     0.07732   0.95299   0.80362   0.00000  Uiso   1.00
N685   N     0.48726   0.81415   0.69013   0.00000  Uiso   1.00
N686   N     0.40058   0.75016   0.13634   0.00000  Uiso   1.00
N687   N     0.06714   0.04075   0.82732   0.00000  Uiso   1.00
N688   N     0.44135   0.76844   0.68896   0.00000  Uiso   1.00
N689   N     0.35467   0.70445   0.13517   0.00000  Uiso   1.00
N690   N     0.02123   0.99504   0.82615   0.00000  Uiso   1.00
C691   C     0.23158   0.89936   0.46135   0.00000  Uiso   1.00
C692   C     0.21819   0.94678   0.43746   0.00000  Uiso   1.00
C693   C     0.19040   0.94749   0.41583   0.00000  Uiso   1.00
C694   C     0.18222   0.99475   0.39602   0.00000  Uiso   1.00
C695   C     0.15853   0.06154   0.35868   0.00000  Uiso   1.00
C696   C     0.22649   0.91186   0.53368   0.00000  Uiso   1.00
C697   C     0.20568   0.88321   0.59293   0.00000  Uiso   1.00
C698   C     0.20450   0.90107   0.65411   0.00000  Uiso   1.00
C699   C     0.19373   0.91364   0.76614   0.00000  Uiso   1.00
C700   C     0.27397   0.89610   0.41518   0.00000  Uiso   1.00
C701   C     0.29309   0.85420   0.37482   0.00000  Uiso   1.00
C702   C     0.33188   0.85879   0.33625   0.00000  Uiso   1.00
C703   C     0.39483   0.84689   0.26429   0.00000  Uiso   1.00
C704   C     0.26649   0.98203   0.46464   0.00000  Uiso   1.00
C705   C     0.23715   0.99168   0.43925   0.00000  Uiso   1.00
C706   C     0.22901   0.03895   0.41946   0.00000  Uiso   1.00
C707   C     0.20121   0.03973   0.39780   0.00000  Uiso   1.00
C708   C     0.24545   0.95676   0.53546   0.00000  Uiso   1.00
C709   C     0.24430   0.97467   0.59657   0.00000  Uiso   1.00
C710   C     0.22349   0.94605   0.65590   0.00000  Uiso   1.00
C711   C     0.29293   0.94100   0.41696   0.00000  Uiso   1.00
C712   C     0.33171   0.94566   0.37845   0.00000  Uiso   1.00
C713   C     0.35088   0.90377   0.33803   0.00000  Uiso   1.00
H714   H     0.21682   0.86441   0.45997   0.00000  Uiso   1.00
H715   H     0.17573   0.91273   0.41446   0.00000  Uiso   1.00
H716   H     0.19102   0.84846   0.59154   0.00000  Uiso   1.00
H717   H     0.27841   0.81946   0.37345   0.00000  Uiso   1.00
H718   H     0.13852   0.98612   0.36482   0.00000  Uiso   1.00
H719   H     0.17077   0.85059   0.73819   0.00000  Uiso   1.00
H720   H     0.35505   0.78943   0.27832   0.00000  Uiso   1.00
H721   H     0.28125   0.01699   0.46603   0.00000  Uiso   1.00
H722   H     0.24369   0.07369   0.42085   0.00000  Uiso   1.00
H723   H     0.25898   0.00941   0.59793   0.00000  Uiso   1.00
H724   H     0.34637   0.98041   0.37984   0.00000  Uiso   1.00
H725   H     0.19368   0.11675   0.37001   0.00000  Uiso   1.00
H726   H     0.22593   0.98122   0.74337   0.00000  Uiso   1.00
H727   H     0.41021   0.92006   0.28350   0.00000  Uiso   1.00
O728   O     0.14023   0.08598   0.33761   0.00000  Uiso   1.00
O729   O     0.18254   0.90817   0.82744   0.00000  Uiso   1.00
O730   O     0.42431   0.82793   0.22410   0.00000  Uiso   1.00
N731   N     0.15666   0.00908   0.37223   0.00000  Uiso   1.00
N732   N     0.18681   0.88237   0.72130   0.00000  Uiso   1.00
N733   N     0.35910   0.82518   0.29138   0.00000  Uiso   1.00
N734   N     0.18635   0.07937   0.37502   0.00000  Uiso   1.00
N735   N     0.21649   0.95266   0.72409   0.00000  Uiso   1.00
N736   N     0.38878   0.89548   0.29417   0.00000  Uiso   1.00
C737   C     0.36339   0.20625   0.46201   0.00000  Uiso   1.00
C738   C     0.40039   0.18107   0.45012   0.00000  Uiso   1.00
C739   C     0.43365   0.20676   0.43585   0.00000  Uiso   1.00
C740   C     0.46439   0.17677   0.42666   0.00000  Uiso   1.00
C741   C     0.52222   0.14584   0.40749   0.00000  Uiso   1.00
C742   C     0.33395   0.18774   0.53273   0.00000  Uiso   1.00
C743   C     0.31134   0.21904   0.58791   0.00000  Uiso   1.00
C744   C     0.28615   0.19467   0.64825   0.00000  Uiso   1.00
C745   C     0.24080   0.17411   0.75732   0.00000  Uiso   1.00
C746   C     0.35272   0.18214   0.40938   0.00000  Uiso   1.00
C747   C     0.34588   0.20874   0.36086   0.00000  Uiso   1.00
C748   C     0.33649   0.17966   0.31736   0.00000  Uiso   1.00
C749   C     0.32029   0.15040   0.23490   0.00000  Uiso   1.00
C750   C     0.35886   0.10731   0.47105   0.00000  Uiso   1.00
C751   C     0.39793   0.12733   0.45504   0.00000  Uiso   1.00
C752   C     0.42864   0.09729   0.44586   0.00000  Uiso   1.00
C753   C     0.46193   0.12293   0.43158   0.00000  Uiso   1.00
C754   C     0.33149   0.13400   0.53764   0.00000  Uiso   1.00
C755   C     0.30633   0.10958   0.59792   0.00000  Uiso   1.00
C756   C     0.28368   0.14084   0.65318   0.00000  Uiso   1.00
C757   C     0.35026   0.12840   0.41429   0.00000  Uiso   1.00
C758   C     0.34087   0.09928   0.37086   0.00000  Uiso   1.00
C759   C     0.33403   0.12582   0.32228   0.00000  Uiso   1.00
H760   H     0.36530   0.24809   0.45819   0.00000  Uiso   1.00
H761   H     0.43554   0.24834   0.43206   0.00000  Uiso   1.00
H762   H     0.31324   0.26063   0.58409   0.00000  Uiso   1.00
H763   H     0.34779   0.25032   0.35707   0.00000  Uiso   1.00
H764   H     0.51232   0.22493   0.40529   0.00000  Uiso   1.00
H765   H     0.25445   0.25083   0.72585   0.00000  Uiso   1.00
H766   H     0.32729   0.22911   0.24713   0.00000  Uiso   1.00
H767   H     0.35694   0.06547   0.47488   0.00000  Uiso   1.00
H768   H     0.42672   0.05571   0.44966   0.00000  Uiso   1.00
H769   H     0.30443   0.06799   0.60170   0.00000  Uiso   1.00
H770   H     0.33897   0.05769   0.37468   0.00000  Uiso   1.00
H771   H     0.50516   0.06858   0.41958   0.00000  Uiso   1.00
H772   H     0.24729   0.09448   0.74014   0.00000  Uiso   1.00
H773   H     0.32013   0.07276   0.26142   0.00000  Uiso   1.00
O774   O     0.55479   0.14363   0.39557   0.00000  Uiso   1.00
O775   O     0.21647   0.17761   0.81612   0.00000  Uiso   1.00
O776   O     0.31204   0.14911   0.18805   0.00000  Uiso   1.00
N777   N     0.50106   0.18947   0.41210   0.00000  Uiso   1.00
N778   N     0.25997   0.21369   0.71180   0.00000  Uiso   1.00
N779   N     0.32806   0.19338   0.26425   0.00000  Uiso   1.00
N780   N     0.49721   0.10534   0.41978   0.00000  Uiso   1.00
N781   N     0.25612   0.12956   0.71949   0.00000  Uiso   1.00
N782   N     0.32421   0.10925   0.27194   0.00000  Uiso   1.00
C783   C     0.39276   0.72617   0.50256   0.00000  Uiso   1.00
C784   C     0.37926   0.70645   0.45156   0.00000  Uiso   1.00
C785   C     0.39484   0.66576   0.40590   0.00000  Uiso   1.00
C786   C     0.37842   0.65367   0.36350   0.00000  Uiso   1.00
C787   C     0.36214   0.61883   0.28384   0.00000  Uiso   1.00
C788   C     0.35868   0.72375   0.57373   0.00000  Uiso   1.00
C789   C     0.35697   0.69761   0.63079   0.00000  Uiso   1.00
C790   C     0.32323   0.70010   0.69123   0.00000  Uiso   1.00
C791   C     0.27501   0.69215   0.80127   0.00000  Uiso   1.00
C792   C     0.40136   0.78318   0.48642   0.00000  Uiso   1.00
C793   C     0.43554   0.80701   0.47010   0.00000  Uiso   1.00
C794   C     0.43772   0.85954   0.45704   0.00000  Uiso   1.00
C795   C     0.45578   0.94386   0.43152   0.00000  Uiso   1.00
C796   C     0.33588   0.77706   0.50844   0.00000  Uiso   1.00
C797   C     0.34836   0.73409   0.45476   0.00000  Uiso   1.00
C798   C     0.33191   0.72206   0.41241   0.00000  Uiso   1.00
C799   C     0.34747   0.68136   0.36669   0.00000  Uiso   1.00
C800   C     0.32779   0.75139   0.57692   0.00000  Uiso   1.00
C801   C     0.29404   0.75392   0.63730   0.00000  Uiso   1.00
C802   C     0.29228   0.72779   0.69443   0.00000  Uiso   1.00
C803   C     0.37047   0.81082   0.48961   0.00000  Uiso   1.00
C804   C     0.37261   0.86332   0.47660   0.00000  Uiso   1.00
C805   C     0.40677   0.88723   0.46025   0.00000  Uiso   1.00
H806   H     0.41681   0.70465   0.50008   0.00000  Uiso   1.00
H807   H     0.41875   0.64437   0.40345   0.00000  Uiso   1.00
H808   H     0.38088   0.67623   0.62831   0.00000  Uiso   1.00
H809   H     0.45944   0.78561   0.46763   0.00000  Uiso   1.00
H810   H     0.40726   0.58973   0.29775   0.00000  Uiso   1.00
H811   H     0.32743   0.65691   0.77187   0.00000  Uiso   1.00
H812   H     0.49307   0.88756   0.43306   0.00000  Uiso   1.00
H813   H     0.31183   0.79858   0.51093   0.00000  Uiso   1.00
H814   H     0.30800   0.74346   0.41489   0.00000  Uiso   1.00
H815   H     0.27014   0.77532   0.63975   0.00000  Uiso   1.00
H816   H     0.34869   0.88470   0.47907   0.00000  Uiso   1.00
H817   H     0.31738   0.67015   0.30703   0.00000  Uiso   1.00
H818   H     0.23754   0.73733   0.78117   0.00000  Uiso   1.00
H819   H     0.40319   0.96798   0.44235   0.00000  Uiso   1.00
O820   O     0.36169   0.59197   0.23904   0.00000  Uiso   1.00
O821   O     0.25695   0.68012   0.86108   0.00000  Uiso   1.00
O822   O     0.47427   0.98273   0.41655   0.00000  Uiso   1.00
N823   N     0.38664   0.61622   0.31310   0.00000  Uiso   1.00
N824   N     0.31199   0.67903   0.75638   0.00000  Uiso   1.00
N825   N     0.46685   0.89467   0.43963   0.00000  Uiso   1.00
N826   N     0.33827   0.65950   0.31810   0.00000  Uiso   1.00
N827   N     0.26363   0.72230   0.76138   0.00000  Uiso   1.00
N828   N     0.41849   0.93795   0.44463   0.00000  Uiso   1.00
C829   C     0.83246   0.02292   0.83878   0.00000  Uiso   1.00
C830   C     0.82113   0.97266   0.81713   0.00000  Uiso   1.00
C831   C     0.79589   0.96784   0.78983   0.00000  Uiso   1.00
C832   C     0.78929   0.91850   0.77332   0.00000  Uiso   1.00
C833   C     0.76894   0.84698   0.73815   0.00000  Uiso   1.00
C834   C     0.82372   0.01598   0.91430   0.00000  Uiso   1.00
C835   C     0.80066   0.04759   0.96871   0.00000  Uiso   1.00
C836   C     0.79624   0.03472   0.03400   0.00000  Uiso   1.00
C837   C     0.27992   0.53048   0.14969   0.00000  Uiso   1.00
C838   C     0.37526   0.52595   0.79808   0.00000  Uiso   1.00
C839   C     0.39555   0.56596   0.75477   0.00000  Uiso   1.00
C840   C     0.43453   0.56150   0.72223   0.00000  Uiso   1.00
C841   C     0.49825   0.57274   0.65746   0.00000  Uiso   1.00
C842   C     0.86562   0.94387   0.85800   0.00000  Uiso   1.00
C843   C     0.83914   0.92972   0.82757   0.00000  Uiso   1.00
C844   C     0.83258   0.88037   0.81110   0.00000  Uiso   1.00
C845   C     0.80734   0.87548   0.78378   0.00000  Uiso   1.00
C846   C     0.84173   0.97304   0.92475   0.00000  Uiso   1.00
C847   C     0.83734   0.96012   0.98998   0.00000  Uiso   1.00
C848   C     0.31428   0.49171   0.04446   0.00000  Uiso   1.00
C849   C     0.39328   0.48301   0.80852   0.00000  Uiso   1.00
C850   C     0.43223   0.47849   0.77604   0.00000  Uiso   1.00
C851   C     0.45257   0.51848   0.73269   0.00000  Uiso   1.00
H852   H     0.81844   0.05635   0.83065   0.00000  Uiso   1.00
H853   H     0.28196   0.50108   0.78176   0.00000  Uiso   1.00
H854   H     0.78673   0.08082   0.96061   0.00000  Uiso   1.00
H855   H     0.88160   0.09918   0.74670   0.00000  Uiso   1.00
H856   H     0.74944   0.92086   0.73218   0.00000  Uiso   1.00
H857   H     0.75950   0.08901   0.10929   0.00000  Uiso   1.00
H858   H     0.45956   0.62773   0.65824   0.00000  Uiso   1.00
H859   H     0.87965   0.91043   0.86614   0.00000  Uiso   1.00
H860   H     0.84652   0.84715   0.81919   0.00000  Uiso   1.00
H861   H     0.85129   0.92689   0.99804   0.00000  Uiso   1.00
H862   H     0.44616   0.44526   0.78414   0.00000  Uiso   1.00
H863   H     0.80184   0.79593   0.76256   0.00000  Uiso   1.00
H864   H     0.81191   0.96408   0.13967   0.00000  Uiso   1.00
H865   H     0.51197   0.50280   0.68862   0.00000  Uiso   1.00
O866   O     0.75274   0.81940   0.71587   0.00000  Uiso   1.00
O867   O     0.26595   0.54001   0.21062   0.00000  Uiso   1.00
O868   O     0.52842   0.59081   0.61885   0.00000  Uiso   1.00
N869   N     0.76633   0.90014   0.74576   0.00000  Uiso   1.00
N870   N     0.77573   0.05735   0.09834   0.00000  Uiso   1.00
N871   N     0.46277   0.59356   0.67666   0.00000  Uiso   1.00
N872   N     0.79452   0.83292   0.76211   0.00000  Uiso   1.00
N873   N     0.30393   0.49012   0.11469   0.00000  Uiso   1.00
N874   N     0.49097   0.52633   0.69300   0.00000  Uiso   1.00
C875   C     0.94732   0.73421   0.84051   0.00000  Uiso   1.00
C876   C     0.98458   0.75970   0.82635   0.00000  Uiso   1.00
C877   C     0.01789   0.73421   0.81220   0.00000  Uiso   1.00
C878   C     0.04889   0.76447   0.80071   0.00000  Uiso   1.00
C879   C     0.60710   0.29586   0.77836   0.00000  Uiso   1.00
C880   C     0.91840   0.75423   0.91078   0.00000  Uiso   1.00
C881   C     0.89607   0.72414   0.96761   0.00000  Uiso   1.00
C882   C     0.87136   0.74979   0.02719   0.00000  Uiso   1.00
C883   C     0.82680   0.77269   0.13591   0.00000  Uiso   1.00
C884   C     0.93610   0.75658   0.78768   0.00000  Uiso   1.00
C885   C     0.92863   0.72847   0.74101   0.00000  Uiso   1.00
C886   C     0.91880   0.75610   0.69696   0.00000  Uiso   1.00
C887   C     0.90171   0.78265   0.61453   0.00000  Uiso   1.00
C888   C     0.94313   0.83326   0.84527   0.00000  Uiso   1.00
C889   C     0.98231   0.81350   0.82894   0.00000  Uiso   1.00
C890   C     0.51327   0.34381   0.81746   0.00000  Uiso   1.00
C891   C     0.54662   0.31837   0.80329   0.00000  Uiso   1.00
C892   C     0.91613   0.80803   0.91337   0.00000  Uiso   1.00
C893   C     0.89144   0.83373   0.97288   0.00000  Uiso   1.00
C894   C     0.86908   0.80369   0.02978   0.00000  Uiso   1.00
C895   C     0.93382   0.81038   0.79026   0.00000  Uiso   1.00
C896   C     0.92400   0.83806   0.74627   0.00000  Uiso   1.00
C897   C     0.91652   0.81000   0.69955   0.00000  Uiso   1.00
H898   H     0.94908   0.69232   0.83850   0.00000  Uiso   1.00
H899   H     0.01964   0.69257   0.81021   0.00000  Uiso   1.00
H900   H     0.89784   0.68250   0.96559   0.00000  Uiso   1.00
H901   H     0.93039   0.68683   0.73903   0.00000  Uiso   1.00
H902   H     0.09686   0.71658   0.78000   0.00000  Uiso   1.00
H903   H     0.84002   0.69534   0.10763   0.00000  Uiso   1.00
H904   H     0.90866   0.70447   0.62987   0.00000  Uiso   1.00
H905   H     0.94136   0.87515   0.84729   0.00000  Uiso   1.00
H906   H     0.51150   0.38544   0.81947   0.00000  Uiso   1.00
H907   H     0.88969   0.87537   0.97486   0.00000  Uiso   1.00
H908   H     0.92225   0.87970   0.74829   0.00000  Uiso   1.00
H909   H     0.59025   0.37312   0.78752   0.00000  Uiso   1.00
H910   H     0.83340   0.85188   0.11515   0.00000  Uiso   1.00
H911   H     0.90205   0.86101   0.63739   0.00000  Uiso   1.00
O912   O     0.63983   0.29832   0.76533   0.00000  Uiso   1.00
O913   O     0.80285   0.77045   0.19516   0.00000  Uiso   1.00
O914   O     0.89292   0.78243   0.56835   0.00000  Uiso   1.00
N915   N     0.58568   0.25201   0.78557   0.00000  Uiso   1.00
N916   N     0.84555   0.73216   0.09189   0.00000  Uiso   1.00
N917   N     0.90972   0.74069   0.64524   0.00000  Uiso   1.00
N918   N     0.58212   0.33624   0.78962   0.00000  Uiso   1.00
N919   N     0.84200   0.81639   0.09594   0.00000  Uiso   1.00
N920   N     0.90617   0.82492   0.64929   0.00000  Uiso   1.00
C921   C     0.98904   0.20571   0.88466   0.00000  Uiso   1.00
C922   C     0.97734   0.22442   0.83076   0.00000  Uiso   1.00
C923   C     0.99306   0.26562   0.78609   0.00000  Uiso   1.00
C924   C     0.97841   0.27660   0.74060   0.00000  Uiso   1.00
C925   C     0.96468   0.31011   0.65704   0.00000  Uiso   1.00
C926   C     0.95344   0.20679   0.95373   0.00000  Uiso   1.00
C927   C     0.94908   0.23316   0.01247   0.00000  Uiso   1.00
C928   C     0.91432   0.22930   0.07050   0.00000  Uiso   1.00
C929   C     0.86350   0.23541   0.17787   0.00000  Uiso   1.00
C930   C     0.49935   0.64908   0.86855   0.00000  Uiso   1.00
C931   C     0.53359   0.62692   0.85569   0.00000  Uiso   1.00
C932   C     0.53747   0.57447   0.84202   0.00000  Uiso   1.00
C933   C     0.55793   0.49098   0.81714   0.00000  Uiso   1.00
C934   C     0.93505   0.15195   0.88329   0.00000  Uiso   1.00
C935   C     0.94801   0.19522   0.83001   0.00000  Uiso   1.00
C936   C     0.93333   0.20614   0.78457   0.00000  Uiso   1.00
C937   C     0.94903   0.24735   0.73985   0.00000  Uiso   1.00
C938   C     0.92412   0.17759   0.95299   0.00000  Uiso   1.00
C939   C     0.88935   0.17369   0.01095   0.00000  Uiso   1.00
C940   C     0.88494   0.20005   0.06975   0.00000  Uiso   1.00
C941   C     0.47003   0.61988   0.86781   0.00000  Uiso   1.00
C942   C     0.47385   0.56745   0.85416   0.00000  Uiso   1.00
C943   C     0.50809   0.54522   0.84127   0.00000  Uiso   1.00
H944   H     0.01187   0.22844   0.88524   0.00000  Uiso   1.00
H945   H     0.01575   0.28820   0.78669   0.00000  Uiso   1.00
H946   H     0.97178   0.25575   0.01303   0.00000  Uiso   1.00
H947   H     0.55627   0.64953   0.85627   0.00000  Uiso   1.00
H948   H     0.00711   0.34160   0.67711   0.00000  Uiso   1.00
H949   H     0.91440   0.27315   0.15437   0.00000  Uiso   1.00
H950   H     0.59257   0.54916   0.82381   0.00000  Uiso   1.00
H951   H     0.91222   0.12922   0.88271   0.00000  Uiso   1.00
H952   H     0.91064   0.18354   0.78401   0.00000  Uiso   1.00
H953   H     0.86667   0.15109   0.01035   0.00000  Uiso   1.00
H954   H     0.45116   0.54487   0.85359   0.00000  Uiso   1.00
H955   H     0.92180   0.25666   0.67494   0.00000  Uiso   1.00
H956   H     0.82909   0.18820   0.15220   0.00000  Uiso   1.00
H957   H     0.50725   0.46422   0.82164   0.00000  Uiso   1.00
O958   O     0.96520   0.33667   0.61116   0.00000  Uiso   1.00
O959   O     0.84357   0.24685   0.23731   0.00000  Uiso   1.00
O960   O     0.57732   0.45299   0.80362   0.00000  Uiso   1.00
N961   N     0.98726   0.31415   0.69013   0.00000  Uiso   1.00
N962   N     0.90058   0.25016   0.13634   0.00000  Uiso   1.00
N963   N     0.56714   0.54075   0.82732   0.00000  Uiso   1.00
N964   N     0.94135   0.26844   0.68896   0.00000  Uiso   1.00
N965   N     0.85467   0.20445   0.13517   0.00000  Uiso   1.00
N966   N     0.52123   0.49504   0.82615   0.00000  Uiso   1.00
C967   C     0.73158   0.39936   0.46135   0.00000  Uiso   1.00
C968   C     0.71819   0.44678   0.43746   0.00000  Uiso   1.00
C969   C     0.69040   0.44749   0.41583   0.00000  Uiso   1.00
C970   C     0.68222   0.49475   0.39602   0.00000  Uiso   1.00
C971   C     0.65853   0.56154   0.35868   0.00000  Uiso   1.00
C972   C     0.72649   0.41186   0.53368   0.00000  Uiso   1.00
C973   C     0.70568   0.38321   0.59293   0.00000  Uiso   1.00
C974   C     0.70450   0.40107   0.65411   0.00000  Uiso   1.00
C975   C     0.69373   0.41364   0.76614   0.00000  Uiso   1.00
C976   C     0.77397   0.39610   0.41518   0.00000  Uiso   1.00
C977   C     0.79309   0.35420   0.37482   0.00000  Uiso   1.00
C978   C     0.83188   0.35879   0.33625   0.00000  Uiso   1.00
C979   C     0.89483   0.34689   0.26429   0.00000  Uiso   1.00
C980   C     0.76649   0.48203   0.46464   0.00000  Uiso   1.00
C981   C     0.73715   0.49168   0.43925   0.00000  Uiso   1.00
C982   C     0.72901   0.53895   0.41946   0.00000  Uiso   1.00
C983   C     0.70121   0.53973   0.39780   0.00000  Uiso   1.00
C984   C     0.74545   0.45676   0.53546   0.00000  Uiso   1.00
C985   C     0.74430   0.47467   0.59657   0.00000  Uiso   1.00
C986   C     0.72349   0.44605   0.65590   0.00000  Uiso   1.00
C987   C     0.79293   0.44100   0.41696   0.00000  Uiso   1.00
C988   C     0.83171   0.44566   0.37845   0.00000  Uiso   1.00
C989   C     0.85088   0.40377   0.33803   0.00000  Uiso   1.00
H990   H     0.71682   0.36441   0.45997   0.00000  Uiso   1.00
H991   H     0.67573   0.41273   0.41446   0.00000  Uiso   1.00
H992   H     0.69102   0.34846   0.59154   0.00000  Uiso   1.00
H993   H     0.77841   0.31946   0.37345   0.00000  Uiso   1.00
H994   H     0.63852   0.48612   0.36482   0.00000  Uiso   1.00
H995   H     0.67077   0.35059   0.73819   0.00000  Uiso   1.00
H996   H     0.85505   0.28943   0.27832   0.00000  Uiso   1.00
H997   H     0.78125   0.51699   0.46603   0.00000  Uiso   1.00
H998   H     0.74369   0.57369   0.42085   0.00000  Uiso   1.00
H999   H     0.75898   0.50941   0.59793   0.00000  Uiso   1.00
H1000  H     0.84637   0.48041   0.37984   0.00000  Uiso   1.00
H1001  H     0.69368   0.61675   0.37001   0.00000  Uiso   1.00
H1002  H     0.72593   0.48122   0.74337   0.00000  Uiso   1.00
H1003  H     0.91021   0.42006   0.28350   0.00000  Uiso   1.00
O1004  O     0.64023   0.58598   0.33761   0.00000  Uiso   1.00
O1005  O     0.68254   0.40817   0.82744   0.00000  Uiso   1.00
O1006  O     0.92431   0.32793   0.22410   0.00000  Uiso   1.00
N1007  N     0.65666   0.50908   0.37223   0.00000  Uiso   1.00
N1008  N     0.68681   0.38237   0.72130   0.00000  Uiso   1.00
N1009  N     0.85910   0.32518   0.29138   0.00000  Uiso   1.00
N1010  N     0.68635   0.57937   0.37502   0.00000  Uiso   1.00
N1011  N     0.71649   0.45266   0.72409   0.00000  Uiso   1.00
N1012  N     0.88878   0.39548   0.29417   0.00000  Uiso   1.00
C1013  C     0.86339   0.70625   0.46201   0.00000  Uiso   1.00
C1014  C     0.90039   0.68107   0.45012   0.00000  Uiso   1.00
C1015  C     0.93365   0.70676   0.43585   0.00000  Uiso   1.00
C1016  C     0.96439   0.67677   0.42666   0.00000  Uiso   1.00
C1017  C     0.02222   0.64584   0.40749   0.00000  Uiso   1.00
C1018  C     0.83395   0.68774   0.53273   0.00000  Uiso   1.00
C1019  C     0.81134   0.71904   0.58791   0.00000  Uiso   1.00
C1020  C     0.78615   0.69467   0.64825   0.00000  Uiso   1.00
C1021  C     0.74080   0.67411   0.75732   0.00000  Uiso   1.00
C1022  C     0.85272   0.68214   0.40938   0.00000  Uiso   1.00
C1023  C     0.84588   0.70874   0.36086   0.00000  Uiso   1.00
C1024  C     0.83649   0.67966   0.31736   0.00000  Uiso   1.00
C1025  C     0.82029   0.65040   0.23490   0.00000  Uiso   1.00
C1026  C     0.85886   0.60731   0.47105   0.00000  Uiso   1.00
C1027  C     0.89793   0.62733   0.45504   0.00000  Uiso   1.00
C1028  C     0.92864   0.59729   0.44586   0.00000  Uiso   1.00
C1029  C     0.96193   0.62293   0.43158   0.00000  Uiso   1.00
C1030  C     0.83149   0.63400   0.53764   0.00000  Uiso   1.00
C1031  C     0.80633   0.60958   0.59792   0.00000  Uiso   1.00
C1032  C     0.78368   0.64084   0.65318   0.00000  Uiso   1.00
C1033  C     0.85026   0.62840   0.41429   0.00000  Uiso   1.00
C1034  C     0.84087   0.59928   0.37086   0.00000  Uiso   1.00
C1035  C     0.83403   0.62582   0.32228   0.00000  Uiso   1.00
H1036  H     0.86530   0.74809   0.45819   0.00000  Uiso   1.00
H1037  H     0.93554   0.74834   0.43206   0.00000  Uiso   1.00
H1038  H     0.81324   0.76063   0.58409   0.00000  Uiso   1.00
H1039  H     0.84779   0.75032   0.35707   0.00000  Uiso   1.00
H1040  H     0.01232   0.72493   0.40529   0.00000  Uiso   1.00
H1041  H     0.75445   0.75083   0.72585   0.00000  Uiso   1.00
H1042  H     0.82729   0.72911   0.24713   0.00000  Uiso   1.00
H1043  H     0.85694   0.56547   0.47488   0.00000  Uiso   1.00
H1044  H     0.92672   0.55571   0.44966   0.00000  Uiso   1.00
H1045  H     0.80443   0.56799   0.60170   0.00000  Uiso   1.00
H1046  H     0.83897   0.55769   0.37468   0.00000  Uiso   1.00
H1047  H     0.00516   0.56858   0.41958   0.00000  Uiso   1.00
H1048  H     0.74729   0.59448   0.74014   0.00000  Uiso   1.00
H1049  H     0.82013   0.57276   0.26142   0.00000  Uiso   1.00
O1050  O     0.05479   0.64363   0.39557   0.00000  Uiso   1.00
O1051  O     0.71647   0.67761   0.81612   0.00000  Uiso   1.00
O1052  O     0.81204   0.64911   0.18805   0.00000  Uiso   1.00
N1053  N     0.00106   0.68947   0.41210   0.00000  Uiso   1.00
N1054  N     0.75997   0.71369   0.71180   0.00000  Uiso   1.00
N1055  N     0.82806   0.69338   0.26425   0.00000  Uiso   1.00
N1056  N     0.99721   0.60534   0.41978   0.00000  Uiso   1.00
N1057  N     0.75612   0.62956   0.71949   0.00000  Uiso   1.00
N1058  N     0.82421   0.60925   0.27194   0.00000  Uiso   1.00
C1059  C     0.89276   0.22617   0.50256   0.00000  Uiso   1.00
C1060  C     0.87926   0.20645   0.45156   0.00000  Uiso   1.00
C1061  C     0.89484   0.16576   0.40590   0.00000  Uiso   1.00
C1062  C     0.87842   0.15367   0.36350   0.00000  Uiso   1.00
C1063  C     0.86214   0.11883   0.28384   0.00000  Uiso   1.00
C1064  C     0.85868   0.22375   0.57373   0.00000  Uiso   1.00
C1065  C     0.85697   0.19761   0.63079   0.00000  Uiso   1.00
C1066  C     0.82323   0.20010   0.69123   0.00000  Uiso   1.00
C1067  C     0.77501   0.19215   0.80127   0.00000  Uiso   1.00
C1068  C     0.90136   0.28318   0.48642   0.00000  Uiso   1.00
C1069  C     0.93554   0.30701   0.47010   0.00000  Uiso   1.00
C1070  C     0.93772   0.35954   0.45704   0.00000  Uiso   1.00
C1071  C     0.95578   0.44386   0.43152   0.00000  Uiso   1.00
C1072  C     0.83588   0.27706   0.50844   0.00000  Uiso   1.00
C1073  C     0.84836   0.23409   0.45476   0.00000  Uiso   1.00
C1074  C     0.83191   0.22206   0.41241   0.00000  Uiso   1.00
C1075  C     0.84747   0.18136   0.36669   0.00000  Uiso   1.00
C1076  C     0.82779   0.25139   0.57692   0.00000  Uiso   1.00
C1077  C     0.79404   0.25392   0.63730   0.00000  Uiso   1.00
C1078  C     0.79228   0.22779   0.69443   0.00000  Uiso   1.00
C1079  C     0.87047   0.31082   0.48961   0.00000  Uiso   1.00
C1080  C     0.87261   0.36332   0.47660   0.00000  Uiso   1.00
C1081  C     0.90677   0.38723   0.46025   0.00000  Uiso   1.00
H1082  H     0.91681   0.20465   0.50008   0.00000  Uiso   1.00
H1083  H     0.91875   0.14437   0.40345   0.00000  Uiso   1.00
H1084  H     0.88088   0.17623   0.62831   0.00000  Uiso   1.00
H1085  H     0.95944   0.28561   0.46763   0.00000  Uiso   1.00
H1086  H     0.90726   0.08973   0.29775   0.00000  Uiso   1.00
H1087  H     0.82743   0.15691   0.77187   0.00000  Uiso   1.00
H1088  H     0.99307   0.38756   0.43306   0.00000  Uiso   1.00
H1089  H     0.81183   0.29858   0.51093   0.00000  Uiso   1.00
H1090  H     0.80800   0.24346   0.41489   0.00000  Uiso   1.00
H1091  H     0.77014   0.27532   0.63975   0.00000  Uiso   1.00
H1092  H     0.84869   0.38470   0.47907   0.00000  Uiso   1.00
H1093  H     0.81738   0.17015   0.30703   0.00000  Uiso   1.00
H1094  H     0.73754   0.23733   0.78117   0.00000  Uiso   1.00
H1095  H     0.90319   0.46798   0.44235   0.00000  Uiso   1.00
O1096  O     0.86169   0.09197   0.23904   0.00000  Uiso   1.00
O1097  O     0.75695   0.18012   0.86108   0.00000  Uiso   1.00
O1098  O     0.97427   0.48273   0.41655   0.00000  Uiso   1.00
N1099  N     0.88664   0.11622   0.31310   0.00000  Uiso   1.00
N1100  N     0.81199   0.17903   0.75638   0.00000  Uiso   1.00
N1101  N     0.96685   0.39467   0.43963   0.00000  Uiso   1.00
N1102  N     0.83827   0.15950   0.31810   0.00000  Uiso   1.00
N1103  N     0.76363   0.22230   0.76138   0.00000  Uiso   1.00
N1104  N     0.91849   0.43795   0.44463   0.00000  Uiso   1.00
