data_job_06811
_audit_creation_date              2018-12-19
_audit_creation_method            'Materials Studio'
_symmetry_space_group_name_H-M    'P1'
_symmetry_Int_Tables_number       1
_symmetry_cell_setting            triclinic
loop_
_symmetry_equiv_pos_as_xyz
  x,y,z
_cell_length_a                    43.7665
_cell_length_b                    21.2789
_cell_length_c                    31.2976
_cell_angle_alpha                 90.0000
_cell_angle_beta                  146.5265
_cell_angle_gamma                 90.0000
loop_
_atom_site_label
_atom_site_type_symbol
_atom_site_fract_x
_atom_site_fract_y
_atom_site_fract_z
_atom_site_U_iso_or_equiv
_atom_site_adp_type
_atom_site_occupancy
C1     C     0.30071   0.00383   0.29513   0.00000  Uiso   1.00
C2     C     0.81490   0.43664   0.29874   0.00000  Uiso   1.00
C3     C     0.80651   0.41043   0.24888   0.00000  Uiso   1.00
C4     C     0.82226   0.34818   0.26183   0.00000  Uiso   1.00
C5     C     0.84072   0.24913   0.25819   0.00000  Uiso   1.00
C6     C     0.76224   0.49846   0.28873   0.00000  Uiso   1.00
C7     C     0.20959   0.02424   0.23046   0.00000  Uiso   1.00
C8     C     0.18101   0.01404   0.23499   0.00000  Uiso   1.00
C9     C     0.11774   0.01100   0.21584   0.00000  Uiso   1.00
C10    C     0.85436   0.53256   0.37444   0.00000  Uiso   1.00
C11    C     0.87916   0.58703   0.38822   0.00000  Uiso   1.00
C12    C     0.92813   0.60555   0.46491   0.00000  Uiso   1.00
C13    C     0.00789   0.65547   0.57883   0.00000  Uiso   1.00
C14    C     0.84358   0.43988   0.40680   0.00000  Uiso   1.00
C15    C     0.83818   0.40190   0.35940   0.00000  Uiso   1.00
C16    C     0.85395   0.33968   0.37243   0.00000  Uiso   1.00
C17    C     0.84559   0.31339   0.32260   0.00000  Uiso   1.00
C18    C     0.78553   0.46372   0.34939   0.00000  Uiso   1.00
C19    C     0.25702   0.95349   0.35401   0.00000  Uiso   1.00
C20    C     0.20434   0.97924   0.29576   0.00000  Uiso   1.00
C21    C     0.37765   0.99783   0.43510   0.00000  Uiso   1.00
C22    C     0.42659   0.01627   0.51178   0.00000  Uiso   1.00
C23    C     0.45146   0.07076   0.52568   0.00000  Uiso   1.00
H24    H     0.28258   0.03087   0.24790   0.00000  Uiso   1.00
H25    H     0.28849   0.93732   0.20194   0.00000  Uiso   1.00
H26    H     0.69158   0.55112   0.18353   0.00000  Uiso   1.00
H27    H     0.86113   0.61390   0.34127   0.00000  Uiso   1.00
H28    H     0.80529   0.31829   0.17771   0.00000  Uiso   1.00
H29    H     0.60097   0.55825   0.13891   0.00000  Uiso   1.00
H30    H     0.95848   0.69063   0.47153   0.00000  Uiso   1.00
H31    H     0.86171   0.41284   0.45403   0.00000  Uiso   1.00
H32    H     0.87197   0.31281   0.41938   0.00000  Uiso   1.00
H33    H     0.27506   0.92661   0.40096   0.00000  Uiso   1.00
H34    H     0.44460   0.98938   0.55870   0.00000  Uiso   1.00
H35    H     0.87304   0.21723   0.35419   0.00000  Uiso   1.00
H36    H     0.16871   0.95719   0.31538   0.00000  Uiso   1.00
H37    H     0.52623   0.08957   0.64801   0.00000  Uiso   1.00
O38    O     0.84447   0.20408   0.23941   0.00000  Uiso   1.00
O39    O     0.07640   0.01891   0.18852   0.00000  Uiso   1.00
O40    O     0.04546   0.69259   0.62491   0.00000  Uiso   1.00
N41    N     0.81984   0.30823   0.22401   0.00000  Uiso   1.00
N42    N     0.12880   0.03258   0.18772   0.00000  Uiso   1.00
N43    N     0.96304   0.65635   0.49870   0.00000  Uiso   1.00
N44    N     0.85630   0.25385   0.31897   0.00000  Uiso   1.00
N45    N     0.16526   0.97820   0.28268   0.00000  Uiso   1.00
N46    N     0.99950   0.60197   0.59366   0.00000  Uiso   1.00
C47    C     0.65341   0.32899   0.01331   0.00000  Uiso   1.00
C48    C     0.14463   0.87280   0.96511   0.00000  Uiso   1.00
C49    C     0.17848   0.92288   0.99342   0.00000  Uiso   1.00
C50    C     0.16335   0.95729   0.93993   0.00000  Uiso   1.00
C51    C     0.15690   0.02764   0.87709   0.00000  Uiso   1.00
C52    C     0.60036   0.33235   0.97780   0.00000  Uiso   1.00
C53    C     0.59700   0.34841   0.01678   0.00000  Uiso   1.00
C54    C     0.54461   0.34875   0.97397   0.00000  Uiso   1.00
C55    C     0.46944   0.35625   0.93084   0.00000  Uiso   1.00
C56    C     0.65556   0.26268   0.99743   0.00000  Uiso   1.00
C57    C     0.69861   0.22015   0.05292   0.00000  Uiso   1.00
C58    C     0.69268   0.16183   0.02665   0.00000  Uiso   1.00
C59    C     0.70322   0.06116   0.01401   0.00000  Uiso   1.00
C60    C     0.56634   0.30104   0.86798   0.00000  Uiso   1.00
C61    C     0.09733   0.85762   0.88617   0.00000  Uiso   1.00
C62    C     0.08215   0.89195   0.83263   0.00000  Uiso   1.00
C63    C     0.11598   0.94208   0.86085   0.00000  Uiso   1.00
C64    C     0.55307   0.31717   0.89886   0.00000  Uiso   1.00
C65    C     0.50067   0.31748   0.85599   0.00000  Uiso   1.00
C66    C     0.49723   0.33354   0.89489   0.00000  Uiso   1.00
C67    C     0.60827   0.24750   0.91850   0.00000  Uiso   1.00
C68    C     0.60228   0.18923   0.89213   0.00000  Uiso   1.00
C69    C     0.64531   0.14662   0.94757   0.00000  Uiso   1.00
H70    H     0.69022   0.34081   0.07476   0.00000  Uiso   1.00
H71    H     0.21507   0.93462   0.05451   0.00000  Uiso   1.00
H72    H     0.63361   0.36015   0.07787   0.00000  Uiso   1.00
H73    H     0.73520   0.23192   0.11400   0.00000  Uiso   1.00
H74    H     0.22176   0.03194   0.99723   0.00000  Uiso   1.00
H75    H     0.54998   0.37489   0.04649   0.00000  Uiso   1.00
H76    H     0.76421   0.10448   0.12270   0.00000  Uiso   1.00
H77    H     0.02952   0.78922   0.80652   0.00000  Uiso   1.00
H78    H     0.04555   0.88019   0.77154   0.00000  Uiso   1.00
H79    H     0.46409   0.30573   0.79491   0.00000  Uiso   1.00
H80    H     0.56567   0.17749   0.83104   0.00000  Uiso   1.00
H81    H     0.08417   0.98777   0.76757   0.00000  Uiso   1.00
H82    H     0.41239   0.33072   0.81683   0.00000  Uiso   1.00
H83    H     0.62661   0.06031   0.89304   0.00000  Uiso   1.00
O84    O     0.16640   0.07064   0.86423   0.00000  Uiso   1.00
O85    O     0.44104   0.36460   0.92886   0.00000  Uiso   1.00
O86    O     0.72210   0.00983   0.02884   0.00000  Uiso   1.00
N87    N     0.18718   0.00905   0.94798   0.00000  Uiso   1.00
N88    N     0.52658   0.36223   0.99404   0.00000  Uiso   1.00
N89    N     0.72686   0.10942   0.06529   0.00000  Uiso   1.00
N90    N     0.11315   0.98528   0.82440   0.00000  Uiso   1.00
N91    N     0.45255   0.33846   0.87046   0.00000  Uiso   1.00
N92    N     0.65282   0.08565   0.94171   0.00000  Uiso   1.00
C93    C     0.13968   0.17273   0.96647   0.00000  Uiso   1.00
C94    C     0.69223   0.69767   0.04883   0.00000  Uiso   1.00
C95    C     0.24256   0.16634   0.10990   0.00000  Uiso   1.00
C96    C     0.78564   0.69714   0.18077   0.00000  Uiso   1.00
C97    C     0.86831   0.72674   0.30723   0.00000  Uiso   1.00
C98    C     0.09490   0.17454   0.94859   0.00000  Uiso   1.00
C99    C     0.06339   0.12375   0.92536   0.00000  Uiso   1.00
C100   C     0.02454   0.13508   0.91184   0.00000  Uiso   1.00
C101   C     0.45607   0.62877   0.88261   0.00000  Uiso   1.00
C102   C     0.12302   0.22164   0.91383   0.00000  Uiso   1.00
C103   C     0.11513   0.21046   0.86137   0.00000  Uiso   1.00
C104   C     0.09994   0.26145   0.81857   0.00000  Uiso   1.00
C105   C     0.07513   0.32828   0.73539   0.00000  Uiso   1.00
C106   C     0.62671   0.78316   0.98373   0.00000  Uiso   1.00
C107   C     0.68519   0.75766   0.05820   0.00000  Uiso   1.00
C108   C     0.72821   0.78852   0.12900   0.00000  Uiso   1.00
C109   C     0.77859   0.75723   0.19016   0.00000  Uiso   1.00
C110   C     0.58786   0.73452   0.95796   0.00000  Uiso   1.00
C111   C     0.54904   0.74593   0.94446   0.00000  Uiso   1.00
C112   C     0.51748   0.69517   0.92123   0.00000  Uiso   1.00
C113   C     0.61598   0.78163   0.92321   0.00000  Uiso   1.00
C114   C     0.60079   0.83264   0.88048   0.00000  Uiso   1.00
C115   C     0.59289   0.82154   0.82797   0.00000  Uiso   1.00
H116   H     0.14516   0.12602   0.95917   0.00000  Uiso   1.00
H117   H     0.24799   0.11991   0.10262   0.00000  Uiso   1.00
H118   H     0.06884   0.07734   0.91810   0.00000  Uiso   1.00
H119   H     0.12059   0.16403   0.85413   0.00000  Uiso   1.00
H120   H     0.85888   0.63958   0.26581   0.00000  Uiso   1.00
H121   H     0.98113   0.04981   0.87672   0.00000  Uiso   1.00
H122   H     0.09024   0.23263   0.74181   0.00000  Uiso   1.00
H123   H     0.62123   0.82986   0.99103   0.00000  Uiso   1.00
H124   H     0.72275   0.83494   0.13624   0.00000  Uiso   1.00
H125   H     0.54360   0.79236   0.95172   0.00000  Uiso   1.00
H126   H     0.59534   0.87905   0.88775   0.00000  Uiso   1.00
H127   H     0.83839   0.81410   0.29309   0.00000  Uiso   1.00
H128   H     0.46064   0.72433   0.90400   0.00000  Uiso   1.00
H129   H     0.56975   0.90715   0.76910   0.00000  Uiso   1.00
O130   O     0.91584   0.72649   0.37440   0.00000  Uiso   1.00
O131   O     0.42025   0.60872   0.86391   0.00000  Uiso   1.00
O132   O     0.06339   0.34857   0.68693   0.00000  Uiso   1.00
N133   N     0.84013   0.67996   0.25230   0.00000  Uiso   1.00
N134   N     0.98696   0.09603   0.88853   0.00000  Uiso   1.00
N135   N     0.08895   0.26694   0.76239   0.00000  Uiso   1.00
N136   N     0.82911   0.77387   0.26698   0.00000  Uiso   1.00
N137   N     0.47594   0.68994   0.90321   0.00000  Uiso   1.00
N138   N     0.57793   0.86085   0.77708   0.00000  Uiso   1.00
C139   C     0.80071   0.50383   0.29513   0.00000  Uiso   1.00
C140   C     0.31490   0.93664   0.29874   0.00000  Uiso   1.00
C141   C     0.30651   0.91043   0.24888   0.00000  Uiso   1.00
C142   C     0.32226   0.84818   0.26183   0.00000  Uiso   1.00
C143   C     0.34072   0.74913   0.25819   0.00000  Uiso   1.00
C144   C     0.26224   0.99846   0.28873   0.00000  Uiso   1.00
C145   C     0.70959   0.52424   0.23046   0.00000  Uiso   1.00
C146   C     0.68101   0.51404   0.23499   0.00000  Uiso   1.00
C147   C     0.61774   0.51100   0.21584   0.00000  Uiso   1.00
C148   C     0.35436   0.03256   0.37444   0.00000  Uiso   1.00
C149   C     0.37916   0.08703   0.38822   0.00000  Uiso   1.00
C150   C     0.42813   0.10555   0.46491   0.00000  Uiso   1.00
C151   C     0.50789   0.15547   0.57883   0.00000  Uiso   1.00
C152   C     0.34358   0.93988   0.40680   0.00000  Uiso   1.00
C153   C     0.33818   0.90190   0.35940   0.00000  Uiso   1.00
C154   C     0.35395   0.83968   0.37243   0.00000  Uiso   1.00
C155   C     0.34559   0.81339   0.32260   0.00000  Uiso   1.00
C156   C     0.28553   0.96372   0.34939   0.00000  Uiso   1.00
C157   C     0.75702   0.45349   0.35401   0.00000  Uiso   1.00
C158   C     0.70434   0.47924   0.29576   0.00000  Uiso   1.00
C159   C     0.87765   0.49783   0.43510   0.00000  Uiso   1.00
C160   C     0.92659   0.51627   0.51178   0.00000  Uiso   1.00
C161   C     0.95146   0.57076   0.52568   0.00000  Uiso   1.00
H162   H     0.78258   0.53087   0.24790   0.00000  Uiso   1.00
H163   H     0.78849   0.43732   0.20194   0.00000  Uiso   1.00
H164   H     0.19158   0.05112   0.18353   0.00000  Uiso   1.00
H165   H     0.36113   0.11390   0.34127   0.00000  Uiso   1.00
H166   H     0.30529   0.81829   0.17771   0.00000  Uiso   1.00
H167   H     0.10097   0.05825   0.13891   0.00000  Uiso   1.00
H168   H     0.45848   0.19063   0.47153   0.00000  Uiso   1.00
H169   H     0.36171   0.91284   0.45403   0.00000  Uiso   1.00
H170   H     0.37197   0.81281   0.41938   0.00000  Uiso   1.00
H171   H     0.77506   0.42661   0.40096   0.00000  Uiso   1.00
H172   H     0.94460   0.48938   0.55870   0.00000  Uiso   1.00
H173   H     0.37304   0.71723   0.35419   0.00000  Uiso   1.00
H174   H     0.66871   0.45719   0.31538   0.00000  Uiso   1.00
H175   H     0.02623   0.58957   0.64801   0.00000  Uiso   1.00
O176   O     0.34447   0.70408   0.23941   0.00000  Uiso   1.00
O177   O     0.57640   0.51891   0.18852   0.00000  Uiso   1.00
O178   O     0.54546   0.19259   0.62491   0.00000  Uiso   1.00
N179   N     0.31984   0.80823   0.22401   0.00000  Uiso   1.00
N180   N     0.62880   0.53258   0.18772   0.00000  Uiso   1.00
N181   N     0.46304   0.15635   0.49870   0.00000  Uiso   1.00
N182   N     0.35630   0.75385   0.31897   0.00000  Uiso   1.00
N183   N     0.66526   0.47820   0.28268   0.00000  Uiso   1.00
N184   N     0.49950   0.10197   0.59366   0.00000  Uiso   1.00
C185   C     0.15341   0.82899   0.01331   0.00000  Uiso   1.00
C186   C     0.64463   0.37280   0.96511   0.00000  Uiso   1.00
C187   C     0.67848   0.42288   0.99342   0.00000  Uiso   1.00
C188   C     0.66335   0.45729   0.93993   0.00000  Uiso   1.00
C189   C     0.65690   0.52764   0.87709   0.00000  Uiso   1.00
C190   C     0.10036   0.83235   0.97780   0.00000  Uiso   1.00
C191   C     0.09700   0.84841   0.01678   0.00000  Uiso   1.00
C192   C     0.04461   0.84875   0.97397   0.00000  Uiso   1.00
C193   C     0.96944   0.85625   0.93084   0.00000  Uiso   1.00
C194   C     0.15556   0.76268   0.99743   0.00000  Uiso   1.00
C195   C     0.19861   0.72015   0.05292   0.00000  Uiso   1.00
C196   C     0.19268   0.66183   0.02665   0.00000  Uiso   1.00
C197   C     0.20322   0.56116   0.01401   0.00000  Uiso   1.00
C198   C     0.06634   0.80104   0.86798   0.00000  Uiso   1.00
C199   C     0.59733   0.35762   0.88617   0.00000  Uiso   1.00
C200   C     0.58215   0.39195   0.83263   0.00000  Uiso   1.00
C201   C     0.61598   0.44208   0.86085   0.00000  Uiso   1.00
C202   C     0.05307   0.81717   0.89886   0.00000  Uiso   1.00
C203   C     0.00067   0.81748   0.85599   0.00000  Uiso   1.00
C204   C     0.99723   0.83354   0.89489   0.00000  Uiso   1.00
C205   C     0.10827   0.74750   0.91850   0.00000  Uiso   1.00
C206   C     0.10228   0.68923   0.89213   0.00000  Uiso   1.00
C207   C     0.14531   0.64662   0.94757   0.00000  Uiso   1.00
H208   H     0.19022   0.84081   0.07476   0.00000  Uiso   1.00
H209   H     0.71507   0.43462   0.05451   0.00000  Uiso   1.00
H210   H     0.13361   0.86015   0.07787   0.00000  Uiso   1.00
H211   H     0.23520   0.73192   0.11400   0.00000  Uiso   1.00
H212   H     0.72176   0.53194   0.99723   0.00000  Uiso   1.00
H213   H     0.04998   0.87489   0.04649   0.00000  Uiso   1.00
H214   H     0.26421   0.60448   0.12270   0.00000  Uiso   1.00
H215   H     0.52952   0.28922   0.80652   0.00000  Uiso   1.00
H216   H     0.54555   0.38019   0.77154   0.00000  Uiso   1.00
H217   H     0.96409   0.80573   0.79491   0.00000  Uiso   1.00
H218   H     0.06567   0.67749   0.83104   0.00000  Uiso   1.00
H219   H     0.58417   0.48777   0.76757   0.00000  Uiso   1.00
H220   H     0.91239   0.83072   0.81683   0.00000  Uiso   1.00
H221   H     0.12661   0.56031   0.89304   0.00000  Uiso   1.00
O222   O     0.66640   0.57064   0.86423   0.00000  Uiso   1.00
O223   O     0.94104   0.86460   0.92886   0.00000  Uiso   1.00
O224   O     0.22210   0.50983   0.02884   0.00000  Uiso   1.00
N225   N     0.68718   0.50905   0.94798   0.00000  Uiso   1.00
N226   N     0.02658   0.86223   0.99404   0.00000  Uiso   1.00
N227   N     0.22686   0.60942   0.06529   0.00000  Uiso   1.00
N228   N     0.61315   0.48528   0.82440   0.00000  Uiso   1.00
N229   N     0.95255   0.83846   0.87046   0.00000  Uiso   1.00
N230   N     0.15282   0.58565   0.94171   0.00000  Uiso   1.00
C231   C     0.63968   0.67273   0.96647   0.00000  Uiso   1.00
C232   C     0.19223   0.19767   0.04883   0.00000  Uiso   1.00
C233   C     0.74256   0.66634   0.10990   0.00000  Uiso   1.00
C234   C     0.28564   0.19714   0.18077   0.00000  Uiso   1.00
C235   C     0.36831   0.22674   0.30723   0.00000  Uiso   1.00
C236   C     0.59490   0.67454   0.94859   0.00000  Uiso   1.00
C237   C     0.56339   0.62375   0.92536   0.00000  Uiso   1.00
C238   C     0.52454   0.63508   0.91184   0.00000  Uiso   1.00
C239   C     0.95607   0.12877   0.88261   0.00000  Uiso   1.00
C240   C     0.62302   0.72164   0.91383   0.00000  Uiso   1.00
C241   C     0.61513   0.71046   0.86137   0.00000  Uiso   1.00
C242   C     0.59994   0.76145   0.81857   0.00000  Uiso   1.00
C243   C     0.57513   0.82828   0.73539   0.00000  Uiso   1.00
C244   C     0.12671   0.28316   0.98373   0.00000  Uiso   1.00
C245   C     0.18519   0.25766   0.05820   0.00000  Uiso   1.00
C246   C     0.22821   0.28852   0.12900   0.00000  Uiso   1.00
C247   C     0.27859   0.25723   0.19016   0.00000  Uiso   1.00
C248   C     0.08786   0.23452   0.95796   0.00000  Uiso   1.00
C249   C     0.04904   0.24593   0.94446   0.00000  Uiso   1.00
C250   C     0.01748   0.19517   0.92123   0.00000  Uiso   1.00
C251   C     0.11598   0.28163   0.92321   0.00000  Uiso   1.00
C252   C     0.10079   0.33264   0.88048   0.00000  Uiso   1.00
C253   C     0.09289   0.32154   0.82797   0.00000  Uiso   1.00
H254   H     0.64516   0.62602   0.95917   0.00000  Uiso   1.00
H255   H     0.74799   0.61991   0.10262   0.00000  Uiso   1.00
H256   H     0.56884   0.57734   0.91810   0.00000  Uiso   1.00
H257   H     0.62059   0.66403   0.85413   0.00000  Uiso   1.00
H258   H     0.35888   0.13958   0.26581   0.00000  Uiso   1.00
H259   H     0.48113   0.54981   0.87672   0.00000  Uiso   1.00
H260   H     0.59024   0.73263   0.74181   0.00000  Uiso   1.00
H261   H     0.12123   0.32986   0.99103   0.00000  Uiso   1.00
H262   H     0.22275   0.33494   0.13624   0.00000  Uiso   1.00
H263   H     0.04360   0.29236   0.95172   0.00000  Uiso   1.00
H264   H     0.09534   0.37905   0.88775   0.00000  Uiso   1.00
H265   H     0.33839   0.31410   0.29309   0.00000  Uiso   1.00
H266   H     0.96064   0.22433   0.90400   0.00000  Uiso   1.00
H267   H     0.06975   0.40715   0.76910   0.00000  Uiso   1.00
O268   O     0.41584   0.22649   0.37440   0.00000  Uiso   1.00
O269   O     0.92025   0.10872   0.86391   0.00000  Uiso   1.00
O270   O     0.56339   0.84857   0.68693   0.00000  Uiso   1.00
N271   N     0.34013   0.17996   0.25230   0.00000  Uiso   1.00
N272   N     0.48696   0.59603   0.88853   0.00000  Uiso   1.00
N273   N     0.58895   0.76694   0.76239   0.00000  Uiso   1.00
N274   N     0.32911   0.27387   0.26698   0.00000  Uiso   1.00
N275   N     0.97594   0.18994   0.90321   0.00000  Uiso   1.00
N276   N     0.07793   0.36085   0.77708   0.00000  Uiso   1.00
C277   C     0.69929   0.00383   0.20487   0.00000  Uiso   1.00
C278   C     0.18510   0.43664   0.20126   0.00000  Uiso   1.00
C279   C     0.19349   0.41043   0.25112   0.00000  Uiso   1.00
C280   C     0.17774   0.34818   0.23817   0.00000  Uiso   1.00
C281   C     0.15928   0.24913   0.24181   0.00000  Uiso   1.00
C282   C     0.23776   0.49846   0.21127   0.00000  Uiso   1.00
C283   C     0.79041   0.02424   0.26954   0.00000  Uiso   1.00
C284   C     0.81899   0.01404   0.26501   0.00000  Uiso   1.00
C285   C     0.88226   0.01100   0.28416   0.00000  Uiso   1.00
C286   C     0.14564   0.53256   0.12556   0.00000  Uiso   1.00
C287   C     0.12084   0.58703   0.11178   0.00000  Uiso   1.00
C288   C     0.07187   0.60555   0.03509   0.00000  Uiso   1.00
C289   C     0.99211   0.65547   0.92117   0.00000  Uiso   1.00
C290   C     0.15642   0.43988   0.09320   0.00000  Uiso   1.00
C291   C     0.16182   0.40190   0.14060   0.00000  Uiso   1.00
C292   C     0.14605   0.33968   0.12757   0.00000  Uiso   1.00
C293   C     0.15441   0.31339   0.17740   0.00000  Uiso   1.00
C294   C     0.21447   0.46372   0.15061   0.00000  Uiso   1.00
C295   C     0.74298   0.95349   0.14599   0.00000  Uiso   1.00
C296   C     0.79566   0.97924   0.20424   0.00000  Uiso   1.00
C297   C     0.62235   0.99783   0.06490   0.00000  Uiso   1.00
C298   C     0.57341   0.01627   0.98822   0.00000  Uiso   1.00
C299   C     0.54854   0.07076   0.97432   0.00000  Uiso   1.00
H300   H     0.71742   0.03087   0.25210   0.00000  Uiso   1.00
H301   H     0.71151   0.93732   0.29806   0.00000  Uiso   1.00
H302   H     0.30842   0.55112   0.31647   0.00000  Uiso   1.00
H303   H     0.13887   0.61390   0.15873   0.00000  Uiso   1.00
H304   H     0.19471   0.31829   0.32229   0.00000  Uiso   1.00
H305   H     0.39903   0.55825   0.36109   0.00000  Uiso   1.00
H306   H     0.04152   0.69063   0.02847   0.00000  Uiso   1.00
H307   H     0.13829   0.41284   0.04597   0.00000  Uiso   1.00
H308   H     0.12803   0.31281   0.08062   0.00000  Uiso   1.00
H309   H     0.72494   0.92661   0.09904   0.00000  Uiso   1.00
H310   H     0.55540   0.98938   0.94130   0.00000  Uiso   1.00
H311   H     0.12696   0.21723   0.14581   0.00000  Uiso   1.00
H312   H     0.83129   0.95719   0.18462   0.00000  Uiso   1.00
H313   H     0.47377   0.08957   0.85199   0.00000  Uiso   1.00
O314   O     0.15553   0.20408   0.26059   0.00000  Uiso   1.00
O315   O     0.92360   0.01891   0.31148   0.00000  Uiso   1.00
O316   O     0.95454   0.69259   0.87509   0.00000  Uiso   1.00
N317   N     0.18016   0.30823   0.27599   0.00000  Uiso   1.00
N318   N     0.87120   0.03258   0.31228   0.00000  Uiso   1.00
N319   N     0.03696   0.65635   0.00130   0.00000  Uiso   1.00
N320   N     0.14370   0.25385   0.18103   0.00000  Uiso   1.00
N321   N     0.83474   0.97820   0.21732   0.00000  Uiso   1.00
N322   N     0.00050   0.60197   0.90634   0.00000  Uiso   1.00
C323   C     0.34659   0.32899   0.48669   0.00000  Uiso   1.00
C324   C     0.85537   0.87280   0.53489   0.00000  Uiso   1.00
C325   C     0.82152   0.92288   0.50658   0.00000  Uiso   1.00
C326   C     0.83665   0.95729   0.56007   0.00000  Uiso   1.00
C327   C     0.84310   0.02764   0.62291   0.00000  Uiso   1.00
C328   C     0.39964   0.33235   0.52220   0.00000  Uiso   1.00
C329   C     0.40300   0.34841   0.48322   0.00000  Uiso   1.00
C330   C     0.45539   0.34875   0.52603   0.00000  Uiso   1.00
C331   C     0.53056   0.35625   0.56916   0.00000  Uiso   1.00
C332   C     0.34444   0.26268   0.50257   0.00000  Uiso   1.00
C333   C     0.30139   0.22015   0.44708   0.00000  Uiso   1.00
C334   C     0.30732   0.16183   0.47335   0.00000  Uiso   1.00
C335   C     0.29678   0.06116   0.48599   0.00000  Uiso   1.00
C336   C     0.43366   0.30104   0.63202   0.00000  Uiso   1.00
C337   C     0.90267   0.85762   0.61383   0.00000  Uiso   1.00
C338   C     0.91785   0.89195   0.66737   0.00000  Uiso   1.00
C339   C     0.88402   0.94208   0.63915   0.00000  Uiso   1.00
C340   C     0.44693   0.31717   0.60114   0.00000  Uiso   1.00
C341   C     0.49933   0.31748   0.64401   0.00000  Uiso   1.00
C342   C     0.50277   0.33354   0.60511   0.00000  Uiso   1.00
C343   C     0.39173   0.24750   0.58150   0.00000  Uiso   1.00
C344   C     0.39772   0.18923   0.60787   0.00000  Uiso   1.00
C345   C     0.35469   0.14662   0.55243   0.00000  Uiso   1.00
H346   H     0.30978   0.34081   0.42524   0.00000  Uiso   1.00
H347   H     0.78493   0.93462   0.44549   0.00000  Uiso   1.00
H348   H     0.36639   0.36015   0.42213   0.00000  Uiso   1.00
H349   H     0.26480   0.23192   0.38600   0.00000  Uiso   1.00
H350   H     0.77824   0.03194   0.50277   0.00000  Uiso   1.00
H351   H     0.45002   0.37489   0.45351   0.00000  Uiso   1.00
H352   H     0.23579   0.10448   0.37730   0.00000  Uiso   1.00
H353   H     0.97048   0.78922   0.69348   0.00000  Uiso   1.00
H354   H     0.95445   0.88019   0.72846   0.00000  Uiso   1.00
H355   H     0.53591   0.30573   0.70509   0.00000  Uiso   1.00
H356   H     0.43433   0.17749   0.66896   0.00000  Uiso   1.00
H357   H     0.91583   0.98777   0.73243   0.00000  Uiso   1.00
H358   H     0.58761   0.33072   0.68317   0.00000  Uiso   1.00
H359   H     0.37339   0.06031   0.60696   0.00000  Uiso   1.00
O360   O     0.83360   0.07064   0.63577   0.00000  Uiso   1.00
O361   O     0.55896   0.36460   0.57114   0.00000  Uiso   1.00
O362   O     0.27790   0.00983   0.47116   0.00000  Uiso   1.00
N363   N     0.81282   0.00905   0.55202   0.00000  Uiso   1.00
N364   N     0.47342   0.36223   0.50596   0.00000  Uiso   1.00
N365   N     0.27314   0.10942   0.43471   0.00000  Uiso   1.00
N366   N     0.88685   0.98528   0.67560   0.00000  Uiso   1.00
N367   N     0.54745   0.33846   0.62954   0.00000  Uiso   1.00
N368   N     0.34718   0.08565   0.55829   0.00000  Uiso   1.00
C369   C     0.86032   0.17273   0.53353   0.00000  Uiso   1.00
C370   C     0.30777   0.69767   0.45117   0.00000  Uiso   1.00
C371   C     0.75744   0.16634   0.39010   0.00000  Uiso   1.00
C372   C     0.21436   0.69714   0.31923   0.00000  Uiso   1.00
C373   C     0.13169   0.72674   0.19277   0.00000  Uiso   1.00
C374   C     0.90510   0.17454   0.55141   0.00000  Uiso   1.00
C375   C     0.93661   0.12375   0.57464   0.00000  Uiso   1.00
C376   C     0.97546   0.13508   0.58816   0.00000  Uiso   1.00
C377   C     0.54393   0.62877   0.61739   0.00000  Uiso   1.00
C378   C     0.87698   0.22164   0.58617   0.00000  Uiso   1.00
C379   C     0.88487   0.21046   0.63863   0.00000  Uiso   1.00
C380   C     0.90006   0.26145   0.68143   0.00000  Uiso   1.00
C381   C     0.92487   0.32828   0.76461   0.00000  Uiso   1.00
C382   C     0.37329   0.78316   0.51627   0.00000  Uiso   1.00
C383   C     0.31481   0.75766   0.44180   0.00000  Uiso   1.00
C384   C     0.27179   0.78852   0.37100   0.00000  Uiso   1.00
C385   C     0.22141   0.75723   0.30984   0.00000  Uiso   1.00
C386   C     0.41214   0.73452   0.54204   0.00000  Uiso   1.00
C387   C     0.45096   0.74593   0.55554   0.00000  Uiso   1.00
C388   C     0.48252   0.69517   0.57877   0.00000  Uiso   1.00
C389   C     0.38402   0.78163   0.57679   0.00000  Uiso   1.00
C390   C     0.39921   0.83264   0.61952   0.00000  Uiso   1.00
C391   C     0.40711   0.82154   0.67203   0.00000  Uiso   1.00
H392   H     0.85484   0.12602   0.54083   0.00000  Uiso   1.00
H393   H     0.75201   0.11991   0.39738   0.00000  Uiso   1.00
H394   H     0.93116   0.07734   0.58190   0.00000  Uiso   1.00
H395   H     0.87941   0.16403   0.64587   0.00000  Uiso   1.00
H396   H     0.14112   0.63958   0.23419   0.00000  Uiso   1.00
H397   H     0.01887   0.04981   0.62328   0.00000  Uiso   1.00
H398   H     0.90976   0.23263   0.75819   0.00000  Uiso   1.00
H399   H     0.37877   0.82986   0.50897   0.00000  Uiso   1.00
H400   H     0.27725   0.83494   0.36376   0.00000  Uiso   1.00
H401   H     0.45640   0.79236   0.54828   0.00000  Uiso   1.00
H402   H     0.40466   0.87905   0.61225   0.00000  Uiso   1.00
H403   H     0.16161   0.81410   0.20691   0.00000  Uiso   1.00
H404   H     0.53936   0.72433   0.59600   0.00000  Uiso   1.00
H405   H     0.43025   0.90715   0.73090   0.00000  Uiso   1.00
O406   O     0.08416   0.72649   0.12560   0.00000  Uiso   1.00
O407   O     0.57975   0.60872   0.63609   0.00000  Uiso   1.00
O408   O     0.93661   0.34857   0.81307   0.00000  Uiso   1.00
N409   N     0.15987   0.67996   0.24770   0.00000  Uiso   1.00
N410   N     0.01304   0.09603   0.61147   0.00000  Uiso   1.00
N411   N     0.91105   0.26694   0.73761   0.00000  Uiso   1.00
N412   N     0.17089   0.77387   0.23302   0.00000  Uiso   1.00
N413   N     0.52406   0.68994   0.59679   0.00000  Uiso   1.00
N414   N     0.42207   0.86085   0.72292   0.00000  Uiso   1.00
C415   C     0.19929   0.50383   0.20487   0.00000  Uiso   1.00
C416   C     0.68510   0.93664   0.20126   0.00000  Uiso   1.00
C417   C     0.69349   0.91043   0.25112   0.00000  Uiso   1.00
C418   C     0.67774   0.84818   0.23817   0.00000  Uiso   1.00
C419   C     0.65928   0.74913   0.24181   0.00000  Uiso   1.00
C420   C     0.73776   0.99846   0.21127   0.00000  Uiso   1.00
C421   C     0.29041   0.52424   0.26954   0.00000  Uiso   1.00
C422   C     0.31899   0.51404   0.26501   0.00000  Uiso   1.00
C423   C     0.38226   0.51100   0.28416   0.00000  Uiso   1.00
C424   C     0.64564   0.03256   0.12556   0.00000  Uiso   1.00
C425   C     0.62084   0.08703   0.11178   0.00000  Uiso   1.00
C426   C     0.57187   0.10555   0.03509   0.00000  Uiso   1.00
C427   C     0.49211   0.15547   0.92117   0.00000  Uiso   1.00
C428   C     0.65642   0.93988   0.09320   0.00000  Uiso   1.00
C429   C     0.66182   0.90190   0.14060   0.00000  Uiso   1.00
C430   C     0.64605   0.83968   0.12757   0.00000  Uiso   1.00
C431   C     0.65441   0.81339   0.17740   0.00000  Uiso   1.00
C432   C     0.71447   0.96372   0.15061   0.00000  Uiso   1.00
C433   C     0.24298   0.45349   0.14599   0.00000  Uiso   1.00
C434   C     0.29566   0.47924   0.20424   0.00000  Uiso   1.00
C435   C     0.12235   0.49783   0.06490   0.00000  Uiso   1.00
C436   C     0.07341   0.51627   0.98822   0.00000  Uiso   1.00
C437   C     0.04854   0.57076   0.97432   0.00000  Uiso   1.00
H438   H     0.21742   0.53087   0.25210   0.00000  Uiso   1.00
H439   H     0.21151   0.43732   0.29806   0.00000  Uiso   1.00
H440   H     0.80842   0.05112   0.31647   0.00000  Uiso   1.00
H441   H     0.63887   0.11390   0.15873   0.00000  Uiso   1.00
H442   H     0.69471   0.81829   0.32229   0.00000  Uiso   1.00
H443   H     0.89903   0.05825   0.36109   0.00000  Uiso   1.00
H444   H     0.54152   0.19063   0.02847   0.00000  Uiso   1.00
H445   H     0.63829   0.91284   0.04597   0.00000  Uiso   1.00
H446   H     0.62803   0.81281   0.08062   0.00000  Uiso   1.00
H447   H     0.22494   0.42661   0.09904   0.00000  Uiso   1.00
H448   H     0.05540   0.48938   0.94130   0.00000  Uiso   1.00
H449   H     0.62696   0.71723   0.14581   0.00000  Uiso   1.00
H450   H     0.33129   0.45719   0.18462   0.00000  Uiso   1.00
H451   H     0.97377   0.58957   0.85199   0.00000  Uiso   1.00
O452   O     0.65553   0.70408   0.26059   0.00000  Uiso   1.00
O453   O     0.42360   0.51891   0.31148   0.00000  Uiso   1.00
O454   O     0.45454   0.19259   0.87509   0.00000  Uiso   1.00
N455   N     0.68016   0.80823   0.27599   0.00000  Uiso   1.00
N456   N     0.37120   0.53258   0.31228   0.00000  Uiso   1.00
N457   N     0.53696   0.15635   0.00130   0.00000  Uiso   1.00
N458   N     0.64370   0.75385   0.18103   0.00000  Uiso   1.00
N459   N     0.33474   0.47820   0.21732   0.00000  Uiso   1.00
N460   N     0.50050   0.10197   0.90634   0.00000  Uiso   1.00
C461   C     0.84659   0.82899   0.48669   0.00000  Uiso   1.00
C462   C     0.35537   0.37280   0.53489   0.00000  Uiso   1.00
C463   C     0.32152   0.42288   0.50658   0.00000  Uiso   1.00
C464   C     0.33665   0.45729   0.56007   0.00000  Uiso   1.00
C465   C     0.34310   0.52764   0.62291   0.00000  Uiso   1.00
C466   C     0.89964   0.83235   0.52220   0.00000  Uiso   1.00
C467   C     0.90300   0.84841   0.48322   0.00000  Uiso   1.00
C468   C     0.95539   0.84875   0.52603   0.00000  Uiso   1.00
C469   C     0.03056   0.85625   0.56916   0.00000  Uiso   1.00
C470   C     0.84444   0.76268   0.50257   0.00000  Uiso   1.00
C471   C     0.80139   0.72015   0.44708   0.00000  Uiso   1.00
C472   C     0.80732   0.66183   0.47335   0.00000  Uiso   1.00
C473   C     0.79678   0.56116   0.48599   0.00000  Uiso   1.00
C474   C     0.93366   0.80104   0.63202   0.00000  Uiso   1.00
C475   C     0.40267   0.35762   0.61383   0.00000  Uiso   1.00
C476   C     0.41785   0.39195   0.66737   0.00000  Uiso   1.00
C477   C     0.38402   0.44208   0.63915   0.00000  Uiso   1.00
C478   C     0.94693   0.81717   0.60114   0.00000  Uiso   1.00
C479   C     0.99933   0.81748   0.64401   0.00000  Uiso   1.00
C480   C     0.00277   0.83354   0.60511   0.00000  Uiso   1.00
C481   C     0.89173   0.74750   0.58150   0.00000  Uiso   1.00
C482   C     0.89772   0.68923   0.60787   0.00000  Uiso   1.00
C483   C     0.85469   0.64662   0.55243   0.00000  Uiso   1.00
H484   H     0.80978   0.84081   0.42524   0.00000  Uiso   1.00
H485   H     0.28493   0.43462   0.44549   0.00000  Uiso   1.00
H486   H     0.86639   0.86015   0.42213   0.00000  Uiso   1.00
H487   H     0.76480   0.73192   0.38600   0.00000  Uiso   1.00
H488   H     0.27824   0.53194   0.50277   0.00000  Uiso   1.00
H489   H     0.95002   0.87489   0.45351   0.00000  Uiso   1.00
H490   H     0.73579   0.60448   0.37730   0.00000  Uiso   1.00
H491   H     0.47048   0.28922   0.69348   0.00000  Uiso   1.00
H492   H     0.45445   0.38019   0.72846   0.00000  Uiso   1.00
H493   H     0.03591   0.80573   0.70509   0.00000  Uiso   1.00
H494   H     0.93433   0.67749   0.66896   0.00000  Uiso   1.00
H495   H     0.41583   0.48777   0.73243   0.00000  Uiso   1.00
H496   H     0.08761   0.83072   0.68317   0.00000  Uiso   1.00
H497   H     0.87339   0.56031   0.60696   0.00000  Uiso   1.00
O498   O     0.33360   0.57064   0.63577   0.00000  Uiso   1.00
O499   O     0.05896   0.86460   0.57114   0.00000  Uiso   1.00
O500   O     0.77790   0.50983   0.47116   0.00000  Uiso   1.00
N501   N     0.31282   0.50905   0.55202   0.00000  Uiso   1.00
N502   N     0.97342   0.86223   0.50596   0.00000  Uiso   1.00
N503   N     0.77314   0.60942   0.43471   0.00000  Uiso   1.00
N504   N     0.38685   0.48528   0.67560   0.00000  Uiso   1.00
N505   N     0.04745   0.83846   0.62954   0.00000  Uiso   1.00
N506   N     0.84718   0.58565   0.55829   0.00000  Uiso   1.00
C507   C     0.36032   0.67273   0.53353   0.00000  Uiso   1.00
C508   C     0.80777   0.19767   0.45117   0.00000  Uiso   1.00
C509   C     0.25744   0.66634   0.39010   0.00000  Uiso   1.00
C510   C     0.71436   0.19714   0.31923   0.00000  Uiso   1.00
C511   C     0.63169   0.22674   0.19277   0.00000  Uiso   1.00
C512   C     0.40510   0.67454   0.55141   0.00000  Uiso   1.00
C513   C     0.43661   0.62375   0.57464   0.00000  Uiso   1.00
C514   C     0.47546   0.63508   0.58816   0.00000  Uiso   1.00
C515   C     0.04393   0.12877   0.61739   0.00000  Uiso   1.00
C516   C     0.37698   0.72164   0.58617   0.00000  Uiso   1.00
C517   C     0.38487   0.71046   0.63863   0.00000  Uiso   1.00
C518   C     0.40006   0.76145   0.68143   0.00000  Uiso   1.00
C519   C     0.42487   0.82828   0.76461   0.00000  Uiso   1.00
C520   C     0.87329   0.28316   0.51627   0.00000  Uiso   1.00
C521   C     0.81481   0.25766   0.44180   0.00000  Uiso   1.00
C522   C     0.77179   0.28852   0.37100   0.00000  Uiso   1.00
C523   C     0.72141   0.25723   0.30984   0.00000  Uiso   1.00
C524   C     0.91214   0.23452   0.54204   0.00000  Uiso   1.00
C525   C     0.95096   0.24593   0.55554   0.00000  Uiso   1.00
C526   C     0.98252   0.19517   0.57877   0.00000  Uiso   1.00
C527   C     0.88402   0.28163   0.57679   0.00000  Uiso   1.00
C528   C     0.89921   0.33264   0.61952   0.00000  Uiso   1.00
C529   C     0.90711   0.32154   0.67203   0.00000  Uiso   1.00
H530   H     0.35484   0.62602   0.54083   0.00000  Uiso   1.00
H531   H     0.25201   0.61991   0.39738   0.00000  Uiso   1.00
H532   H     0.43116   0.57734   0.58190   0.00000  Uiso   1.00
H533   H     0.37941   0.66403   0.64587   0.00000  Uiso   1.00
H534   H     0.64112   0.13958   0.23419   0.00000  Uiso   1.00
H535   H     0.51887   0.54981   0.62328   0.00000  Uiso   1.00
H536   H     0.40976   0.73263   0.75819   0.00000  Uiso   1.00
H537   H     0.87877   0.32986   0.50897   0.00000  Uiso   1.00
H538   H     0.77725   0.33494   0.36376   0.00000  Uiso   1.00
H539   H     0.95640   0.29236   0.54828   0.00000  Uiso   1.00
H540   H     0.90466   0.37905   0.61225   0.00000  Uiso   1.00
H541   H     0.66161   0.31410   0.20691   0.00000  Uiso   1.00
H542   H     0.03936   0.22433   0.59600   0.00000  Uiso   1.00
H543   H     0.93025   0.40715   0.73090   0.00000  Uiso   1.00
O544   O     0.58416   0.22649   0.12560   0.00000  Uiso   1.00
O545   O     0.07975   0.10872   0.63609   0.00000  Uiso   1.00
O546   O     0.43661   0.84857   0.81307   0.00000  Uiso   1.00
N547   N     0.65987   0.17996   0.24770   0.00000  Uiso   1.00
N548   N     0.51304   0.59603   0.61147   0.00000  Uiso   1.00
N549   N     0.41105   0.76694   0.73761   0.00000  Uiso   1.00
N550   N     0.67089   0.27387   0.23302   0.00000  Uiso   1.00
N551   N     0.02406   0.18994   0.59679   0.00000  Uiso   1.00
N552   N     0.92207   0.36085   0.72292   0.00000  Uiso   1.00
C553   C     0.69929   0.99617   0.70487   0.00000  Uiso   1.00
C554   C     0.18510   0.56336   0.70126   0.00000  Uiso   1.00
C555   C     0.19349   0.58957   0.75112   0.00000  Uiso   1.00
C556   C     0.17774   0.65182   0.73817   0.00000  Uiso   1.00
C557   C     0.15928   0.75087   0.74181   0.00000  Uiso   1.00
C558   C     0.23776   0.50154   0.71127   0.00000  Uiso   1.00
C559   C     0.79041   0.97576   0.76954   0.00000  Uiso   1.00
C560   C     0.81899   0.98596   0.76501   0.00000  Uiso   1.00
C561   C     0.88226   0.98900   0.78416   0.00000  Uiso   1.00
C562   C     0.14564   0.46744   0.62556   0.00000  Uiso   1.00
C563   C     0.12084   0.41297   0.61178   0.00000  Uiso   1.00
C564   C     0.07187   0.39445   0.53509   0.00000  Uiso   1.00
C565   C     0.99211   0.34453   0.42117   0.00000  Uiso   1.00
C566   C     0.15642   0.56012   0.59320   0.00000  Uiso   1.00
C567   C     0.16182   0.59810   0.64060   0.00000  Uiso   1.00
C568   C     0.14605   0.66032   0.62757   0.00000  Uiso   1.00
C569   C     0.15441   0.68661   0.67740   0.00000  Uiso   1.00
C570   C     0.21447   0.53628   0.65061   0.00000  Uiso   1.00
C571   C     0.74298   0.04651   0.64599   0.00000  Uiso   1.00
C572   C     0.79566   0.02076   0.70424   0.00000  Uiso   1.00
C573   C     0.62235   0.00217   0.56490   0.00000  Uiso   1.00
C574   C     0.57341   0.98373   0.48822   0.00000  Uiso   1.00
C575   C     0.54854   0.92924   0.47432   0.00000  Uiso   1.00
H576   H     0.71742   0.96913   0.75210   0.00000  Uiso   1.00
H577   H     0.71151   0.06268   0.79806   0.00000  Uiso   1.00
H578   H     0.30842   0.44888   0.81647   0.00000  Uiso   1.00
H579   H     0.13887   0.38610   0.65873   0.00000  Uiso   1.00
H580   H     0.19471   0.68171   0.82229   0.00000  Uiso   1.00
H581   H     0.39903   0.44175   0.86109   0.00000  Uiso   1.00
H582   H     0.04152   0.30937   0.52847   0.00000  Uiso   1.00
H583   H     0.13829   0.58716   0.54597   0.00000  Uiso   1.00
H584   H     0.12803   0.68719   0.58062   0.00000  Uiso   1.00
H585   H     0.72494   0.07339   0.59904   0.00000  Uiso   1.00
H586   H     0.55540   0.01062   0.44130   0.00000  Uiso   1.00
H587   H     0.12696   0.78277   0.64581   0.00000  Uiso   1.00
H588   H     0.83129   0.04281   0.68462   0.00000  Uiso   1.00
H589   H     0.47377   0.91043   0.35199   0.00000  Uiso   1.00
O590   O     0.15553   0.79592   0.76059   0.00000  Uiso   1.00
O591   O     0.92360   0.98109   0.81148   0.00000  Uiso   1.00
O592   O     0.95454   0.30741   0.37509   0.00000  Uiso   1.00
N593   N     0.18016   0.69177   0.77599   0.00000  Uiso   1.00
N594   N     0.87120   0.96742   0.81228   0.00000  Uiso   1.00
N595   N     0.03696   0.34365   0.50130   0.00000  Uiso   1.00
N596   N     0.14370   0.74615   0.68103   0.00000  Uiso   1.00
N597   N     0.83474   0.02180   0.71732   0.00000  Uiso   1.00
N598   N     0.00050   0.39803   0.40634   0.00000  Uiso   1.00
C599   C     0.34659   0.67101   0.98669   0.00000  Uiso   1.00
C600   C     0.85537   0.12720   0.03489   0.00000  Uiso   1.00
C601   C     0.82152   0.07712   0.00658   0.00000  Uiso   1.00
C602   C     0.83665   0.04271   0.06007   0.00000  Uiso   1.00
C603   C     0.84310   0.97236   0.12291   0.00000  Uiso   1.00
C604   C     0.39964   0.66765   0.02220   0.00000  Uiso   1.00
C605   C     0.40300   0.65159   0.98322   0.00000  Uiso   1.00
C606   C     0.45539   0.65125   0.02603   0.00000  Uiso   1.00
C607   C     0.53056   0.64375   0.06916   0.00000  Uiso   1.00
C608   C     0.34444   0.73732   0.00257   0.00000  Uiso   1.00
C609   C     0.30139   0.77985   0.94708   0.00000  Uiso   1.00
C610   C     0.30732   0.83817   0.97335   0.00000  Uiso   1.00
C611   C     0.29678   0.93884   0.98599   0.00000  Uiso   1.00
C612   C     0.43366   0.69896   0.13202   0.00000  Uiso   1.00
C613   C     0.90267   0.14238   0.11383   0.00000  Uiso   1.00
C614   C     0.91785   0.10805   0.16737   0.00000  Uiso   1.00
C615   C     0.88402   0.05792   0.13915   0.00000  Uiso   1.00
C616   C     0.44693   0.68283   0.10114   0.00000  Uiso   1.00
C617   C     0.49933   0.68252   0.14401   0.00000  Uiso   1.00
C618   C     0.50277   0.66646   0.10511   0.00000  Uiso   1.00
C619   C     0.39173   0.75250   0.08150   0.00000  Uiso   1.00
C620   C     0.39772   0.81077   0.10787   0.00000  Uiso   1.00
C621   C     0.35469   0.85338   0.05243   0.00000  Uiso   1.00
H622   H     0.30978   0.65919   0.92524   0.00000  Uiso   1.00
H623   H     0.78493   0.06538   0.94549   0.00000  Uiso   1.00
H624   H     0.36639   0.63985   0.92213   0.00000  Uiso   1.00
H625   H     0.26480   0.76808   0.88600   0.00000  Uiso   1.00
H626   H     0.77824   0.96806   0.00277   0.00000  Uiso   1.00
H627   H     0.45002   0.62511   0.95351   0.00000  Uiso   1.00
H628   H     0.23579   0.89552   0.87730   0.00000  Uiso   1.00
H629   H     0.97048   0.21078   0.19348   0.00000  Uiso   1.00
H630   H     0.95445   0.11981   0.22846   0.00000  Uiso   1.00
H631   H     0.53591   0.69427   0.20509   0.00000  Uiso   1.00
H632   H     0.43433   0.82251   0.16896   0.00000  Uiso   1.00
H633   H     0.91583   0.01223   0.23243   0.00000  Uiso   1.00
H634   H     0.58761   0.66928   0.18317   0.00000  Uiso   1.00
H635   H     0.37339   0.93969   0.10696   0.00000  Uiso   1.00
O636   O     0.83360   0.92936   0.13577   0.00000  Uiso   1.00
O637   O     0.55896   0.63540   0.07114   0.00000  Uiso   1.00
O638   O     0.27790   0.99017   0.97116   0.00000  Uiso   1.00
N639   N     0.81282   0.99095   0.05202   0.00000  Uiso   1.00
N640   N     0.47342   0.63777   0.00596   0.00000  Uiso   1.00
N641   N     0.27314   0.89058   0.93471   0.00000  Uiso   1.00
N642   N     0.88685   0.01472   0.17560   0.00000  Uiso   1.00
N643   N     0.54745   0.66154   0.12954   0.00000  Uiso   1.00
N644   N     0.34718   0.91435   0.05829   0.00000  Uiso   1.00
C645   C     0.86032   0.82727   0.03353   0.00000  Uiso   1.00
C646   C     0.30777   0.30233   0.95117   0.00000  Uiso   1.00
C647   C     0.75744   0.83366   0.89010   0.00000  Uiso   1.00
C648   C     0.21436   0.30286   0.81923   0.00000  Uiso   1.00
C649   C     0.13169   0.27326   0.69277   0.00000  Uiso   1.00
C650   C     0.90510   0.82546   0.05141   0.00000  Uiso   1.00
C651   C     0.93661   0.87625   0.07464   0.00000  Uiso   1.00
C652   C     0.97546   0.86492   0.08816   0.00000  Uiso   1.00
C653   C     0.54393   0.37123   0.11739   0.00000  Uiso   1.00
C654   C     0.87698   0.77836   0.08617   0.00000  Uiso   1.00
C655   C     0.88487   0.78954   0.13863   0.00000  Uiso   1.00
C656   C     0.90006   0.73855   0.18143   0.00000  Uiso   1.00
C657   C     0.92487   0.67172   0.26461   0.00000  Uiso   1.00
C658   C     0.37329   0.21684   0.01627   0.00000  Uiso   1.00
C659   C     0.31481   0.24234   0.94180   0.00000  Uiso   1.00
C660   C     0.27179   0.21148   0.87100   0.00000  Uiso   1.00
C661   C     0.22141   0.24277   0.80984   0.00000  Uiso   1.00
C662   C     0.41214   0.26548   0.04204   0.00000  Uiso   1.00
C663   C     0.45096   0.25407   0.05554   0.00000  Uiso   1.00
C664   C     0.48252   0.30483   0.07877   0.00000  Uiso   1.00
C665   C     0.38402   0.21837   0.07679   0.00000  Uiso   1.00
C666   C     0.39921   0.16736   0.11952   0.00000  Uiso   1.00
C667   C     0.40711   0.17846   0.17203   0.00000  Uiso   1.00
H668   H     0.85484   0.87398   0.04083   0.00000  Uiso   1.00
H669   H     0.75201   0.88009   0.89738   0.00000  Uiso   1.00
H670   H     0.93116   0.92266   0.08190   0.00000  Uiso   1.00
H671   H     0.87941   0.83597   0.14587   0.00000  Uiso   1.00
H672   H     0.14112   0.36042   0.73419   0.00000  Uiso   1.00
H673   H     0.01887   0.95019   0.12328   0.00000  Uiso   1.00
H674   H     0.90976   0.76737   0.25819   0.00000  Uiso   1.00
H675   H     0.37877   0.17014   0.00897   0.00000  Uiso   1.00
H676   H     0.27725   0.16506   0.86376   0.00000  Uiso   1.00
H677   H     0.45640   0.20764   0.04828   0.00000  Uiso   1.00
H678   H     0.40466   0.12095   0.11225   0.00000  Uiso   1.00
H679   H     0.16161   0.18590   0.70691   0.00000  Uiso   1.00
H680   H     0.53936   0.27567   0.09600   0.00000  Uiso   1.00
H681   H     0.43025   0.09285   0.23090   0.00000  Uiso   1.00
O682   O     0.08416   0.27351   0.62560   0.00000  Uiso   1.00
O683   O     0.57975   0.39128   0.13609   0.00000  Uiso   1.00
O684   O     0.93661   0.65143   0.31307   0.00000  Uiso   1.00
N685   N     0.15987   0.32004   0.74770   0.00000  Uiso   1.00
N686   N     0.01304   0.90397   0.11147   0.00000  Uiso   1.00
N687   N     0.91105   0.73306   0.23761   0.00000  Uiso   1.00
N688   N     0.17089   0.22613   0.73302   0.00000  Uiso   1.00
N689   N     0.52406   0.31006   0.09679   0.00000  Uiso   1.00
N690   N     0.42207   0.13915   0.22292   0.00000  Uiso   1.00
C691   C     0.19929   0.49617   0.70487   0.00000  Uiso   1.00
C692   C     0.68510   0.06336   0.70126   0.00000  Uiso   1.00
C693   C     0.69349   0.08957   0.75112   0.00000  Uiso   1.00
C694   C     0.67774   0.15182   0.73817   0.00000  Uiso   1.00
C695   C     0.65928   0.25087   0.74181   0.00000  Uiso   1.00
C696   C     0.73776   0.00154   0.71127   0.00000  Uiso   1.00
C697   C     0.29041   0.47576   0.76954   0.00000  Uiso   1.00
C698   C     0.31899   0.48596   0.76501   0.00000  Uiso   1.00
C699   C     0.38226   0.48900   0.78416   0.00000  Uiso   1.00
C700   C     0.64564   0.96744   0.62556   0.00000  Uiso   1.00
C701   C     0.62084   0.91297   0.61178   0.00000  Uiso   1.00
C702   C     0.57187   0.89445   0.53509   0.00000  Uiso   1.00
C703   C     0.49211   0.84453   0.42117   0.00000  Uiso   1.00
C704   C     0.65642   0.06012   0.59320   0.00000  Uiso   1.00
C705   C     0.66182   0.09810   0.64060   0.00000  Uiso   1.00
C706   C     0.64605   0.16032   0.62757   0.00000  Uiso   1.00
C707   C     0.65441   0.18661   0.67740   0.00000  Uiso   1.00
C708   C     0.71447   0.03628   0.65061   0.00000  Uiso   1.00
C709   C     0.24298   0.54651   0.64599   0.00000  Uiso   1.00
C710   C     0.29566   0.52076   0.70424   0.00000  Uiso   1.00
C711   C     0.12235   0.50217   0.56490   0.00000  Uiso   1.00
C712   C     0.07341   0.48373   0.48822   0.00000  Uiso   1.00
C713   C     0.04854   0.42924   0.47432   0.00000  Uiso   1.00
H714   H     0.21742   0.46913   0.75210   0.00000  Uiso   1.00
H715   H     0.21151   0.56268   0.79806   0.00000  Uiso   1.00
H716   H     0.80842   0.94888   0.81647   0.00000  Uiso   1.00
H717   H     0.63887   0.88610   0.65873   0.00000  Uiso   1.00
H718   H     0.69471   0.18171   0.82229   0.00000  Uiso   1.00
H719   H     0.89903   0.94175   0.86109   0.00000  Uiso   1.00
H720   H     0.54152   0.80937   0.52847   0.00000  Uiso   1.00
H721   H     0.63829   0.08716   0.54597   0.00000  Uiso   1.00
H722   H     0.62803   0.18719   0.58062   0.00000  Uiso   1.00
H723   H     0.22494   0.57339   0.59904   0.00000  Uiso   1.00
H724   H     0.05540   0.51062   0.44130   0.00000  Uiso   1.00
H725   H     0.62696   0.28277   0.64581   0.00000  Uiso   1.00
H726   H     0.33129   0.54281   0.68462   0.00000  Uiso   1.00
H727   H     0.97377   0.41043   0.35199   0.00000  Uiso   1.00
O728   O     0.65553   0.29592   0.76059   0.00000  Uiso   1.00
O729   O     0.42360   0.48109   0.81148   0.00000  Uiso   1.00
O730   O     0.45454   0.80741   0.37509   0.00000  Uiso   1.00
N731   N     0.68016   0.19177   0.77599   0.00000  Uiso   1.00
N732   N     0.37120   0.46742   0.81228   0.00000  Uiso   1.00
N733   N     0.53696   0.84365   0.50130   0.00000  Uiso   1.00
N734   N     0.64370   0.24615   0.68103   0.00000  Uiso   1.00
N735   N     0.33474   0.52180   0.71732   0.00000  Uiso   1.00
N736   N     0.50050   0.89803   0.40634   0.00000  Uiso   1.00
C737   C     0.84659   0.17101   0.98669   0.00000  Uiso   1.00
C738   C     0.35537   0.62720   0.03489   0.00000  Uiso   1.00
C739   C     0.32152   0.57712   0.00658   0.00000  Uiso   1.00
C740   C     0.33665   0.54271   0.06007   0.00000  Uiso   1.00
C741   C     0.34310   0.47236   0.12291   0.00000  Uiso   1.00
C742   C     0.89964   0.16765   0.02220   0.00000  Uiso   1.00
C743   C     0.90300   0.15159   0.98322   0.00000  Uiso   1.00
C744   C     0.95539   0.15125   0.02603   0.00000  Uiso   1.00
C745   C     0.03056   0.14375   0.06916   0.00000  Uiso   1.00
C746   C     0.84444   0.23732   0.00257   0.00000  Uiso   1.00
C747   C     0.80139   0.27985   0.94708   0.00000  Uiso   1.00
C748   C     0.80732   0.33817   0.97335   0.00000  Uiso   1.00
C749   C     0.79678   0.43884   0.98599   0.00000  Uiso   1.00
C750   C     0.93366   0.19896   0.13202   0.00000  Uiso   1.00
C751   C     0.40267   0.64238   0.11383   0.00000  Uiso   1.00
C752   C     0.41785   0.60805   0.16737   0.00000  Uiso   1.00
C753   C     0.38402   0.55792   0.13915   0.00000  Uiso   1.00
C754   C     0.94693   0.18283   0.10114   0.00000  Uiso   1.00
C755   C     0.99933   0.18252   0.14401   0.00000  Uiso   1.00
C756   C     0.00277   0.16646   0.10511   0.00000  Uiso   1.00
C757   C     0.89173   0.25250   0.08150   0.00000  Uiso   1.00
C758   C     0.89772   0.31077   0.10787   0.00000  Uiso   1.00
C759   C     0.85469   0.35338   0.05243   0.00000  Uiso   1.00
H760   H     0.80978   0.15919   0.92524   0.00000  Uiso   1.00
H761   H     0.28493   0.56538   0.94549   0.00000  Uiso   1.00
H762   H     0.86639   0.13985   0.92213   0.00000  Uiso   1.00
H763   H     0.76480   0.26808   0.88600   0.00000  Uiso   1.00
H764   H     0.27824   0.46806   0.00277   0.00000  Uiso   1.00
H765   H     0.95002   0.12511   0.95351   0.00000  Uiso   1.00
H766   H     0.73579   0.39552   0.87730   0.00000  Uiso   1.00
H767   H     0.47048   0.71078   0.19348   0.00000  Uiso   1.00
H768   H     0.45445   0.61981   0.22846   0.00000  Uiso   1.00
H769   H     0.03591   0.19427   0.20509   0.00000  Uiso   1.00
H770   H     0.93433   0.32251   0.16896   0.00000  Uiso   1.00
H771   H     0.41583   0.51223   0.23243   0.00000  Uiso   1.00
H772   H     0.08761   0.16928   0.18317   0.00000  Uiso   1.00
H773   H     0.87339   0.43969   0.10696   0.00000  Uiso   1.00
O774   O     0.33360   0.42936   0.13577   0.00000  Uiso   1.00
O775   O     0.05896   0.13540   0.07114   0.00000  Uiso   1.00
O776   O     0.77790   0.49017   0.97116   0.00000  Uiso   1.00
N777   N     0.31282   0.49095   0.05202   0.00000  Uiso   1.00
N778   N     0.97342   0.13777   0.00596   0.00000  Uiso   1.00
N779   N     0.77314   0.39058   0.93471   0.00000  Uiso   1.00
N780   N     0.38685   0.51472   0.17560   0.00000  Uiso   1.00
N781   N     0.04745   0.16154   0.12954   0.00000  Uiso   1.00
N782   N     0.84718   0.41435   0.05829   0.00000  Uiso   1.00
C783   C     0.36032   0.32727   0.03353   0.00000  Uiso   1.00
C784   C     0.80777   0.80233   0.95117   0.00000  Uiso   1.00
C785   C     0.25744   0.33366   0.89010   0.00000  Uiso   1.00
C786   C     0.71436   0.80286   0.81923   0.00000  Uiso   1.00
C787   C     0.63169   0.77326   0.69277   0.00000  Uiso   1.00
C788   C     0.40510   0.32546   0.05141   0.00000  Uiso   1.00
C789   C     0.43661   0.37625   0.07464   0.00000  Uiso   1.00
C790   C     0.47546   0.36492   0.08816   0.00000  Uiso   1.00
C791   C     0.04393   0.87123   0.11739   0.00000  Uiso   1.00
C792   C     0.37698   0.27836   0.08617   0.00000  Uiso   1.00
C793   C     0.38487   0.28954   0.13863   0.00000  Uiso   1.00
C794   C     0.40006   0.23855   0.18143   0.00000  Uiso   1.00
C795   C     0.42487   0.17172   0.26461   0.00000  Uiso   1.00
C796   C     0.87329   0.71684   0.01627   0.00000  Uiso   1.00
C797   C     0.81481   0.74234   0.94180   0.00000  Uiso   1.00
C798   C     0.77179   0.71148   0.87100   0.00000  Uiso   1.00
C799   C     0.72141   0.74277   0.80984   0.00000  Uiso   1.00
C800   C     0.91214   0.76548   0.04204   0.00000  Uiso   1.00
C801   C     0.95096   0.75407   0.05554   0.00000  Uiso   1.00
C802   C     0.98252   0.80483   0.07877   0.00000  Uiso   1.00
C803   C     0.88402   0.71837   0.07679   0.00000  Uiso   1.00
C804   C     0.89921   0.66736   0.11952   0.00000  Uiso   1.00
C805   C     0.90711   0.67846   0.17203   0.00000  Uiso   1.00
H806   H     0.35484   0.37398   0.04083   0.00000  Uiso   1.00
H807   H     0.25201   0.38009   0.89738   0.00000  Uiso   1.00
H808   H     0.43116   0.42266   0.08190   0.00000  Uiso   1.00
H809   H     0.37941   0.33597   0.14587   0.00000  Uiso   1.00
H810   H     0.64112   0.86042   0.73419   0.00000  Uiso   1.00
H811   H     0.51887   0.45019   0.12328   0.00000  Uiso   1.00
H812   H     0.40976   0.26737   0.25819   0.00000  Uiso   1.00
H813   H     0.87877   0.67014   0.00897   0.00000  Uiso   1.00
H814   H     0.77725   0.66506   0.86376   0.00000  Uiso   1.00
H815   H     0.95640   0.70764   0.04828   0.00000  Uiso   1.00
H816   H     0.90466   0.62095   0.11225   0.00000  Uiso   1.00
H817   H     0.66161   0.68590   0.70691   0.00000  Uiso   1.00
H818   H     0.03936   0.77567   0.09600   0.00000  Uiso   1.00
H819   H     0.93025   0.59285   0.23090   0.00000  Uiso   1.00
O820   O     0.58416   0.77351   0.62560   0.00000  Uiso   1.00
O821   O     0.07975   0.89128   0.13609   0.00000  Uiso   1.00
O822   O     0.43661   0.15143   0.31307   0.00000  Uiso   1.00
N823   N     0.65987   0.82004   0.74770   0.00000  Uiso   1.00
N824   N     0.51304   0.40397   0.11147   0.00000  Uiso   1.00
N825   N     0.41105   0.23306   0.23761   0.00000  Uiso   1.00
N826   N     0.67089   0.72613   0.73302   0.00000  Uiso   1.00
N827   N     0.02406   0.81006   0.09679   0.00000  Uiso   1.00
N828   N     0.92207   0.63915   0.22292   0.00000  Uiso   1.00
C829   C     0.30071   0.99617   0.79513   0.00000  Uiso   1.00
C830   C     0.81490   0.56336   0.79874   0.00000  Uiso   1.00
C831   C     0.80651   0.58957   0.74888   0.00000  Uiso   1.00
C832   C     0.82226   0.65182   0.76183   0.00000  Uiso   1.00
C833   C     0.84072   0.75087   0.75819   0.00000  Uiso   1.00
C834   C     0.76224   0.50154   0.78873   0.00000  Uiso   1.00
C835   C     0.20959   0.97576   0.73046   0.00000  Uiso   1.00
C836   C     0.18101   0.98596   0.73499   0.00000  Uiso   1.00
C837   C     0.11774   0.98900   0.71584   0.00000  Uiso   1.00
C838   C     0.85436   0.46744   0.87444   0.00000  Uiso   1.00
C839   C     0.87916   0.41297   0.88822   0.00000  Uiso   1.00
C840   C     0.92813   0.39445   0.96491   0.00000  Uiso   1.00
C841   C     0.00789   0.34453   0.07883   0.00000  Uiso   1.00
C842   C     0.84358   0.56012   0.90680   0.00000  Uiso   1.00
C843   C     0.83818   0.59810   0.85940   0.00000  Uiso   1.00
C844   C     0.85395   0.66032   0.87243   0.00000  Uiso   1.00
C845   C     0.84559   0.68661   0.82260   0.00000  Uiso   1.00
C846   C     0.78553   0.53628   0.84939   0.00000  Uiso   1.00
C847   C     0.25702   0.04651   0.85401   0.00000  Uiso   1.00
C848   C     0.20434   0.02076   0.79576   0.00000  Uiso   1.00
C849   C     0.37765   0.00217   0.93510   0.00000  Uiso   1.00
C850   C     0.42659   0.98373   0.01178   0.00000  Uiso   1.00
C851   C     0.45146   0.92924   0.02568   0.00000  Uiso   1.00
H852   H     0.28258   0.96913   0.74790   0.00000  Uiso   1.00
H853   H     0.28849   0.06268   0.70194   0.00000  Uiso   1.00
H854   H     0.69158   0.44888   0.68353   0.00000  Uiso   1.00
H855   H     0.86113   0.38610   0.84127   0.00000  Uiso   1.00
H856   H     0.80529   0.68171   0.67771   0.00000  Uiso   1.00
H857   H     0.60097   0.44175   0.63891   0.00000  Uiso   1.00
H858   H     0.95848   0.30937   0.97153   0.00000  Uiso   1.00
H859   H     0.86171   0.58716   0.95403   0.00000  Uiso   1.00
H860   H     0.87197   0.68719   0.91938   0.00000  Uiso   1.00
H861   H     0.27506   0.07339   0.90096   0.00000  Uiso   1.00
H862   H     0.44460   0.01062   0.05870   0.00000  Uiso   1.00
H863   H     0.87304   0.78277   0.85419   0.00000  Uiso   1.00
H864   H     0.16871   0.04281   0.81538   0.00000  Uiso   1.00
H865   H     0.52623   0.91043   0.14801   0.00000  Uiso   1.00
O866   O     0.84447   0.79592   0.73941   0.00000  Uiso   1.00
O867   O     0.07640   0.98109   0.68852   0.00000  Uiso   1.00
O868   O     0.04546   0.30741   0.12491   0.00000  Uiso   1.00
N869   N     0.81984   0.69177   0.72401   0.00000  Uiso   1.00
N870   N     0.12880   0.96742   0.68772   0.00000  Uiso   1.00
N871   N     0.96304   0.34365   0.99870   0.00000  Uiso   1.00
N872   N     0.85630   0.74615   0.81897   0.00000  Uiso   1.00
N873   N     0.16526   0.02180   0.78268   0.00000  Uiso   1.00
N874   N     0.99950   0.39803   0.09366   0.00000  Uiso   1.00
C875   C     0.65341   0.67101   0.51331   0.00000  Uiso   1.00
C876   C     0.14463   0.12720   0.46511   0.00000  Uiso   1.00
C877   C     0.17848   0.07712   0.49342   0.00000  Uiso   1.00
C878   C     0.16335   0.04271   0.43993   0.00000  Uiso   1.00
C879   C     0.15690   0.97236   0.37709   0.00000  Uiso   1.00
C880   C     0.60036   0.66765   0.47780   0.00000  Uiso   1.00
C881   C     0.59700   0.65159   0.51678   0.00000  Uiso   1.00
C882   C     0.54461   0.65125   0.47397   0.00000  Uiso   1.00
C883   C     0.46944   0.64375   0.43084   0.00000  Uiso   1.00
C884   C     0.65556   0.73732   0.49743   0.00000  Uiso   1.00
C885   C     0.69861   0.77985   0.55292   0.00000  Uiso   1.00
C886   C     0.69268   0.83817   0.52665   0.00000  Uiso   1.00
C887   C     0.70322   0.93884   0.51401   0.00000  Uiso   1.00
C888   C     0.56634   0.69896   0.36798   0.00000  Uiso   1.00
C889   C     0.09733   0.14238   0.38617   0.00000  Uiso   1.00
C890   C     0.08215   0.10805   0.33263   0.00000  Uiso   1.00
C891   C     0.11598   0.05792   0.36085   0.00000  Uiso   1.00
C892   C     0.55307   0.68283   0.39886   0.00000  Uiso   1.00
C893   C     0.50067   0.68252   0.35599   0.00000  Uiso   1.00
C894   C     0.49723   0.66646   0.39489   0.00000  Uiso   1.00
C895   C     0.60827   0.75250   0.41850   0.00000  Uiso   1.00
C896   C     0.60228   0.81077   0.39213   0.00000  Uiso   1.00
C897   C     0.64531   0.85338   0.44757   0.00000  Uiso   1.00
H898   H     0.69022   0.65919   0.57476   0.00000  Uiso   1.00
H899   H     0.21507   0.06538   0.55451   0.00000  Uiso   1.00
H900   H     0.63361   0.63985   0.57787   0.00000  Uiso   1.00
H901   H     0.73520   0.76808   0.61400   0.00000  Uiso   1.00
H902   H     0.22176   0.96806   0.49723   0.00000  Uiso   1.00
H903   H     0.54998   0.62511   0.54649   0.00000  Uiso   1.00
H904   H     0.76421   0.89552   0.62270   0.00000  Uiso   1.00
H905   H     0.02952   0.21078   0.30652   0.00000  Uiso   1.00
H906   H     0.04555   0.11981   0.27154   0.00000  Uiso   1.00
H907   H     0.46409   0.69427   0.29491   0.00000  Uiso   1.00
H908   H     0.56567   0.82251   0.33104   0.00000  Uiso   1.00
H909   H     0.08417   0.01223   0.26757   0.00000  Uiso   1.00
H910   H     0.41239   0.66928   0.31683   0.00000  Uiso   1.00
H911   H     0.62661   0.93969   0.39304   0.00000  Uiso   1.00
O912   O     0.16640   0.92936   0.36423   0.00000  Uiso   1.00
O913   O     0.44104   0.63540   0.42886   0.00000  Uiso   1.00
O914   O     0.72210   0.99017   0.52884   0.00000  Uiso   1.00
N915   N     0.18718   0.99095   0.44798   0.00000  Uiso   1.00
N916   N     0.52658   0.63777   0.49404   0.00000  Uiso   1.00
N917   N     0.72686   0.89058   0.56529   0.00000  Uiso   1.00
N918   N     0.11315   0.01472   0.32440   0.00000  Uiso   1.00
N919   N     0.45255   0.66154   0.37046   0.00000  Uiso   1.00
N920   N     0.65282   0.91435   0.44171   0.00000  Uiso   1.00
C921   C     0.13968   0.82727   0.46647   0.00000  Uiso   1.00
C922   C     0.69223   0.30233   0.54883   0.00000  Uiso   1.00
C923   C     0.24256   0.83366   0.60990   0.00000  Uiso   1.00
C924   C     0.78564   0.30286   0.68077   0.00000  Uiso   1.00
C925   C     0.86831   0.27326   0.80723   0.00000  Uiso   1.00
C926   C     0.09490   0.82546   0.44859   0.00000  Uiso   1.00
C927   C     0.06339   0.87625   0.42536   0.00000  Uiso   1.00
C928   C     0.02454   0.86492   0.41184   0.00000  Uiso   1.00
C929   C     0.45607   0.37123   0.38261   0.00000  Uiso   1.00
C930   C     0.12302   0.77836   0.41383   0.00000  Uiso   1.00
C931   C     0.11513   0.78954   0.36137   0.00000  Uiso   1.00
C932   C     0.09994   0.73855   0.31857   0.00000  Uiso   1.00
C933   C     0.07513   0.67172   0.23539   0.00000  Uiso   1.00
C934   C     0.62671   0.21684   0.48373   0.00000  Uiso   1.00
C935   C     0.68519   0.24234   0.55820   0.00000  Uiso   1.00
C936   C     0.72821   0.21148   0.62900   0.00000  Uiso   1.00
C937   C     0.77859   0.24277   0.69016   0.00000  Uiso   1.00
C938   C     0.58786   0.26548   0.45796   0.00000  Uiso   1.00
C939   C     0.54904   0.25407   0.44446   0.00000  Uiso   1.00
C940   C     0.51748   0.30483   0.42123   0.00000  Uiso   1.00
C941   C     0.61598   0.21837   0.42321   0.00000  Uiso   1.00
C942   C     0.60079   0.16736   0.38048   0.00000  Uiso   1.00
C943   C     0.59289   0.17846   0.32797   0.00000  Uiso   1.00
H944   H     0.14516   0.87398   0.45917   0.00000  Uiso   1.00
H945   H     0.24799   0.88009   0.60262   0.00000  Uiso   1.00
H946   H     0.06884   0.92266   0.41810   0.00000  Uiso   1.00
H947   H     0.12059   0.83597   0.35413   0.00000  Uiso   1.00
H948   H     0.85888   0.36042   0.76581   0.00000  Uiso   1.00
H949   H     0.98113   0.95019   0.37672   0.00000  Uiso   1.00
H950   H     0.09024   0.76737   0.24181   0.00000  Uiso   1.00
H951   H     0.62123   0.17014   0.49103   0.00000  Uiso   1.00
H952   H     0.72275   0.16506   0.63624   0.00000  Uiso   1.00
H953   H     0.54360   0.20764   0.45172   0.00000  Uiso   1.00
H954   H     0.59534   0.12095   0.38775   0.00000  Uiso   1.00
H955   H     0.83839   0.18590   0.79309   0.00000  Uiso   1.00
H956   H     0.46064   0.27567   0.40400   0.00000  Uiso   1.00
H957   H     0.56975   0.09285   0.26910   0.00000  Uiso   1.00
O958   O     0.91584   0.27351   0.87440   0.00000  Uiso   1.00
O959   O     0.42025   0.39128   0.36391   0.00000  Uiso   1.00
O960   O     0.06339   0.65143   0.18693   0.00000  Uiso   1.00
N961   N     0.84013   0.32004   0.75230   0.00000  Uiso   1.00
N962   N     0.98696   0.90397   0.38853   0.00000  Uiso   1.00
N963   N     0.08895   0.73306   0.26239   0.00000  Uiso   1.00
N964   N     0.82911   0.22613   0.76698   0.00000  Uiso   1.00
N965   N     0.47594   0.31006   0.40321   0.00000  Uiso   1.00
N966   N     0.57793   0.13915   0.27708   0.00000  Uiso   1.00
C967   C     0.80071   0.49617   0.79513   0.00000  Uiso   1.00
C968   C     0.31490   0.06336   0.79874   0.00000  Uiso   1.00
C969   C     0.30651   0.08957   0.74888   0.00000  Uiso   1.00
C970   C     0.32226   0.15182   0.76183   0.00000  Uiso   1.00
C971   C     0.34072   0.25087   0.75819   0.00000  Uiso   1.00
C972   C     0.26224   0.00154   0.78873   0.00000  Uiso   1.00
C973   C     0.70959   0.47576   0.73046   0.00000  Uiso   1.00
C974   C     0.68101   0.48596   0.73499   0.00000  Uiso   1.00
C975   C     0.61774   0.48900   0.71584   0.00000  Uiso   1.00
C976   C     0.35436   0.96744   0.87444   0.00000  Uiso   1.00
C977   C     0.37916   0.91297   0.88822   0.00000  Uiso   1.00
C978   C     0.42813   0.89445   0.96491   0.00000  Uiso   1.00
C979   C     0.50789   0.84453   0.07883   0.00000  Uiso   1.00
C980   C     0.34358   0.06012   0.90680   0.00000  Uiso   1.00
C981   C     0.33818   0.09810   0.85940   0.00000  Uiso   1.00
C982   C     0.35395   0.16032   0.87243   0.00000  Uiso   1.00
C983   C     0.34559   0.18661   0.82260   0.00000  Uiso   1.00
C984   C     0.28553   0.03628   0.84939   0.00000  Uiso   1.00
C985   C     0.75702   0.54651   0.85401   0.00000  Uiso   1.00
C986   C     0.70434   0.52076   0.79576   0.00000  Uiso   1.00
C987   C     0.87765   0.50217   0.93510   0.00000  Uiso   1.00
C988   C     0.92659   0.48373   0.01178   0.00000  Uiso   1.00
C989   C     0.95146   0.42924   0.02568   0.00000  Uiso   1.00
H990   H     0.78258   0.46913   0.74790   0.00000  Uiso   1.00
H991   H     0.78849   0.56268   0.70194   0.00000  Uiso   1.00
H992   H     0.19158   0.94888   0.68353   0.00000  Uiso   1.00
H993   H     0.36113   0.88610   0.84127   0.00000  Uiso   1.00
H994   H     0.30529   0.18171   0.67771   0.00000  Uiso   1.00
H995   H     0.10097   0.94175   0.63891   0.00000  Uiso   1.00
H996   H     0.45848   0.80937   0.97153   0.00000  Uiso   1.00
H997   H     0.36171   0.08716   0.95403   0.00000  Uiso   1.00
H998   H     0.37197   0.18719   0.91938   0.00000  Uiso   1.00
H999   H     0.77506   0.57339   0.90096   0.00000  Uiso   1.00
H1000  H     0.94460   0.51062   0.05870   0.00000  Uiso   1.00
H1001  H     0.37304   0.28277   0.85419   0.00000  Uiso   1.00
H1002  H     0.66871   0.54281   0.81538   0.00000  Uiso   1.00
H1003  H     0.02623   0.41043   0.14801   0.00000  Uiso   1.00
O1004  O     0.34447   0.29592   0.73941   0.00000  Uiso   1.00
O1005  O     0.57640   0.48109   0.68852   0.00000  Uiso   1.00
O1006  O     0.54546   0.80741   0.12491   0.00000  Uiso   1.00
N1007  N     0.31984   0.19177   0.72401   0.00000  Uiso   1.00
N1008  N     0.62880   0.46742   0.68772   0.00000  Uiso   1.00
N1009  N     0.46304   0.84365   0.99870   0.00000  Uiso   1.00
N1010  N     0.35630   0.24615   0.81897   0.00000  Uiso   1.00
N1011  N     0.66526   0.52180   0.78268   0.00000  Uiso   1.00
N1012  N     0.49950   0.89803   0.09366   0.00000  Uiso   1.00
C1013  C     0.15341   0.17101   0.51331   0.00000  Uiso   1.00
C1014  C     0.64463   0.62720   0.46511   0.00000  Uiso   1.00
C1015  C     0.67848   0.57712   0.49342   0.00000  Uiso   1.00
C1016  C     0.66335   0.54271   0.43993   0.00000  Uiso   1.00
C1017  C     0.65690   0.47236   0.37709   0.00000  Uiso   1.00
C1018  C     0.10036   0.16765   0.47780   0.00000  Uiso   1.00
C1019  C     0.09700   0.15159   0.51678   0.00000  Uiso   1.00
C1020  C     0.04461   0.15125   0.47397   0.00000  Uiso   1.00
C1021  C     0.96944   0.14375   0.43084   0.00000  Uiso   1.00
C1022  C     0.15556   0.23732   0.49743   0.00000  Uiso   1.00
C1023  C     0.19861   0.27985   0.55292   0.00000  Uiso   1.00
C1024  C     0.19268   0.33817   0.52665   0.00000  Uiso   1.00
C1025  C     0.20322   0.43884   0.51401   0.00000  Uiso   1.00
C1026  C     0.06634   0.19896   0.36798   0.00000  Uiso   1.00
C1027  C     0.59733   0.64238   0.38617   0.00000  Uiso   1.00
C1028  C     0.58215   0.60805   0.33263   0.00000  Uiso   1.00
C1029  C     0.61598   0.55792   0.36085   0.00000  Uiso   1.00
C1030  C     0.05307   0.18283   0.39886   0.00000  Uiso   1.00
C1031  C     0.00067   0.18252   0.35599   0.00000  Uiso   1.00
C1032  C     0.99723   0.16646   0.39489   0.00000  Uiso   1.00
C1033  C     0.10827   0.25250   0.41850   0.00000  Uiso   1.00
C1034  C     0.10228   0.31077   0.39213   0.00000  Uiso   1.00
C1035  C     0.14531   0.35338   0.44757   0.00000  Uiso   1.00
H1036  H     0.19022   0.15919   0.57476   0.00000  Uiso   1.00
H1037  H     0.71507   0.56538   0.55451   0.00000  Uiso   1.00
H1038  H     0.13361   0.13985   0.57787   0.00000  Uiso   1.00
H1039  H     0.23520   0.26808   0.61400   0.00000  Uiso   1.00
H1040  H     0.72176   0.46806   0.49723   0.00000  Uiso   1.00
H1041  H     0.04998   0.12511   0.54649   0.00000  Uiso   1.00
H1042  H     0.26421   0.39552   0.62270   0.00000  Uiso   1.00
H1043  H     0.52952   0.71078   0.30652   0.00000  Uiso   1.00
H1044  H     0.54555   0.61981   0.27154   0.00000  Uiso   1.00
H1045  H     0.96409   0.19427   0.29491   0.00000  Uiso   1.00
H1046  H     0.06567   0.32251   0.33104   0.00000  Uiso   1.00
H1047  H     0.58417   0.51223   0.26757   0.00000  Uiso   1.00
H1048  H     0.91239   0.16928   0.31683   0.00000  Uiso   1.00
H1049  H     0.12661   0.43969   0.39304   0.00000  Uiso   1.00
O1050  O     0.66640   0.42936   0.36423   0.00000  Uiso   1.00
O1051  O     0.94104   0.13540   0.42886   0.00000  Uiso   1.00
O1052  O     0.22210   0.49017   0.52884   0.00000  Uiso   1.00
N1053  N     0.68718   0.49095   0.44798   0.00000  Uiso   1.00
N1054  N     0.02658   0.13777   0.49404   0.00000  Uiso   1.00
N1055  N     0.22686   0.39058   0.56529   0.00000  Uiso   1.00
N1056  N     0.61315   0.51472   0.32440   0.00000  Uiso   1.00
N1057  N     0.95255   0.16154   0.37046   0.00000  Uiso   1.00
N1058  N     0.15282   0.41435   0.44171   0.00000  Uiso   1.00
C1059  C     0.63968   0.32727   0.46647   0.00000  Uiso   1.00
C1060  C     0.19223   0.80233   0.54883   0.00000  Uiso   1.00
C1061  C     0.74256   0.33366   0.60990   0.00000  Uiso   1.00
C1062  C     0.28564   0.80286   0.68077   0.00000  Uiso   1.00
C1063  C     0.36831   0.77326   0.80723   0.00000  Uiso   1.00
C1064  C     0.59490   0.32546   0.44859   0.00000  Uiso   1.00
C1065  C     0.56339   0.37625   0.42536   0.00000  Uiso   1.00
C1066  C     0.52454   0.36492   0.41184   0.00000  Uiso   1.00
C1067  C     0.95607   0.87123   0.38261   0.00000  Uiso   1.00
C1068  C     0.62302   0.27836   0.41383   0.00000  Uiso   1.00
C1069  C     0.61513   0.28954   0.36137   0.00000  Uiso   1.00
C1070  C     0.59994   0.23855   0.31857   0.00000  Uiso   1.00
C1071  C     0.57513   0.17172   0.23539   0.00000  Uiso   1.00
C1072  C     0.12671   0.71684   0.48373   0.00000  Uiso   1.00
C1073  C     0.18519   0.74234   0.55820   0.00000  Uiso   1.00
C1074  C     0.22821   0.71148   0.62900   0.00000  Uiso   1.00
C1075  C     0.27859   0.74277   0.69016   0.00000  Uiso   1.00
C1076  C     0.08786   0.76548   0.45796   0.00000  Uiso   1.00
C1077  C     0.04904   0.75407   0.44446   0.00000  Uiso   1.00
C1078  C     0.01748   0.80483   0.42123   0.00000  Uiso   1.00
C1079  C     0.11598   0.71837   0.42321   0.00000  Uiso   1.00
C1080  C     0.10079   0.66736   0.38048   0.00000  Uiso   1.00
C1081  C     0.09289   0.67846   0.32797   0.00000  Uiso   1.00
H1082  H     0.64516   0.37398   0.45917   0.00000  Uiso   1.00
H1083  H     0.74799   0.38009   0.60262   0.00000  Uiso   1.00
H1084  H     0.56884   0.42266   0.41810   0.00000  Uiso   1.00
H1085  H     0.62059   0.33597   0.35413   0.00000  Uiso   1.00
H1086  H     0.35888   0.86042   0.76581   0.00000  Uiso   1.00
H1087  H     0.48113   0.45019   0.37672   0.00000  Uiso   1.00
H1088  H     0.59024   0.26737   0.24181   0.00000  Uiso   1.00
H1089  H     0.12123   0.67014   0.49103   0.00000  Uiso   1.00
H1090  H     0.22275   0.66506   0.63624   0.00000  Uiso   1.00
H1091  H     0.04360   0.70764   0.45172   0.00000  Uiso   1.00
H1092  H     0.09534   0.62095   0.38775   0.00000  Uiso   1.00
H1093  H     0.33839   0.68590   0.79309   0.00000  Uiso   1.00
H1094  H     0.96064   0.77567   0.40400   0.00000  Uiso   1.00
H1095  H     0.06975   0.59285   0.26910   0.00000  Uiso   1.00
O1096  O     0.41584   0.77351   0.87440   0.00000  Uiso   1.00
O1097  O     0.92025   0.89128   0.36391   0.00000  Uiso   1.00
O1098  O     0.56339   0.15143   0.18693   0.00000  Uiso   1.00
N1099  N     0.34013   0.82004   0.75230   0.00000  Uiso   1.00
N1100  N     0.48696   0.40397   0.38853   0.00000  Uiso   1.00
N1101  N     0.58895   0.23306   0.26239   0.00000  Uiso   1.00
N1102  N     0.32911   0.72613   0.76698   0.00000  Uiso   1.00
N1103  N     0.97594   0.81006   0.40321   0.00000  Uiso   1.00
N1104  N     0.07793   0.63915   0.27708   0.00000  Uiso   1.00
