data_job_04981
_audit_creation_date              2018-12-19
_audit_creation_method            'Materials Studio'
_symmetry_space_group_name_H-M    'P1'
_symmetry_Int_Tables_number       1
_symmetry_cell_setting            triclinic
loop_
_symmetry_equiv_pos_as_xyz
  x,y,z
_cell_length_a                    37.1156
_cell_length_b                    43.3646
_cell_length_c                    7.0024
_cell_angle_alpha                 90.0000
_cell_angle_beta                  90.0000
_cell_angle_gamma                 90.0000
loop_
_atom_site_label
_atom_site_type_symbol
_atom_site_fract_x
_atom_site_fract_y
_atom_site_fract_z
_atom_site_U_iso_or_equiv
_atom_site_adp_type
_atom_site_occupancy
C1     C     0.70095   0.64190   0.43417   0.00000  Uiso   1.00
C2     C     0.73843   0.62893   0.47315   0.00000  Uiso   1.00
C3     C     0.76152   0.61653   0.33756   0.00000  Uiso   1.00
C4     C     0.79465   0.60588   0.40194   0.00000  Uiso   1.00
C5     C     0.85136   0.58546   0.43311   0.00000  Uiso   1.00
C6     C     0.67529   0.62405   0.56338   0.00000  Uiso   1.00
C7     C     0.64530   0.60754   0.50365   0.00000  Uiso   1.00
C8     C     0.62527   0.59279   0.64400   0.00000  Uiso   1.00
C9     C     0.58395   0.56481   0.81527   0.00000  Uiso   1.00
C10    C     0.70130   0.67489   0.50957   0.00000  Uiso   1.00
C11    C     0.69317   0.70113   0.40462   0.00000  Uiso   1.00
C12    C     0.69504   0.72919   0.49968   0.00000  Uiso   1.00
C13    C     0.69410   0.78015   0.58739   0.00000  Uiso   1.00
C14    C     0.71870   0.64506   0.78962   0.00000  Uiso   1.00
C15    C     0.74806   0.63065   0.66622   0.00000  Uiso   1.00
C16    C     0.78116   0.62002   0.73082   0.00000  Uiso   1.00
C17    C     0.80430   0.60760   0.59535   0.00000  Uiso   1.00
C18    C     0.68493   0.62576   0.75644   0.00000  Uiso   1.00
C19    C     0.66493   0.61103   0.89691   0.00000  Uiso   1.00
C20    C     0.63493   0.59450   0.83742   0.00000  Uiso   1.00
C21    C     0.71094   0.67661   0.70263   0.00000  Uiso   1.00
C22    C     0.71281   0.70462   0.79788   0.00000  Uiso   1.00
C23    C     0.70469   0.73090   0.69309   0.00000  Uiso   1.00
H24    H     0.69344   0.64057   0.28386   0.00000  Uiso   1.00
H25    H     0.75405   0.61520   0.18817   0.00000  Uiso   1.00
H26    H     0.63785   0.60622   0.35424   0.00000  Uiso   1.00
H27    H     0.68571   0.69980   0.25522   0.00000  Uiso   1.00
H28    H     0.82550   0.58782   0.16722   0.00000  Uiso   1.00
H29    H     0.58046   0.56889   0.51740   0.00000  Uiso   1.00
H30    H     0.68140   0.76622   0.30859   0.00000  Uiso   1.00
H31    H     0.72620   0.64640   0.93993   0.00000  Uiso   1.00
H32    H     0.78861   0.62135   0.88023   0.00000  Uiso   1.00
H33    H     0.67240   0.61237   0.04630   0.00000  Uiso   1.00
H34    H     0.72027   0.70594   0.94728   0.00000  Uiso   1.00
H35    H     0.85354   0.59281   0.72893   0.00000  Uiso   1.00
H36    H     0.60850   0.57388   0.07910   0.00000  Uiso   1.00
H37    H     0.70944   0.77121   0.87030   0.00000  Uiso   1.00
O38    O     0.87998   0.57373   0.39698   0.00000  Uiso   1.00
O39    O     0.55850   0.54890   0.85639   0.00000  Uiso   1.00
O40    O     0.69093   0.80778   0.58244   0.00000  Uiso   1.00
N41    N     0.82354   0.59244   0.30761   0.00000  Uiso   1.00
N42    N     0.59444   0.57474   0.63500   0.00000  Uiso   1.00
N43    N     0.68880   0.75922   0.43979   0.00000  Uiso   1.00
N44    N     0.83863   0.59512   0.60986   0.00000  Uiso   1.00
N45    N     0.60954   0.57742   0.93725   0.00000  Uiso   1.00
N46    N     0.70389   0.76191   0.74204   0.00000  Uiso   1.00
C47    C     0.70095   0.14190   0.93417   0.00000  Uiso   1.00
C48    C     0.73843   0.12893   0.97315   0.00000  Uiso   1.00
C49    C     0.76152   0.11653   0.83756   0.00000  Uiso   1.00
C50    C     0.79465   0.10588   0.90194   0.00000  Uiso   1.00
C51    C     0.85136   0.08546   0.93311   0.00000  Uiso   1.00
C52    C     0.67529   0.12405   0.06338   0.00000  Uiso   1.00
C53    C     0.64530   0.10754   0.00365   0.00000  Uiso   1.00
C54    C     0.62527   0.09279   0.14400   0.00000  Uiso   1.00
C55    C     0.58395   0.06481   0.31527   0.00000  Uiso   1.00
C56    C     0.70130   0.17489   0.00957   0.00000  Uiso   1.00
C57    C     0.69317   0.20113   0.90462   0.00000  Uiso   1.00
C58    C     0.69504   0.22919   0.99968   0.00000  Uiso   1.00
C59    C     0.69410   0.28015   0.08739   0.00000  Uiso   1.00
C60    C     0.71870   0.14506   0.28962   0.00000  Uiso   1.00
C61    C     0.74806   0.13065   0.16622   0.00000  Uiso   1.00
C62    C     0.78116   0.12002   0.23082   0.00000  Uiso   1.00
C63    C     0.80430   0.10760   0.09535   0.00000  Uiso   1.00
C64    C     0.68493   0.12576   0.25644   0.00000  Uiso   1.00
C65    C     0.66493   0.11103   0.39691   0.00000  Uiso   1.00
C66    C     0.63493   0.09450   0.33742   0.00000  Uiso   1.00
C67    C     0.71094   0.17661   0.20263   0.00000  Uiso   1.00
C68    C     0.71281   0.20462   0.29788   0.00000  Uiso   1.00
C69    C     0.70469   0.23090   0.19309   0.00000  Uiso   1.00
H70    H     0.69344   0.14057   0.78386   0.00000  Uiso   1.00
H71    H     0.75405   0.11520   0.68817   0.00000  Uiso   1.00
H72    H     0.63785   0.10622   0.85424   0.00000  Uiso   1.00
H73    H     0.68571   0.19980   0.75522   0.00000  Uiso   1.00
H74    H     0.82550   0.08782   0.66722   0.00000  Uiso   1.00
H75    H     0.58046   0.06889   0.01740   0.00000  Uiso   1.00
H76    H     0.68140   0.26622   0.80859   0.00000  Uiso   1.00
H77    H     0.72620   0.14640   0.43993   0.00000  Uiso   1.00
H78    H     0.78861   0.12135   0.38023   0.00000  Uiso   1.00
H79    H     0.67240   0.11237   0.54630   0.00000  Uiso   1.00
H80    H     0.72027   0.20594   0.44728   0.00000  Uiso   1.00
H81    H     0.85354   0.09281   0.22893   0.00000  Uiso   1.00
H82    H     0.60850   0.07388   0.57910   0.00000  Uiso   1.00
H83    H     0.70944   0.27121   0.37030   0.00000  Uiso   1.00
O84    O     0.87998   0.07373   0.89698   0.00000  Uiso   1.00
O85    O     0.55850   0.04890   0.35639   0.00000  Uiso   1.00
O86    O     0.69093   0.30778   0.08244   0.00000  Uiso   1.00
N87    N     0.82354   0.09244   0.80761   0.00000  Uiso   1.00
N88    N     0.59444   0.07474   0.13500   0.00000  Uiso   1.00
N89    N     0.68880   0.25922   0.93979   0.00000  Uiso   1.00
N90    N     0.83863   0.09512   0.10986   0.00000  Uiso   1.00
N91    N     0.60954   0.07742   0.43725   0.00000  Uiso   1.00
N92    N     0.70389   0.26191   0.24204   0.00000  Uiso   1.00
C93    C     0.20095   0.64190   0.93417   0.00000  Uiso   1.00
C94    C     0.23843   0.62893   0.97315   0.00000  Uiso   1.00
C95    C     0.26152   0.61653   0.83756   0.00000  Uiso   1.00
C96    C     0.29465   0.60588   0.90194   0.00000  Uiso   1.00
C97    C     0.35136   0.58546   0.93311   0.00000  Uiso   1.00
C98    C     0.17529   0.62405   0.06338   0.00000  Uiso   1.00
C99    C     0.14530   0.60754   0.00365   0.00000  Uiso   1.00
C100   C     0.12527   0.59279   0.14400   0.00000  Uiso   1.00
C101   C     0.08395   0.56481   0.31527   0.00000  Uiso   1.00
C102   C     0.20130   0.67489   0.00957   0.00000  Uiso   1.00
C103   C     0.19317   0.70113   0.90462   0.00000  Uiso   1.00
C104   C     0.19504   0.72919   0.99968   0.00000  Uiso   1.00
C105   C     0.19410   0.78015   0.08739   0.00000  Uiso   1.00
C106   C     0.21870   0.64506   0.28962   0.00000  Uiso   1.00
C107   C     0.24806   0.63065   0.16622   0.00000  Uiso   1.00
C108   C     0.28116   0.62002   0.23082   0.00000  Uiso   1.00
C109   C     0.30430   0.60760   0.09535   0.00000  Uiso   1.00
C110   C     0.18493   0.62576   0.25644   0.00000  Uiso   1.00
C111   C     0.16493   0.61103   0.39691   0.00000  Uiso   1.00
C112   C     0.13493   0.59450   0.33742   0.00000  Uiso   1.00
C113   C     0.21094   0.67661   0.20263   0.00000  Uiso   1.00
C114   C     0.21281   0.70462   0.29788   0.00000  Uiso   1.00
C115   C     0.20469   0.73090   0.19309   0.00000  Uiso   1.00
H116   H     0.19344   0.64057   0.78386   0.00000  Uiso   1.00
H117   H     0.25405   0.61520   0.68817   0.00000  Uiso   1.00
H118   H     0.13785   0.60622   0.85424   0.00000  Uiso   1.00
H119   H     0.18571   0.69980   0.75522   0.00000  Uiso   1.00
H120   H     0.32550   0.58782   0.66722   0.00000  Uiso   1.00
H121   H     0.08046   0.56889   0.01740   0.00000  Uiso   1.00
H122   H     0.18140   0.76622   0.80859   0.00000  Uiso   1.00
H123   H     0.22620   0.64640   0.43993   0.00000  Uiso   1.00
H124   H     0.28861   0.62135   0.38023   0.00000  Uiso   1.00
H125   H     0.17240   0.61237   0.54630   0.00000  Uiso   1.00
H126   H     0.22027   0.70594   0.44728   0.00000  Uiso   1.00
H127   H     0.35354   0.59281   0.22893   0.00000  Uiso   1.00
H128   H     0.10850   0.57388   0.57910   0.00000  Uiso   1.00
H129   H     0.20944   0.77121   0.37030   0.00000  Uiso   1.00
O130   O     0.37998   0.57373   0.89698   0.00000  Uiso   1.00
O131   O     0.05850   0.54890   0.35639   0.00000  Uiso   1.00
O132   O     0.19093   0.80778   0.08244   0.00000  Uiso   1.00
N133   N     0.32354   0.59244   0.80761   0.00000  Uiso   1.00
N134   N     0.09444   0.57474   0.13500   0.00000  Uiso   1.00
N135   N     0.18880   0.75922   0.93979   0.00000  Uiso   1.00
N136   N     0.33863   0.59512   0.10986   0.00000  Uiso   1.00
N137   N     0.10954   0.57742   0.43725   0.00000  Uiso   1.00
N138   N     0.20389   0.76191   0.24204   0.00000  Uiso   1.00
C139   C     0.20095   0.14190   0.43417   0.00000  Uiso   1.00
C140   C     0.23843   0.12893   0.47315   0.00000  Uiso   1.00
C141   C     0.26152   0.11653   0.33756   0.00000  Uiso   1.00
C142   C     0.29465   0.10588   0.40194   0.00000  Uiso   1.00
C143   C     0.35136   0.08546   0.43311   0.00000  Uiso   1.00
C144   C     0.17529   0.12405   0.56338   0.00000  Uiso   1.00
C145   C     0.14530   0.10754   0.50365   0.00000  Uiso   1.00
C146   C     0.12527   0.09279   0.64400   0.00000  Uiso   1.00
C147   C     0.08395   0.06481   0.81527   0.00000  Uiso   1.00
C148   C     0.20130   0.17489   0.50957   0.00000  Uiso   1.00
C149   C     0.19317   0.20113   0.40462   0.00000  Uiso   1.00
C150   C     0.19504   0.22919   0.49968   0.00000  Uiso   1.00
C151   C     0.19410   0.28015   0.58739   0.00000  Uiso   1.00
C152   C     0.21870   0.14506   0.78962   0.00000  Uiso   1.00
C153   C     0.24806   0.13065   0.66622   0.00000  Uiso   1.00
C154   C     0.28116   0.12002   0.73082   0.00000  Uiso   1.00
C155   C     0.30430   0.10760   0.59535   0.00000  Uiso   1.00
C156   C     0.18493   0.12576   0.75644   0.00000  Uiso   1.00
C157   C     0.16493   0.11103   0.89691   0.00000  Uiso   1.00
C158   C     0.13493   0.09450   0.83742   0.00000  Uiso   1.00
C159   C     0.21094   0.17661   0.70263   0.00000  Uiso   1.00
C160   C     0.21281   0.20462   0.79788   0.00000  Uiso   1.00
C161   C     0.20469   0.23090   0.69309   0.00000  Uiso   1.00
H162   H     0.19344   0.14057   0.28386   0.00000  Uiso   1.00
H163   H     0.25405   0.11520   0.18817   0.00000  Uiso   1.00
H164   H     0.13785   0.10622   0.35424   0.00000  Uiso   1.00
H165   H     0.18571   0.19980   0.25522   0.00000  Uiso   1.00
H166   H     0.32550   0.08782   0.16722   0.00000  Uiso   1.00
H167   H     0.08046   0.06889   0.51740   0.00000  Uiso   1.00
H168   H     0.18140   0.26622   0.30859   0.00000  Uiso   1.00
H169   H     0.22620   0.14640   0.93993   0.00000  Uiso   1.00
H170   H     0.28861   0.12135   0.88023   0.00000  Uiso   1.00
H171   H     0.17240   0.11237   0.04630   0.00000  Uiso   1.00
H172   H     0.22027   0.20594   0.94728   0.00000  Uiso   1.00
H173   H     0.35354   0.09281   0.72893   0.00000  Uiso   1.00
H174   H     0.10850   0.07388   0.07910   0.00000  Uiso   1.00
H175   H     0.20944   0.27121   0.87030   0.00000  Uiso   1.00
O176   O     0.37998   0.07373   0.39698   0.00000  Uiso   1.00
O177   O     0.05850   0.04890   0.85639   0.00000  Uiso   1.00
O178   O     0.19093   0.30778   0.58244   0.00000  Uiso   1.00
N179   N     0.32354   0.09244   0.30761   0.00000  Uiso   1.00
N180   N     0.09444   0.07474   0.63500   0.00000  Uiso   1.00
N181   N     0.18880   0.25922   0.43979   0.00000  Uiso   1.00
N182   N     0.33863   0.09512   0.60986   0.00000  Uiso   1.00
N183   N     0.10954   0.07742   0.93725   0.00000  Uiso   1.00
N184   N     0.20389   0.26191   0.74204   0.00000  Uiso   1.00
C185   C     0.29905   0.35810   0.43417   0.00000  Uiso   1.00
C186   C     0.26157   0.37107   0.47315   0.00000  Uiso   1.00
C187   C     0.23848   0.38347   0.33756   0.00000  Uiso   1.00
C188   C     0.20535   0.39412   0.40194   0.00000  Uiso   1.00
C189   C     0.14864   0.41454   0.43311   0.00000  Uiso   1.00
C190   C     0.32471   0.37595   0.56338   0.00000  Uiso   1.00
C191   C     0.35470   0.39246   0.50365   0.00000  Uiso   1.00
C192   C     0.37473   0.40721   0.64400   0.00000  Uiso   1.00
C193   C     0.41605   0.43519   0.81527   0.00000  Uiso   1.00
C194   C     0.29870   0.32511   0.50957   0.00000  Uiso   1.00
C195   C     0.30683   0.29887   0.40462   0.00000  Uiso   1.00
C196   C     0.30496   0.27081   0.49968   0.00000  Uiso   1.00
C197   C     0.30590   0.21985   0.58739   0.00000  Uiso   1.00
C198   C     0.28130   0.35494   0.78962   0.00000  Uiso   1.00
C199   C     0.25194   0.36935   0.66622   0.00000  Uiso   1.00
C200   C     0.21884   0.37998   0.73082   0.00000  Uiso   1.00
C201   C     0.19570   0.39240   0.59535   0.00000  Uiso   1.00
C202   C     0.31507   0.37424   0.75644   0.00000  Uiso   1.00
C203   C     0.33507   0.38897   0.89691   0.00000  Uiso   1.00
C204   C     0.36507   0.40550   0.83742   0.00000  Uiso   1.00
C205   C     0.28906   0.32339   0.70263   0.00000  Uiso   1.00
C206   C     0.28719   0.29538   0.79788   0.00000  Uiso   1.00
C207   C     0.29531   0.26910   0.69309   0.00000  Uiso   1.00
H208   H     0.30656   0.35943   0.28386   0.00000  Uiso   1.00
H209   H     0.24595   0.38480   0.18817   0.00000  Uiso   1.00
H210   H     0.36215   0.39378   0.35424   0.00000  Uiso   1.00
H211   H     0.31429   0.30020   0.25522   0.00000  Uiso   1.00
H212   H     0.17450   0.41218   0.16722   0.00000  Uiso   1.00
H213   H     0.41954   0.43111   0.51740   0.00000  Uiso   1.00
H214   H     0.31860   0.23378   0.30859   0.00000  Uiso   1.00
H215   H     0.27380   0.35360   0.93993   0.00000  Uiso   1.00
H216   H     0.21139   0.37865   0.88023   0.00000  Uiso   1.00
H217   H     0.32760   0.38763   0.04630   0.00000  Uiso   1.00
H218   H     0.27973   0.29406   0.94728   0.00000  Uiso   1.00
H219   H     0.14646   0.40719   0.72893   0.00000  Uiso   1.00
H220   H     0.39150   0.42612   0.07910   0.00000  Uiso   1.00
H221   H     0.29056   0.22879   0.87030   0.00000  Uiso   1.00
O222   O     0.12002   0.42627   0.39698   0.00000  Uiso   1.00
O223   O     0.44150   0.45110   0.85639   0.00000  Uiso   1.00
O224   O     0.30907   0.19222   0.58244   0.00000  Uiso   1.00
N225   N     0.17646   0.40756   0.30761   0.00000  Uiso   1.00
N226   N     0.40556   0.42526   0.63500   0.00000  Uiso   1.00
N227   N     0.31120   0.24078   0.43979   0.00000  Uiso   1.00
N228   N     0.16137   0.40488   0.60986   0.00000  Uiso   1.00
N229   N     0.39046   0.42258   0.93725   0.00000  Uiso   1.00
N230   N     0.29611   0.23809   0.74204   0.00000  Uiso   1.00
C231   C     0.29905   0.85810   0.93417   0.00000  Uiso   1.00
C232   C     0.26157   0.87107   0.97315   0.00000  Uiso   1.00
C233   C     0.23848   0.88347   0.83756   0.00000  Uiso   1.00
C234   C     0.20535   0.89412   0.90194   0.00000  Uiso   1.00
C235   C     0.14864   0.91454   0.93311   0.00000  Uiso   1.00
C236   C     0.32471   0.87595   0.06338   0.00000  Uiso   1.00
C237   C     0.35470   0.89246   0.00365   0.00000  Uiso   1.00
C238   C     0.37473   0.90721   0.14400   0.00000  Uiso   1.00
C239   C     0.41605   0.93519   0.31527   0.00000  Uiso   1.00
C240   C     0.29870   0.82511   0.00957   0.00000  Uiso   1.00
C241   C     0.30683   0.79887   0.90462   0.00000  Uiso   1.00
C242   C     0.30496   0.77081   0.99968   0.00000  Uiso   1.00
C243   C     0.30590   0.71985   0.08739   0.00000  Uiso   1.00
C244   C     0.28130   0.85494   0.28962   0.00000  Uiso   1.00
C245   C     0.25194   0.86935   0.16622   0.00000  Uiso   1.00
C246   C     0.21884   0.87998   0.23082   0.00000  Uiso   1.00
C247   C     0.19570   0.89240   0.09535   0.00000  Uiso   1.00
C248   C     0.31507   0.87424   0.25644   0.00000  Uiso   1.00
C249   C     0.33507   0.88897   0.39691   0.00000  Uiso   1.00
C250   C     0.36507   0.90550   0.33742   0.00000  Uiso   1.00
C251   C     0.28906   0.82339   0.20263   0.00000  Uiso   1.00
C252   C     0.28719   0.79538   0.29788   0.00000  Uiso   1.00
C253   C     0.29531   0.76910   0.19309   0.00000  Uiso   1.00
H254   H     0.30656   0.85943   0.78386   0.00000  Uiso   1.00
H255   H     0.24595   0.88480   0.68817   0.00000  Uiso   1.00
H256   H     0.36215   0.89378   0.85424   0.00000  Uiso   1.00
H257   H     0.31429   0.80020   0.75522   0.00000  Uiso   1.00
H258   H     0.17450   0.91218   0.66722   0.00000  Uiso   1.00
H259   H     0.41954   0.93111   0.01740   0.00000  Uiso   1.00
H260   H     0.31860   0.73378   0.80859   0.00000  Uiso   1.00
H261   H     0.27380   0.85360   0.43993   0.00000  Uiso   1.00
H262   H     0.21139   0.87865   0.38023   0.00000  Uiso   1.00
H263   H     0.32760   0.88763   0.54630   0.00000  Uiso   1.00
H264   H     0.27973   0.79406   0.44728   0.00000  Uiso   1.00
H265   H     0.14646   0.90719   0.22893   0.00000  Uiso   1.00
H266   H     0.39150   0.92612   0.57910   0.00000  Uiso   1.00
H267   H     0.29056   0.72879   0.37030   0.00000  Uiso   1.00
O268   O     0.12002   0.92627   0.89698   0.00000  Uiso   1.00
O269   O     0.44150   0.95110   0.35639   0.00000  Uiso   1.00
O270   O     0.30907   0.69222   0.08244   0.00000  Uiso   1.00
N271   N     0.17646   0.90756   0.80761   0.00000  Uiso   1.00
N272   N     0.40556   0.92526   0.13500   0.00000  Uiso   1.00
N273   N     0.31120   0.74078   0.93979   0.00000  Uiso   1.00
N274   N     0.16137   0.90488   0.10986   0.00000  Uiso   1.00
N275   N     0.39046   0.92258   0.43725   0.00000  Uiso   1.00
N276   N     0.29611   0.73809   0.24204   0.00000  Uiso   1.00
C277   C     0.79905   0.35810   0.93417   0.00000  Uiso   1.00
C278   C     0.76157   0.37107   0.97315   0.00000  Uiso   1.00
C279   C     0.73848   0.38347   0.83756   0.00000  Uiso   1.00
C280   C     0.70535   0.39412   0.90194   0.00000  Uiso   1.00
C281   C     0.64864   0.41454   0.93311   0.00000  Uiso   1.00
C282   C     0.82471   0.37595   0.06338   0.00000  Uiso   1.00
C283   C     0.85470   0.39246   0.00365   0.00000  Uiso   1.00
C284   C     0.87473   0.40721   0.14400   0.00000  Uiso   1.00
C285   C     0.91605   0.43519   0.31527   0.00000  Uiso   1.00
C286   C     0.79870   0.32511   0.00957   0.00000  Uiso   1.00
C287   C     0.80683   0.29887   0.90462   0.00000  Uiso   1.00
C288   C     0.80496   0.27081   0.99968   0.00000  Uiso   1.00
C289   C     0.80590   0.21985   0.08739   0.00000  Uiso   1.00
C290   C     0.78130   0.35494   0.28962   0.00000  Uiso   1.00
C291   C     0.75194   0.36935   0.16622   0.00000  Uiso   1.00
C292   C     0.71884   0.37998   0.23082   0.00000  Uiso   1.00
C293   C     0.69570   0.39240   0.09535   0.00000  Uiso   1.00
C294   C     0.81507   0.37424   0.25644   0.00000  Uiso   1.00
C295   C     0.83507   0.38897   0.39691   0.00000  Uiso   1.00
C296   C     0.86507   0.40550   0.33742   0.00000  Uiso   1.00
C297   C     0.78906   0.32339   0.20263   0.00000  Uiso   1.00
C298   C     0.78719   0.29538   0.29788   0.00000  Uiso   1.00
C299   C     0.79531   0.26910   0.19309   0.00000  Uiso   1.00
H300   H     0.80656   0.35943   0.78386   0.00000  Uiso   1.00
H301   H     0.74595   0.38480   0.68817   0.00000  Uiso   1.00
H302   H     0.86215   0.39378   0.85424   0.00000  Uiso   1.00
H303   H     0.81429   0.30020   0.75522   0.00000  Uiso   1.00
H304   H     0.67450   0.41218   0.66722   0.00000  Uiso   1.00
H305   H     0.91954   0.43111   0.01740   0.00000  Uiso   1.00
H306   H     0.81860   0.23378   0.80859   0.00000  Uiso   1.00
H307   H     0.77380   0.35360   0.43993   0.00000  Uiso   1.00
H308   H     0.71139   0.37865   0.38023   0.00000  Uiso   1.00
H309   H     0.82760   0.38763   0.54630   0.00000  Uiso   1.00
H310   H     0.77973   0.29406   0.44728   0.00000  Uiso   1.00
H311   H     0.64646   0.40719   0.22893   0.00000  Uiso   1.00
H312   H     0.89150   0.42612   0.57910   0.00000  Uiso   1.00
H313   H     0.79056   0.22879   0.37030   0.00000  Uiso   1.00
O314   O     0.62002   0.42627   0.89698   0.00000  Uiso   1.00
O315   O     0.94150   0.45110   0.35639   0.00000  Uiso   1.00
O316   O     0.80907   0.19222   0.08244   0.00000  Uiso   1.00
N317   N     0.67646   0.40756   0.80761   0.00000  Uiso   1.00
N318   N     0.90556   0.42526   0.13500   0.00000  Uiso   1.00
N319   N     0.81120   0.24078   0.93979   0.00000  Uiso   1.00
N320   N     0.66137   0.40488   0.10986   0.00000  Uiso   1.00
N321   N     0.89046   0.42258   0.43725   0.00000  Uiso   1.00
N322   N     0.79611   0.23809   0.24204   0.00000  Uiso   1.00
C323   C     0.79905   0.85810   0.43417   0.00000  Uiso   1.00
C324   C     0.76157   0.87107   0.47315   0.00000  Uiso   1.00
C325   C     0.73848   0.88347   0.33756   0.00000  Uiso   1.00
C326   C     0.70535   0.89412   0.40194   0.00000  Uiso   1.00
C327   C     0.64864   0.91454   0.43311   0.00000  Uiso   1.00
C328   C     0.82471   0.87595   0.56338   0.00000  Uiso   1.00
C329   C     0.85470   0.89246   0.50365   0.00000  Uiso   1.00
C330   C     0.87473   0.90721   0.64400   0.00000  Uiso   1.00
C331   C     0.91605   0.93519   0.81527   0.00000  Uiso   1.00
C332   C     0.79870   0.82511   0.50957   0.00000  Uiso   1.00
C333   C     0.80683   0.79887   0.40462   0.00000  Uiso   1.00
C334   C     0.80496   0.77081   0.49968   0.00000  Uiso   1.00
C335   C     0.80590   0.71985   0.58739   0.00000  Uiso   1.00
C336   C     0.78130   0.85494   0.78962   0.00000  Uiso   1.00
C337   C     0.75194   0.86935   0.66622   0.00000  Uiso   1.00
C338   C     0.71884   0.87998   0.73082   0.00000  Uiso   1.00
C339   C     0.69570   0.89240   0.59535   0.00000  Uiso   1.00
C340   C     0.81507   0.87424   0.75644   0.00000  Uiso   1.00
C341   C     0.83507   0.88897   0.89691   0.00000  Uiso   1.00
C342   C     0.86507   0.90550   0.83742   0.00000  Uiso   1.00
C343   C     0.78906   0.82339   0.70263   0.00000  Uiso   1.00
C344   C     0.78719   0.79538   0.79788   0.00000  Uiso   1.00
C345   C     0.79531   0.76910   0.69309   0.00000  Uiso   1.00
H346   H     0.80656   0.85943   0.28386   0.00000  Uiso   1.00
H347   H     0.74595   0.88480   0.18817   0.00000  Uiso   1.00
H348   H     0.86215   0.89378   0.35424   0.00000  Uiso   1.00
H349   H     0.81429   0.80020   0.25522   0.00000  Uiso   1.00
H350   H     0.67450   0.91218   0.16722   0.00000  Uiso   1.00
H351   H     0.91954   0.93111   0.51740   0.00000  Uiso   1.00
H352   H     0.81860   0.73378   0.30859   0.00000  Uiso   1.00
H353   H     0.77380   0.85360   0.93993   0.00000  Uiso   1.00
H354   H     0.71139   0.87865   0.88023   0.00000  Uiso   1.00
H355   H     0.82760   0.88763   0.04630   0.00000  Uiso   1.00
H356   H     0.77973   0.79406   0.94728   0.00000  Uiso   1.00
H357   H     0.64646   0.90719   0.72893   0.00000  Uiso   1.00
H358   H     0.89150   0.92612   0.07910   0.00000  Uiso   1.00
H359   H     0.79056   0.72879   0.87030   0.00000  Uiso   1.00
O360   O     0.62002   0.92627   0.39698   0.00000  Uiso   1.00
O361   O     0.94150   0.95110   0.85639   0.00000  Uiso   1.00
O362   O     0.80907   0.69222   0.58244   0.00000  Uiso   1.00
N363   N     0.67646   0.90756   0.30761   0.00000  Uiso   1.00
N364   N     0.90556   0.92526   0.63500   0.00000  Uiso   1.00
N365   N     0.81120   0.74078   0.43979   0.00000  Uiso   1.00
N366   N     0.66137   0.90488   0.60986   0.00000  Uiso   1.00
N367   N     0.89046   0.92258   0.93725   0.00000  Uiso   1.00
N368   N     0.79611   0.73809   0.74204   0.00000  Uiso   1.00
C369   C     0.95095   0.60810   0.68417   0.00000  Uiso   1.00
C370   C     0.98843   0.62107   0.72315   0.00000  Uiso   1.00
C371   C     0.01152   0.63347   0.58756   0.00000  Uiso   1.00
C372   C     0.04465   0.64412   0.65194   0.00000  Uiso   1.00
C373   C     0.10136   0.66454   0.68311   0.00000  Uiso   1.00
C374   C     0.92529   0.62595   0.81338   0.00000  Uiso   1.00
C375   C     0.89530   0.64246   0.75365   0.00000  Uiso   1.00
C376   C     0.87527   0.65721   0.89400   0.00000  Uiso   1.00
C377   C     0.83395   0.68519   0.06527   0.00000  Uiso   1.00
C378   C     0.95130   0.57511   0.75957   0.00000  Uiso   1.00
C379   C     0.94317   0.54887   0.65462   0.00000  Uiso   1.00
C380   C     0.94504   0.52081   0.74968   0.00000  Uiso   1.00
C381   C     0.94410   0.46985   0.83739   0.00000  Uiso   1.00
C382   C     0.96870   0.60494   0.03962   0.00000  Uiso   1.00
C383   C     0.99806   0.61935   0.91622   0.00000  Uiso   1.00
C384   C     0.03116   0.62998   0.98082   0.00000  Uiso   1.00
C385   C     0.05430   0.64240   0.84535   0.00000  Uiso   1.00
C386   C     0.93493   0.62424   0.00644   0.00000  Uiso   1.00
C387   C     0.91493   0.63897   0.14691   0.00000  Uiso   1.00
C388   C     0.88493   0.65550   0.08742   0.00000  Uiso   1.00
C389   C     0.96094   0.57339   0.95263   0.00000  Uiso   1.00
C390   C     0.96281   0.54538   0.04788   0.00000  Uiso   1.00
C391   C     0.95469   0.51910   0.94309   0.00000  Uiso   1.00
H392   H     0.94344   0.60943   0.53386   0.00000  Uiso   1.00
H393   H     0.00405   0.63480   0.43817   0.00000  Uiso   1.00
H394   H     0.88785   0.64378   0.60424   0.00000  Uiso   1.00
H395   H     0.93571   0.55020   0.50522   0.00000  Uiso   1.00
H396   H     0.07550   0.66218   0.41722   0.00000  Uiso   1.00
H397   H     0.83046   0.68111   0.76740   0.00000  Uiso   1.00
H398   H     0.93140   0.48378   0.55859   0.00000  Uiso   1.00
H399   H     0.97620   0.60360   0.18993   0.00000  Uiso   1.00
H400   H     0.03861   0.62865   0.13023   0.00000  Uiso   1.00
H401   H     0.92240   0.63763   0.29630   0.00000  Uiso   1.00
H402   H     0.97027   0.54406   0.19728   0.00000  Uiso   1.00
H403   H     0.10354   0.65719   0.97893   0.00000  Uiso   1.00
H404   H     0.85850   0.67612   0.32910   0.00000  Uiso   1.00
H405   H     0.95944   0.47879   0.12030   0.00000  Uiso   1.00
O406   O     0.12998   0.67627   0.64698   0.00000  Uiso   1.00
O407   O     0.80850   0.70110   0.10639   0.00000  Uiso   1.00
O408   O     0.94093   0.44222   0.83244   0.00000  Uiso   1.00
N409   N     0.07354   0.65756   0.55761   0.00000  Uiso   1.00
N410   N     0.84444   0.67526   0.88500   0.00000  Uiso   1.00
N411   N     0.93880   0.49078   0.68979   0.00000  Uiso   1.00
N412   N     0.08863   0.65488   0.85986   0.00000  Uiso   1.00
N413   N     0.85954   0.67258   0.18725   0.00000  Uiso   1.00
N414   N     0.95389   0.48809   0.99204   0.00000  Uiso   1.00
C415   C     0.95095   0.10810   0.18417   0.00000  Uiso   1.00
C416   C     0.98843   0.12107   0.22315   0.00000  Uiso   1.00
C417   C     0.01152   0.13347   0.08756   0.00000  Uiso   1.00
C418   C     0.04465   0.14412   0.15194   0.00000  Uiso   1.00
C419   C     0.10136   0.16454   0.18311   0.00000  Uiso   1.00
C420   C     0.92529   0.12595   0.31338   0.00000  Uiso   1.00
C421   C     0.89530   0.14246   0.25365   0.00000  Uiso   1.00
C422   C     0.87527   0.15721   0.39400   0.00000  Uiso   1.00
C423   C     0.83395   0.18519   0.56527   0.00000  Uiso   1.00
C424   C     0.95130   0.07511   0.25957   0.00000  Uiso   1.00
C425   C     0.94317   0.04887   0.15462   0.00000  Uiso   1.00
C426   C     0.94504   0.02081   0.24968   0.00000  Uiso   1.00
C427   C     0.94410   0.96985   0.33739   0.00000  Uiso   1.00
C428   C     0.96870   0.10494   0.53962   0.00000  Uiso   1.00
C429   C     0.99806   0.11935   0.41622   0.00000  Uiso   1.00
C430   C     0.03116   0.12998   0.48082   0.00000  Uiso   1.00
C431   C     0.05430   0.14240   0.34535   0.00000  Uiso   1.00
C432   C     0.93493   0.12424   0.50644   0.00000  Uiso   1.00
C433   C     0.91493   0.13897   0.64691   0.00000  Uiso   1.00
C434   C     0.88493   0.15550   0.58742   0.00000  Uiso   1.00
C435   C     0.96094   0.07339   0.45263   0.00000  Uiso   1.00
C436   C     0.96281   0.04538   0.54788   0.00000  Uiso   1.00
C437   C     0.95469   0.01910   0.44309   0.00000  Uiso   1.00
H438   H     0.94344   0.10943   0.03386   0.00000  Uiso   1.00
H439   H     0.00405   0.13480   0.93817   0.00000  Uiso   1.00
H440   H     0.88785   0.14378   0.10424   0.00000  Uiso   1.00
H441   H     0.93571   0.05020   0.00522   0.00000  Uiso   1.00
H442   H     0.07550   0.16218   0.91722   0.00000  Uiso   1.00
H443   H     0.83046   0.18111   0.26740   0.00000  Uiso   1.00
H444   H     0.93140   0.98378   0.05859   0.00000  Uiso   1.00
H445   H     0.97620   0.10360   0.68993   0.00000  Uiso   1.00
H446   H     0.03861   0.12865   0.63023   0.00000  Uiso   1.00
H447   H     0.92240   0.13763   0.79630   0.00000  Uiso   1.00
H448   H     0.97027   0.04406   0.69728   0.00000  Uiso   1.00
H449   H     0.10354   0.15719   0.47893   0.00000  Uiso   1.00
H450   H     0.85850   0.17612   0.82910   0.00000  Uiso   1.00
H451   H     0.95944   0.97879   0.62030   0.00000  Uiso   1.00
O452   O     0.12998   0.17627   0.14698   0.00000  Uiso   1.00
O453   O     0.80850   0.20110   0.60639   0.00000  Uiso   1.00
O454   O     0.94093   0.94222   0.33244   0.00000  Uiso   1.00
N455   N     0.07354   0.15756   0.05761   0.00000  Uiso   1.00
N456   N     0.84444   0.17526   0.38500   0.00000  Uiso   1.00
N457   N     0.93880   0.99078   0.18979   0.00000  Uiso   1.00
N458   N     0.08863   0.15488   0.35986   0.00000  Uiso   1.00
N459   N     0.85954   0.17258   0.68725   0.00000  Uiso   1.00
N460   N     0.95389   0.98809   0.49204   0.00000  Uiso   1.00
C461   C     0.45095   0.60810   0.18417   0.00000  Uiso   1.00
C462   C     0.48843   0.62107   0.22315   0.00000  Uiso   1.00
C463   C     0.51152   0.63347   0.08756   0.00000  Uiso   1.00
C464   C     0.54465   0.64412   0.15194   0.00000  Uiso   1.00
C465   C     0.60136   0.66454   0.18311   0.00000  Uiso   1.00
C466   C     0.42529   0.62595   0.31338   0.00000  Uiso   1.00
C467   C     0.39530   0.64246   0.25365   0.00000  Uiso   1.00
C468   C     0.37527   0.65721   0.39400   0.00000  Uiso   1.00
C469   C     0.33395   0.68519   0.56527   0.00000  Uiso   1.00
C470   C     0.45130   0.57511   0.25957   0.00000  Uiso   1.00
C471   C     0.44317   0.54887   0.15462   0.00000  Uiso   1.00
C472   C     0.44504   0.52081   0.24968   0.00000  Uiso   1.00
C473   C     0.44410   0.46985   0.33739   0.00000  Uiso   1.00
C474   C     0.46870   0.60494   0.53962   0.00000  Uiso   1.00
C475   C     0.49806   0.61935   0.41622   0.00000  Uiso   1.00
C476   C     0.53116   0.62998   0.48082   0.00000  Uiso   1.00
C477   C     0.55430   0.64240   0.34535   0.00000  Uiso   1.00
C478   C     0.43493   0.62424   0.50644   0.00000  Uiso   1.00
C479   C     0.41493   0.63897   0.64691   0.00000  Uiso   1.00
C480   C     0.38493   0.65550   0.58742   0.00000  Uiso   1.00
C481   C     0.46094   0.57339   0.45263   0.00000  Uiso   1.00
C482   C     0.46281   0.54538   0.54788   0.00000  Uiso   1.00
C483   C     0.45469   0.51910   0.44309   0.00000  Uiso   1.00
H484   H     0.44344   0.60943   0.03386   0.00000  Uiso   1.00
H485   H     0.50405   0.63480   0.93817   0.00000  Uiso   1.00
H486   H     0.38785   0.64378   0.10424   0.00000  Uiso   1.00
H487   H     0.43571   0.55020   0.00522   0.00000  Uiso   1.00
H488   H     0.57550   0.66218   0.91722   0.00000  Uiso   1.00
H489   H     0.33046   0.68111   0.26740   0.00000  Uiso   1.00
H490   H     0.43140   0.48378   0.05859   0.00000  Uiso   1.00
H491   H     0.47620   0.60360   0.68993   0.00000  Uiso   1.00
H492   H     0.53861   0.62865   0.63023   0.00000  Uiso   1.00
H493   H     0.42240   0.63763   0.79630   0.00000  Uiso   1.00
H494   H     0.47027   0.54406   0.69728   0.00000  Uiso   1.00
H495   H     0.60354   0.65719   0.47893   0.00000  Uiso   1.00
H496   H     0.35850   0.67612   0.82910   0.00000  Uiso   1.00
H497   H     0.45944   0.47879   0.62030   0.00000  Uiso   1.00
O498   O     0.62998   0.67627   0.14698   0.00000  Uiso   1.00
O499   O     0.30850   0.70110   0.60639   0.00000  Uiso   1.00
O500   O     0.44093   0.44222   0.33244   0.00000  Uiso   1.00
N501   N     0.57354   0.65756   0.05761   0.00000  Uiso   1.00
N502   N     0.34444   0.67526   0.38500   0.00000  Uiso   1.00
N503   N     0.43880   0.49078   0.18979   0.00000  Uiso   1.00
N504   N     0.58863   0.65488   0.35986   0.00000  Uiso   1.00
N505   N     0.35954   0.67258   0.68725   0.00000  Uiso   1.00
N506   N     0.45389   0.48809   0.49204   0.00000  Uiso   1.00
C507   C     0.45095   0.10810   0.68417   0.00000  Uiso   1.00
C508   C     0.48843   0.12107   0.72315   0.00000  Uiso   1.00
C509   C     0.51152   0.13347   0.58756   0.00000  Uiso   1.00
C510   C     0.54465   0.14412   0.65194   0.00000  Uiso   1.00
C511   C     0.60136   0.16454   0.68311   0.00000  Uiso   1.00
C512   C     0.42529   0.12595   0.81338   0.00000  Uiso   1.00
C513   C     0.39530   0.14246   0.75365   0.00000  Uiso   1.00
C514   C     0.37527   0.15721   0.89400   0.00000  Uiso   1.00
C515   C     0.33395   0.18519   0.06527   0.00000  Uiso   1.00
C516   C     0.45130   0.07511   0.75957   0.00000  Uiso   1.00
C517   C     0.44317   0.04887   0.65462   0.00000  Uiso   1.00
C518   C     0.44504   0.02081   0.74968   0.00000  Uiso   1.00
C519   C     0.44410   0.96985   0.83739   0.00000  Uiso   1.00
C520   C     0.46870   0.10494   0.03962   0.00000  Uiso   1.00
C521   C     0.49806   0.11935   0.91622   0.00000  Uiso   1.00
C522   C     0.53116   0.12998   0.98082   0.00000  Uiso   1.00
C523   C     0.55430   0.14240   0.84535   0.00000  Uiso   1.00
C524   C     0.43493   0.12424   0.00644   0.00000  Uiso   1.00
C525   C     0.41493   0.13897   0.14691   0.00000  Uiso   1.00
C526   C     0.38493   0.15550   0.08742   0.00000  Uiso   1.00
C527   C     0.46094   0.07339   0.95263   0.00000  Uiso   1.00
C528   C     0.46281   0.04538   0.04788   0.00000  Uiso   1.00
C529   C     0.45469   0.01910   0.94309   0.00000  Uiso   1.00
H530   H     0.44344   0.10943   0.53386   0.00000  Uiso   1.00
H531   H     0.50405   0.13480   0.43817   0.00000  Uiso   1.00
H532   H     0.38785   0.14378   0.60424   0.00000  Uiso   1.00
H533   H     0.43571   0.05020   0.50522   0.00000  Uiso   1.00
H534   H     0.57550   0.16218   0.41722   0.00000  Uiso   1.00
H535   H     0.33046   0.18111   0.76740   0.00000  Uiso   1.00
H536   H     0.43140   0.98378   0.55859   0.00000  Uiso   1.00
H537   H     0.47620   0.10360   0.18993   0.00000  Uiso   1.00
H538   H     0.53861   0.12865   0.13023   0.00000  Uiso   1.00
H539   H     0.42240   0.13763   0.29630   0.00000  Uiso   1.00
H540   H     0.47027   0.04406   0.19728   0.00000  Uiso   1.00
H541   H     0.60354   0.15719   0.97893   0.00000  Uiso   1.00
H542   H     0.35850   0.17612   0.32910   0.00000  Uiso   1.00
H543   H     0.45944   0.97879   0.12030   0.00000  Uiso   1.00
O544   O     0.62998   0.17627   0.64698   0.00000  Uiso   1.00
O545   O     0.30850   0.20110   0.10639   0.00000  Uiso   1.00
O546   O     0.44093   0.94222   0.83244   0.00000  Uiso   1.00
N547   N     0.57354   0.15756   0.55761   0.00000  Uiso   1.00
N548   N     0.34444   0.17526   0.88500   0.00000  Uiso   1.00
N549   N     0.43880   0.99078   0.68979   0.00000  Uiso   1.00
N550   N     0.58863   0.15488   0.85986   0.00000  Uiso   1.00
N551   N     0.35954   0.17258   0.18725   0.00000  Uiso   1.00
N552   N     0.45389   0.98809   0.99204   0.00000  Uiso   1.00
C553   C     0.54905   0.89190   0.68417   0.00000  Uiso   1.00
C554   C     0.51157   0.87893   0.72315   0.00000  Uiso   1.00
C555   C     0.48848   0.86653   0.58756   0.00000  Uiso   1.00
C556   C     0.45535   0.85588   0.65194   0.00000  Uiso   1.00
C557   C     0.39864   0.83546   0.68311   0.00000  Uiso   1.00
C558   C     0.57471   0.87405   0.81338   0.00000  Uiso   1.00
C559   C     0.60470   0.85754   0.75365   0.00000  Uiso   1.00
C560   C     0.62473   0.84279   0.89400   0.00000  Uiso   1.00
C561   C     0.66605   0.81481   0.06527   0.00000  Uiso   1.00
C562   C     0.54870   0.92489   0.75957   0.00000  Uiso   1.00
C563   C     0.55683   0.95113   0.65462   0.00000  Uiso   1.00
C564   C     0.55496   0.97919   0.74968   0.00000  Uiso   1.00
C565   C     0.55590   0.03015   0.83739   0.00000  Uiso   1.00
C566   C     0.53130   0.89506   0.03962   0.00000  Uiso   1.00
C567   C     0.50194   0.88065   0.91622   0.00000  Uiso   1.00
C568   C     0.46884   0.87002   0.98082   0.00000  Uiso   1.00
C569   C     0.44570   0.85760   0.84535   0.00000  Uiso   1.00
C570   C     0.56507   0.87576   0.00644   0.00000  Uiso   1.00
C571   C     0.58507   0.86103   0.14691   0.00000  Uiso   1.00
C572   C     0.61507   0.84450   0.08742   0.00000  Uiso   1.00
C573   C     0.53906   0.92661   0.95263   0.00000  Uiso   1.00
C574   C     0.53719   0.95462   0.04788   0.00000  Uiso   1.00
C575   C     0.54531   0.98090   0.94309   0.00000  Uiso   1.00
H576   H     0.55656   0.89057   0.53386   0.00000  Uiso   1.00
H577   H     0.49595   0.86520   0.43817   0.00000  Uiso   1.00
H578   H     0.61215   0.85622   0.60424   0.00000  Uiso   1.00
H579   H     0.56429   0.94980   0.50522   0.00000  Uiso   1.00
H580   H     0.42450   0.83782   0.41722   0.00000  Uiso   1.00
H581   H     0.66954   0.81889   0.76740   0.00000  Uiso   1.00
H582   H     0.56860   0.01622   0.55859   0.00000  Uiso   1.00
H583   H     0.52380   0.89640   0.18993   0.00000  Uiso   1.00
H584   H     0.46139   0.87135   0.13023   0.00000  Uiso   1.00
H585   H     0.57760   0.86237   0.29630   0.00000  Uiso   1.00
H586   H     0.52973   0.95594   0.19728   0.00000  Uiso   1.00
H587   H     0.39646   0.84281   0.97893   0.00000  Uiso   1.00
H588   H     0.64150   0.82388   0.32910   0.00000  Uiso   1.00
H589   H     0.54056   0.02121   0.12030   0.00000  Uiso   1.00
O590   O     0.37002   0.82373   0.64698   0.00000  Uiso   1.00
O591   O     0.69150   0.79890   0.10639   0.00000  Uiso   1.00
O592   O     0.55907   0.05778   0.83244   0.00000  Uiso   1.00
N593   N     0.42646   0.84244   0.55761   0.00000  Uiso   1.00
N594   N     0.65556   0.82474   0.88500   0.00000  Uiso   1.00
N595   N     0.56120   0.00922   0.68979   0.00000  Uiso   1.00
N596   N     0.41137   0.84512   0.85986   0.00000  Uiso   1.00
N597   N     0.64046   0.82742   0.18725   0.00000  Uiso   1.00
N598   N     0.54611   0.01191   0.99204   0.00000  Uiso   1.00
C599   C     0.54905   0.39190   0.18417   0.00000  Uiso   1.00
C600   C     0.51157   0.37893   0.22315   0.00000  Uiso   1.00
C601   C     0.48848   0.36653   0.08756   0.00000  Uiso   1.00
C602   C     0.45535   0.35588   0.15194   0.00000  Uiso   1.00
C603   C     0.39864   0.33546   0.18311   0.00000  Uiso   1.00
C604   C     0.57471   0.37405   0.31338   0.00000  Uiso   1.00
C605   C     0.60470   0.35754   0.25365   0.00000  Uiso   1.00
C606   C     0.62473   0.34279   0.39400   0.00000  Uiso   1.00
C607   C     0.66605   0.31481   0.56527   0.00000  Uiso   1.00
C608   C     0.54870   0.42489   0.25957   0.00000  Uiso   1.00
C609   C     0.55683   0.45113   0.15462   0.00000  Uiso   1.00
C610   C     0.55496   0.47919   0.24968   0.00000  Uiso   1.00
C611   C     0.55590   0.53015   0.33739   0.00000  Uiso   1.00
C612   C     0.53130   0.39506   0.53962   0.00000  Uiso   1.00
C613   C     0.50194   0.38065   0.41622   0.00000  Uiso   1.00
C614   C     0.46884   0.37002   0.48082   0.00000  Uiso   1.00
C615   C     0.44570   0.35760   0.34535   0.00000  Uiso   1.00
C616   C     0.56507   0.37576   0.50644   0.00000  Uiso   1.00
C617   C     0.58507   0.36103   0.64691   0.00000  Uiso   1.00
C618   C     0.61507   0.34450   0.58742   0.00000  Uiso   1.00
C619   C     0.53906   0.42661   0.45263   0.00000  Uiso   1.00
C620   C     0.53719   0.45462   0.54788   0.00000  Uiso   1.00
C621   C     0.54531   0.48090   0.44309   0.00000  Uiso   1.00
H622   H     0.55656   0.39057   0.03386   0.00000  Uiso   1.00
H623   H     0.49595   0.36520   0.93817   0.00000  Uiso   1.00
H624   H     0.61215   0.35622   0.10424   0.00000  Uiso   1.00
H625   H     0.56429   0.44980   0.00522   0.00000  Uiso   1.00
H626   H     0.42450   0.33782   0.91722   0.00000  Uiso   1.00
H627   H     0.66954   0.31889   0.26740   0.00000  Uiso   1.00
H628   H     0.56860   0.51622   0.05859   0.00000  Uiso   1.00
H629   H     0.52380   0.39640   0.68993   0.00000  Uiso   1.00
H630   H     0.46139   0.37135   0.63023   0.00000  Uiso   1.00
H631   H     0.57760   0.36237   0.79630   0.00000  Uiso   1.00
H632   H     0.52973   0.45594   0.69728   0.00000  Uiso   1.00
H633   H     0.39646   0.34281   0.47893   0.00000  Uiso   1.00
H634   H     0.64150   0.32388   0.82910   0.00000  Uiso   1.00
H635   H     0.54056   0.52121   0.62030   0.00000  Uiso   1.00
O636   O     0.37002   0.32373   0.14698   0.00000  Uiso   1.00
O637   O     0.69150   0.29890   0.60639   0.00000  Uiso   1.00
O638   O     0.55907   0.55778   0.33244   0.00000  Uiso   1.00
N639   N     0.42646   0.34244   0.05761   0.00000  Uiso   1.00
N640   N     0.65556   0.32474   0.38500   0.00000  Uiso   1.00
N641   N     0.56120   0.50922   0.18979   0.00000  Uiso   1.00
N642   N     0.41137   0.34512   0.35986   0.00000  Uiso   1.00
N643   N     0.64046   0.32742   0.68725   0.00000  Uiso   1.00
N644   N     0.54611   0.51191   0.49204   0.00000  Uiso   1.00
C645   C     0.04905   0.89190   0.18417   0.00000  Uiso   1.00
C646   C     0.01157   0.87893   0.22315   0.00000  Uiso   1.00
C647   C     0.98848   0.86653   0.08756   0.00000  Uiso   1.00
C648   C     0.95535   0.85588   0.15194   0.00000  Uiso   1.00
C649   C     0.89864   0.83546   0.18311   0.00000  Uiso   1.00
C650   C     0.07471   0.87405   0.31338   0.00000  Uiso   1.00
C651   C     0.10470   0.85754   0.25365   0.00000  Uiso   1.00
C652   C     0.12473   0.84279   0.39400   0.00000  Uiso   1.00
C653   C     0.16605   0.81481   0.56527   0.00000  Uiso   1.00
C654   C     0.04870   0.92489   0.25957   0.00000  Uiso   1.00
C655   C     0.05683   0.95113   0.15462   0.00000  Uiso   1.00
C656   C     0.05496   0.97919   0.24968   0.00000  Uiso   1.00
C657   C     0.05590   0.03015   0.33739   0.00000  Uiso   1.00
C658   C     0.03130   0.89506   0.53962   0.00000  Uiso   1.00
C659   C     0.00194   0.88065   0.41622   0.00000  Uiso   1.00
C660   C     0.96884   0.87002   0.48082   0.00000  Uiso   1.00
C661   C     0.94570   0.85760   0.34535   0.00000  Uiso   1.00
C662   C     0.06507   0.87576   0.50644   0.00000  Uiso   1.00
C663   C     0.08507   0.86103   0.64691   0.00000  Uiso   1.00
C664   C     0.11507   0.84450   0.58742   0.00000  Uiso   1.00
C665   C     0.03906   0.92661   0.45263   0.00000  Uiso   1.00
C666   C     0.03719   0.95462   0.54788   0.00000  Uiso   1.00
C667   C     0.04531   0.98090   0.44309   0.00000  Uiso   1.00
H668   H     0.05656   0.89057   0.03386   0.00000  Uiso   1.00
H669   H     0.99595   0.86520   0.93817   0.00000  Uiso   1.00
H670   H     0.11215   0.85622   0.10424   0.00000  Uiso   1.00
H671   H     0.06429   0.94980   0.00522   0.00000  Uiso   1.00
H672   H     0.92450   0.83782   0.91722   0.00000  Uiso   1.00
H673   H     0.16954   0.81889   0.26740   0.00000  Uiso   1.00
H674   H     0.06860   0.01622   0.05859   0.00000  Uiso   1.00
H675   H     0.02380   0.89640   0.68993   0.00000  Uiso   1.00
H676   H     0.96139   0.87135   0.63023   0.00000  Uiso   1.00
H677   H     0.07760   0.86237   0.79630   0.00000  Uiso   1.00
H678   H     0.02973   0.95594   0.69728   0.00000  Uiso   1.00
H679   H     0.89646   0.84281   0.47893   0.00000  Uiso   1.00
H680   H     0.14150   0.82388   0.82910   0.00000  Uiso   1.00
H681   H     0.04056   0.02121   0.62030   0.00000  Uiso   1.00
O682   O     0.87002   0.82373   0.14698   0.00000  Uiso   1.00
O683   O     0.19150   0.79890   0.60639   0.00000  Uiso   1.00
O684   O     0.05907   0.05778   0.33244   0.00000  Uiso   1.00
N685   N     0.92646   0.84244   0.05761   0.00000  Uiso   1.00
N686   N     0.15556   0.82474   0.38500   0.00000  Uiso   1.00
N687   N     0.06120   0.00922   0.18979   0.00000  Uiso   1.00
N688   N     0.91137   0.84512   0.35986   0.00000  Uiso   1.00
N689   N     0.14046   0.82742   0.68725   0.00000  Uiso   1.00
N690   N     0.04611   0.01191   0.49204   0.00000  Uiso   1.00
C691   C     0.04905   0.39190   0.68417   0.00000  Uiso   1.00
C692   C     0.01157   0.37893   0.72315   0.00000  Uiso   1.00
C693   C     0.98848   0.36653   0.58756   0.00000  Uiso   1.00
C694   C     0.95535   0.35588   0.65194   0.00000  Uiso   1.00
C695   C     0.89864   0.33546   0.68311   0.00000  Uiso   1.00
C696   C     0.07471   0.37405   0.81338   0.00000  Uiso   1.00
C697   C     0.10470   0.35754   0.75365   0.00000  Uiso   1.00
C698   C     0.12473   0.34279   0.89400   0.00000  Uiso   1.00
C699   C     0.16605   0.31481   0.06527   0.00000  Uiso   1.00
C700   C     0.04870   0.42489   0.75957   0.00000  Uiso   1.00
C701   C     0.05683   0.45113   0.65462   0.00000  Uiso   1.00
C702   C     0.05496   0.47919   0.74968   0.00000  Uiso   1.00
C703   C     0.05590   0.53015   0.83739   0.00000  Uiso   1.00
C704   C     0.03130   0.39506   0.03962   0.00000  Uiso   1.00
C705   C     0.00194   0.38065   0.91622   0.00000  Uiso   1.00
C706   C     0.96884   0.37002   0.98082   0.00000  Uiso   1.00
C707   C     0.94570   0.35760   0.84535   0.00000  Uiso   1.00
C708   C     0.06507   0.37576   0.00644   0.00000  Uiso   1.00
C709   C     0.08507   0.36103   0.14691   0.00000  Uiso   1.00
C710   C     0.11507   0.34450   0.08742   0.00000  Uiso   1.00
C711   C     0.03906   0.42661   0.95263   0.00000  Uiso   1.00
C712   C     0.03719   0.45462   0.04788   0.00000  Uiso   1.00
C713   C     0.04531   0.48090   0.94309   0.00000  Uiso   1.00
H714   H     0.05656   0.39057   0.53386   0.00000  Uiso   1.00
H715   H     0.99595   0.36520   0.43817   0.00000  Uiso   1.00
H716   H     0.11215   0.35622   0.60424   0.00000  Uiso   1.00
H717   H     0.06429   0.44980   0.50522   0.00000  Uiso   1.00
H718   H     0.92450   0.33782   0.41722   0.00000  Uiso   1.00
H719   H     0.16954   0.31889   0.76740   0.00000  Uiso   1.00
H720   H     0.06860   0.51622   0.55859   0.00000  Uiso   1.00
H721   H     0.02380   0.39640   0.18993   0.00000  Uiso   1.00
H722   H     0.96139   0.37135   0.13023   0.00000  Uiso   1.00
H723   H     0.07760   0.36237   0.29630   0.00000  Uiso   1.00
H724   H     0.02973   0.45594   0.19728   0.00000  Uiso   1.00
H725   H     0.89646   0.34281   0.97893   0.00000  Uiso   1.00
H726   H     0.14150   0.32388   0.32910   0.00000  Uiso   1.00
H727   H     0.04056   0.52121   0.12030   0.00000  Uiso   1.00
O728   O     0.87002   0.32373   0.64698   0.00000  Uiso   1.00
O729   O     0.19150   0.29890   0.10639   0.00000  Uiso   1.00
O730   O     0.05907   0.55778   0.83244   0.00000  Uiso   1.00
N731   N     0.92646   0.34244   0.55761   0.00000  Uiso   1.00
N732   N     0.15556   0.32474   0.88500   0.00000  Uiso   1.00
N733   N     0.06120   0.50922   0.68979   0.00000  Uiso   1.00
N734   N     0.91137   0.34512   0.85986   0.00000  Uiso   1.00
N735   N     0.14046   0.32742   0.18725   0.00000  Uiso   1.00
N736   N     0.04611   0.51191   0.99204   0.00000  Uiso   1.00
