data_job_00315
_audit_creation_date              2018-12-19
_audit_creation_method            'Materials Studio'
_symmetry_space_group_name_H-M    'P1'
_symmetry_Int_Tables_number       1
_symmetry_cell_setting            triclinic
loop_
_symmetry_equiv_pos_as_xyz
  x,y,z
_cell_length_a                    27.3484
_cell_length_b                    27.3484
_cell_length_c                    12.9380
_cell_angle_alpha                 90.0000
_cell_angle_beta                  90.0000
_cell_angle_gamma                 90.0000
loop_
_atom_site_label
_atom_site_type_symbol
_atom_site_fract_x
_atom_site_fract_y
_atom_site_fract_z
_atom_site_U_iso_or_equiv
_atom_site_adp_type
_atom_site_occupancy
C1     C     0.24374   0.42075   0.61660   0.00000  Uiso   1.00
C2     C     0.22868   0.36903   0.64703   0.00000  Uiso   1.00
C3     C     0.18165   0.35404   0.67181   0.00000  Uiso   1.00
C4     C     0.17542   0.30515   0.69760   0.00000  Uiso   1.00
C5     C     0.14604   0.22982   0.74474   0.00000  Uiso   1.00
C6     C     0.28371   0.43571   0.69246   0.00000  Uiso   1.00
C7     C     0.28294   0.47678   0.75544   0.00000  Uiso   1.00
C8     C     0.32303   0.48403   0.81946   0.00000  Uiso   1.00
C9     C     0.37910   0.51223   0.93710   0.00000  Uiso   1.00
C10    C     0.26857   0.41630   0.51150   0.00000  Uiso   1.00
C11    C     0.25508   0.44106   0.42232   0.00000  Uiso   1.00
C12    C     0.28244   0.43198   0.33398   0.00000  Uiso   1.00
C13    C     0.31500   0.43004   0.17063   0.00000  Uiso   1.00
C14    C     0.31633   0.36060   0.61830   0.00000  Uiso   1.00
C15    C     0.26811   0.33636   0.64795   0.00000  Uiso   1.00
C16    C     0.26195   0.28748   0.67370   0.00000  Uiso   1.00
C17    C     0.21491   0.27242   0.69852   0.00000  Uiso   1.00
C18    C     0.32313   0.40304   0.69339   0.00000  Uiso   1.00
C19    C     0.36324   0.41022   0.75732   0.00000  Uiso   1.00
C20    C     0.36253   0.45130   0.82039   0.00000  Uiso   1.00
C21    C     0.30800   0.38362   0.51242   0.00000  Uiso   1.00
C22    C     0.33538   0.37450   0.42420   0.00000  Uiso   1.00
C23    C     0.32193   0.39924   0.33490   0.00000  Uiso   1.00
H24    H     0.21305   0.44619   0.61589   0.00000  Uiso   1.00
H25    H     0.15114   0.37934   0.67110   0.00000  Uiso   1.00
H26    H     0.25242   0.50206   0.75470   0.00000  Uiso   1.00
H27    H     0.22457   0.46635   0.42163   0.00000  Uiso   1.00
H28    H     0.09990   0.29081   0.73276   0.00000  Uiso   1.00
H29    H     0.31346   0.54959   0.90901   0.00000  Uiso   1.00
H30    H     0.25472   0.47428   0.20666   0.00000  Uiso   1.00
H31    H     0.34702   0.33516   0.61902   0.00000  Uiso   1.00
H32    H     0.29247   0.26220   0.67441   0.00000  Uiso   1.00
H33    H     0.39375   0.38493   0.75801   0.00000  Uiso   1.00
H34    H     0.36589   0.34922   0.42494   0.00000  Uiso   1.00
H35    H     0.21461   0.19574   0.73545   0.00000  Uiso   1.00
H36    H     0.42817   0.45453   0.91170   0.00000  Uiso   1.00
H37    H     0.36943   0.37921   0.20935   0.00000  Uiso   1.00
O38    O     0.11895   0.19729   0.77051   0.00000  Uiso   1.00
O39    O     0.39914   0.53681   0.00174   0.00000  Uiso   1.00
O40    O     0.32207   0.43800   0.08028   0.00000  Uiso   1.00
N41    N     0.13438   0.27844   0.72577   0.00000  Uiso   1.00
N42    N     0.33404   0.52039   0.89057   0.00000  Uiso   1.00
N43    N     0.27914   0.44998   0.23394   0.00000  Uiso   1.00
N44    N     0.19610   0.22729   0.72721   0.00000  Uiso   1.00
N45    N     0.39577   0.46923   0.89202   0.00000  Uiso   1.00
N46    N     0.34086   0.39883   0.23539   0.00000  Uiso   1.00
C47    C     0.74374   0.92075   0.11660   0.00000  Uiso   1.00
C48    C     0.72868   0.86903   0.14703   0.00000  Uiso   1.00
C49    C     0.68165   0.85404   0.17181   0.00000  Uiso   1.00
C50    C     0.67542   0.80515   0.19760   0.00000  Uiso   1.00
C51    C     0.64604   0.72982   0.24474   0.00000  Uiso   1.00
C52    C     0.78371   0.93571   0.19246   0.00000  Uiso   1.00
C53    C     0.78294   0.97678   0.25544   0.00000  Uiso   1.00
C54    C     0.82303   0.98403   0.31946   0.00000  Uiso   1.00
C55    C     0.87910   0.01223   0.43710   0.00000  Uiso   1.00
C56    C     0.76857   0.91630   0.01150   0.00000  Uiso   1.00
C57    C     0.75508   0.94106   0.92232   0.00000  Uiso   1.00
C58    C     0.78244   0.93198   0.83398   0.00000  Uiso   1.00
C59    C     0.81500   0.93004   0.67063   0.00000  Uiso   1.00
C60    C     0.81633   0.86060   0.11830   0.00000  Uiso   1.00
C61    C     0.76811   0.83636   0.14795   0.00000  Uiso   1.00
C62    C     0.76195   0.78748   0.17370   0.00000  Uiso   1.00
C63    C     0.71491   0.77242   0.19852   0.00000  Uiso   1.00
C64    C     0.82313   0.90304   0.19339   0.00000  Uiso   1.00
C65    C     0.86324   0.91022   0.25732   0.00000  Uiso   1.00
C66    C     0.86253   0.95130   0.32039   0.00000  Uiso   1.00
C67    C     0.80800   0.88362   0.01242   0.00000  Uiso   1.00
C68    C     0.83538   0.87450   0.92420   0.00000  Uiso   1.00
C69    C     0.82193   0.89924   0.83490   0.00000  Uiso   1.00
H70    H     0.71305   0.94619   0.11589   0.00000  Uiso   1.00
H71    H     0.65114   0.87934   0.17110   0.00000  Uiso   1.00
H72    H     0.75242   0.00206   0.25470   0.00000  Uiso   1.00
H73    H     0.72457   0.96635   0.92163   0.00000  Uiso   1.00
H74    H     0.59990   0.79081   0.23276   0.00000  Uiso   1.00
H75    H     0.81346   0.04959   0.40901   0.00000  Uiso   1.00
H76    H     0.75472   0.97428   0.70666   0.00000  Uiso   1.00
H77    H     0.84702   0.83516   0.11902   0.00000  Uiso   1.00
H78    H     0.79247   0.76220   0.17441   0.00000  Uiso   1.00
H79    H     0.89375   0.88493   0.25801   0.00000  Uiso   1.00
H80    H     0.86589   0.84922   0.92494   0.00000  Uiso   1.00
H81    H     0.71461   0.69574   0.23545   0.00000  Uiso   1.00
H82    H     0.92817   0.95453   0.41170   0.00000  Uiso   1.00
H83    H     0.86943   0.87921   0.70935   0.00000  Uiso   1.00
O84    O     0.61895   0.69729   0.27051   0.00000  Uiso   1.00
O85    O     0.89914   0.03681   0.50174   0.00000  Uiso   1.00
O86    O     0.82207   0.93800   0.58028   0.00000  Uiso   1.00
N87    N     0.63438   0.77844   0.22577   0.00000  Uiso   1.00
N88    N     0.83404   0.02039   0.39057   0.00000  Uiso   1.00
N89    N     0.77914   0.94998   0.73394   0.00000  Uiso   1.00
N90    N     0.69610   0.72729   0.22721   0.00000  Uiso   1.00
N91    N     0.89577   0.96923   0.39202   0.00000  Uiso   1.00
N92    N     0.84086   0.89883   0.73539   0.00000  Uiso   1.00
C93    C     0.25626   0.07925   0.11660   0.00000  Uiso   1.00
C94    C     0.27132   0.13097   0.14703   0.00000  Uiso   1.00
C95    C     0.31835   0.14596   0.17181   0.00000  Uiso   1.00
C96    C     0.32458   0.19485   0.19760   0.00000  Uiso   1.00
C97    C     0.35396   0.27018   0.24474   0.00000  Uiso   1.00
C98    C     0.21629   0.06429   0.19246   0.00000  Uiso   1.00
C99    C     0.21706   0.02322   0.25544   0.00000  Uiso   1.00
C100   C     0.17697   0.01597   0.31946   0.00000  Uiso   1.00
C101   C     0.12090   0.98777   0.43710   0.00000  Uiso   1.00
C102   C     0.23143   0.08370   0.01150   0.00000  Uiso   1.00
C103   C     0.24492   0.05894   0.92232   0.00000  Uiso   1.00
C104   C     0.21756   0.06802   0.83398   0.00000  Uiso   1.00
C105   C     0.18500   0.06996   0.67063   0.00000  Uiso   1.00
C106   C     0.18367   0.13940   0.11830   0.00000  Uiso   1.00
C107   C     0.23189   0.16364   0.14795   0.00000  Uiso   1.00
C108   C     0.23805   0.21252   0.17370   0.00000  Uiso   1.00
C109   C     0.28509   0.22758   0.19852   0.00000  Uiso   1.00
C110   C     0.17687   0.09696   0.19339   0.00000  Uiso   1.00
C111   C     0.13676   0.08978   0.25732   0.00000  Uiso   1.00
C112   C     0.13747   0.04870   0.32039   0.00000  Uiso   1.00
C113   C     0.19200   0.11638   0.01242   0.00000  Uiso   1.00
C114   C     0.16462   0.12550   0.92420   0.00000  Uiso   1.00
C115   C     0.17807   0.10076   0.83490   0.00000  Uiso   1.00
H116   H     0.28695   0.05381   0.11589   0.00000  Uiso   1.00
H117   H     0.34886   0.12066   0.17110   0.00000  Uiso   1.00
H118   H     0.24758   0.99794   0.25470   0.00000  Uiso   1.00
H119   H     0.27543   0.03365   0.92163   0.00000  Uiso   1.00
H120   H     0.40010   0.20919   0.23276   0.00000  Uiso   1.00
H121   H     0.18654   0.95041   0.40901   0.00000  Uiso   1.00
H122   H     0.24528   0.02572   0.70666   0.00000  Uiso   1.00
H123   H     0.15298   0.16484   0.11902   0.00000  Uiso   1.00
H124   H     0.20753   0.23780   0.17441   0.00000  Uiso   1.00
H125   H     0.10625   0.11507   0.25801   0.00000  Uiso   1.00
H126   H     0.13411   0.15078   0.92494   0.00000  Uiso   1.00
H127   H     0.28539   0.30426   0.23545   0.00000  Uiso   1.00
H128   H     0.07183   0.04547   0.41170   0.00000  Uiso   1.00
H129   H     0.13057   0.12079   0.70935   0.00000  Uiso   1.00
O130   O     0.38105   0.30271   0.27051   0.00000  Uiso   1.00
O131   O     0.10086   0.96319   0.50174   0.00000  Uiso   1.00
O132   O     0.17793   0.06200   0.58028   0.00000  Uiso   1.00
N133   N     0.36562   0.22156   0.22577   0.00000  Uiso   1.00
N134   N     0.16596   0.97961   0.39057   0.00000  Uiso   1.00
N135   N     0.22086   0.05002   0.73394   0.00000  Uiso   1.00
N136   N     0.30390   0.27271   0.22721   0.00000  Uiso   1.00
N137   N     0.10423   0.03077   0.39202   0.00000  Uiso   1.00
N138   N     0.15914   0.10117   0.73539   0.00000  Uiso   1.00
C139   C     0.75626   0.57925   0.61660   0.00000  Uiso   1.00
C140   C     0.77132   0.63097   0.64703   0.00000  Uiso   1.00
C141   C     0.81835   0.64596   0.67181   0.00000  Uiso   1.00
C142   C     0.82458   0.69485   0.69760   0.00000  Uiso   1.00
C143   C     0.85396   0.77018   0.74474   0.00000  Uiso   1.00
C144   C     0.71629   0.56429   0.69246   0.00000  Uiso   1.00
C145   C     0.71706   0.52322   0.75544   0.00000  Uiso   1.00
C146   C     0.67697   0.51597   0.81946   0.00000  Uiso   1.00
C147   C     0.62090   0.48777   0.93710   0.00000  Uiso   1.00
C148   C     0.73143   0.58370   0.51150   0.00000  Uiso   1.00
C149   C     0.74492   0.55894   0.42232   0.00000  Uiso   1.00
C150   C     0.71756   0.56802   0.33398   0.00000  Uiso   1.00
C151   C     0.68500   0.56996   0.17063   0.00000  Uiso   1.00
C152   C     0.68367   0.63940   0.61830   0.00000  Uiso   1.00
C153   C     0.73189   0.66364   0.64795   0.00000  Uiso   1.00
C154   C     0.73805   0.71252   0.67370   0.00000  Uiso   1.00
C155   C     0.78509   0.72758   0.69852   0.00000  Uiso   1.00
C156   C     0.67687   0.59696   0.69339   0.00000  Uiso   1.00
C157   C     0.63676   0.58978   0.75732   0.00000  Uiso   1.00
C158   C     0.63747   0.54870   0.82039   0.00000  Uiso   1.00
C159   C     0.69200   0.61638   0.51242   0.00000  Uiso   1.00
C160   C     0.66462   0.62550   0.42420   0.00000  Uiso   1.00
C161   C     0.67807   0.60076   0.33490   0.00000  Uiso   1.00
H162   H     0.78695   0.55381   0.61589   0.00000  Uiso   1.00
H163   H     0.84886   0.62066   0.67110   0.00000  Uiso   1.00
H164   H     0.74758   0.49794   0.75470   0.00000  Uiso   1.00
H165   H     0.77543   0.53365   0.42163   0.00000  Uiso   1.00
H166   H     0.90010   0.70919   0.73276   0.00000  Uiso   1.00
H167   H     0.68654   0.45041   0.90901   0.00000  Uiso   1.00
H168   H     0.74528   0.52572   0.20666   0.00000  Uiso   1.00
H169   H     0.65298   0.66484   0.61902   0.00000  Uiso   1.00
H170   H     0.70753   0.73780   0.67441   0.00000  Uiso   1.00
H171   H     0.60625   0.61507   0.75801   0.00000  Uiso   1.00
H172   H     0.63411   0.65078   0.42494   0.00000  Uiso   1.00
H173   H     0.78539   0.80426   0.73545   0.00000  Uiso   1.00
H174   H     0.57183   0.54547   0.91170   0.00000  Uiso   1.00
H175   H     0.63057   0.62079   0.20935   0.00000  Uiso   1.00
O176   O     0.88105   0.80271   0.77051   0.00000  Uiso   1.00
O177   O     0.60086   0.46319   0.00174   0.00000  Uiso   1.00
O178   O     0.67793   0.56200   0.08028   0.00000  Uiso   1.00
N179   N     0.86562   0.72156   0.72577   0.00000  Uiso   1.00
N180   N     0.66596   0.47961   0.89057   0.00000  Uiso   1.00
N181   N     0.72086   0.55002   0.23394   0.00000  Uiso   1.00
N182   N     0.80390   0.77271   0.72721   0.00000  Uiso   1.00
N183   N     0.60423   0.53077   0.89202   0.00000  Uiso   1.00
N184   N     0.65914   0.60117   0.23539   0.00000  Uiso   1.00
C185   C     0.57925   0.74374   0.86660   0.00000  Uiso   1.00
C186   C     0.63097   0.72868   0.89703   0.00000  Uiso   1.00
C187   C     0.64596   0.68165   0.92181   0.00000  Uiso   1.00
C188   C     0.69485   0.67542   0.94760   0.00000  Uiso   1.00
C189   C     0.77018   0.64604   0.99474   0.00000  Uiso   1.00
C190   C     0.56429   0.78371   0.94246   0.00000  Uiso   1.00
C191   C     0.52322   0.78294   0.00544   0.00000  Uiso   1.00
C192   C     0.51597   0.82303   0.06946   0.00000  Uiso   1.00
C193   C     0.48777   0.87910   0.18710   0.00000  Uiso   1.00
C194   C     0.58370   0.76857   0.76150   0.00000  Uiso   1.00
C195   C     0.55894   0.75508   0.67232   0.00000  Uiso   1.00
C196   C     0.56802   0.78244   0.58398   0.00000  Uiso   1.00
C197   C     0.56996   0.81500   0.42063   0.00000  Uiso   1.00
C198   C     0.63940   0.81633   0.86830   0.00000  Uiso   1.00
C199   C     0.66364   0.76811   0.89795   0.00000  Uiso   1.00
C200   C     0.71252   0.76195   0.92370   0.00000  Uiso   1.00
C201   C     0.72758   0.71491   0.94852   0.00000  Uiso   1.00
C202   C     0.59696   0.82313   0.94339   0.00000  Uiso   1.00
C203   C     0.58978   0.86324   0.00732   0.00000  Uiso   1.00
C204   C     0.54870   0.86253   0.07039   0.00000  Uiso   1.00
C205   C     0.61638   0.80800   0.76242   0.00000  Uiso   1.00
C206   C     0.62550   0.83538   0.67420   0.00000  Uiso   1.00
C207   C     0.60076   0.82193   0.58490   0.00000  Uiso   1.00
H208   H     0.55381   0.71305   0.86589   0.00000  Uiso   1.00
H209   H     0.62066   0.65114   0.92110   0.00000  Uiso   1.00
H210   H     0.49794   0.75242   0.00470   0.00000  Uiso   1.00
H211   H     0.53365   0.72457   0.67163   0.00000  Uiso   1.00
H212   H     0.70919   0.59990   0.98276   0.00000  Uiso   1.00
H213   H     0.45041   0.81346   0.15901   0.00000  Uiso   1.00
H214   H     0.52572   0.75472   0.45666   0.00000  Uiso   1.00
H215   H     0.66484   0.84702   0.86902   0.00000  Uiso   1.00
H216   H     0.73780   0.79247   0.92441   0.00000  Uiso   1.00
H217   H     0.61507   0.89375   0.00801   0.00000  Uiso   1.00
H218   H     0.65078   0.86589   0.67494   0.00000  Uiso   1.00
H219   H     0.80426   0.71461   0.98545   0.00000  Uiso   1.00
H220   H     0.54547   0.92817   0.16170   0.00000  Uiso   1.00
H221   H     0.62079   0.86943   0.45935   0.00000  Uiso   1.00
O222   O     0.80271   0.61895   0.02051   0.00000  Uiso   1.00
O223   O     0.46319   0.89914   0.25174   0.00000  Uiso   1.00
O224   O     0.56200   0.82207   0.33028   0.00000  Uiso   1.00
N225   N     0.72156   0.63438   0.97577   0.00000  Uiso   1.00
N226   N     0.47961   0.83404   0.14057   0.00000  Uiso   1.00
N227   N     0.55002   0.77914   0.48394   0.00000  Uiso   1.00
N228   N     0.77271   0.69610   0.97721   0.00000  Uiso   1.00
N229   N     0.53077   0.89577   0.14202   0.00000  Uiso   1.00
N230   N     0.60117   0.84086   0.48539   0.00000  Uiso   1.00
C231   C     0.07925   0.24374   0.36660   0.00000  Uiso   1.00
C232   C     0.13097   0.22868   0.39703   0.00000  Uiso   1.00
C233   C     0.14596   0.18165   0.42181   0.00000  Uiso   1.00
C234   C     0.19485   0.17542   0.44760   0.00000  Uiso   1.00
C235   C     0.27018   0.14604   0.49474   0.00000  Uiso   1.00
C236   C     0.06429   0.28371   0.44246   0.00000  Uiso   1.00
C237   C     0.02322   0.28294   0.50544   0.00000  Uiso   1.00
C238   C     0.01597   0.32303   0.56946   0.00000  Uiso   1.00
C239   C     0.98777   0.37910   0.68710   0.00000  Uiso   1.00
C240   C     0.08370   0.26857   0.26150   0.00000  Uiso   1.00
C241   C     0.05894   0.25508   0.17232   0.00000  Uiso   1.00
C242   C     0.06802   0.28244   0.08398   0.00000  Uiso   1.00
C243   C     0.06996   0.31500   0.92063   0.00000  Uiso   1.00
C244   C     0.13940   0.31633   0.36830   0.00000  Uiso   1.00
C245   C     0.16364   0.26811   0.39795   0.00000  Uiso   1.00
C246   C     0.21252   0.26195   0.42370   0.00000  Uiso   1.00
C247   C     0.22758   0.21491   0.44852   0.00000  Uiso   1.00
C248   C     0.09696   0.32313   0.44339   0.00000  Uiso   1.00
C249   C     0.08978   0.36324   0.50732   0.00000  Uiso   1.00
C250   C     0.04870   0.36253   0.57039   0.00000  Uiso   1.00
C251   C     0.11638   0.30800   0.26242   0.00000  Uiso   1.00
C252   C     0.12550   0.33538   0.17420   0.00000  Uiso   1.00
C253   C     0.10076   0.32193   0.08490   0.00000  Uiso   1.00
H254   H     0.05381   0.21305   0.36589   0.00000  Uiso   1.00
H255   H     0.12066   0.15114   0.42110   0.00000  Uiso   1.00
H256   H     0.99794   0.25242   0.50470   0.00000  Uiso   1.00
H257   H     0.03365   0.22457   0.17163   0.00000  Uiso   1.00
H258   H     0.20919   0.09990   0.48276   0.00000  Uiso   1.00
H259   H     0.95041   0.31346   0.65901   0.00000  Uiso   1.00
H260   H     0.02572   0.25472   0.95666   0.00000  Uiso   1.00
H261   H     0.16484   0.34702   0.36902   0.00000  Uiso   1.00
H262   H     0.23780   0.29247   0.42441   0.00000  Uiso   1.00
H263   H     0.11507   0.39375   0.50801   0.00000  Uiso   1.00
H264   H     0.15078   0.36589   0.17494   0.00000  Uiso   1.00
H265   H     0.30426   0.21461   0.48545   0.00000  Uiso   1.00
H266   H     0.04547   0.42817   0.66170   0.00000  Uiso   1.00
H267   H     0.12079   0.36943   0.95935   0.00000  Uiso   1.00
O268   O     0.30271   0.11895   0.52051   0.00000  Uiso   1.00
O269   O     0.96319   0.39914   0.75174   0.00000  Uiso   1.00
O270   O     0.06200   0.32207   0.83028   0.00000  Uiso   1.00
N271   N     0.22156   0.13438   0.47577   0.00000  Uiso   1.00
N272   N     0.97961   0.33404   0.64057   0.00000  Uiso   1.00
N273   N     0.05002   0.27914   0.98394   0.00000  Uiso   1.00
N274   N     0.27271   0.19610   0.47721   0.00000  Uiso   1.00
N275   N     0.03077   0.39577   0.64202   0.00000  Uiso   1.00
N276   N     0.10117   0.34086   0.98539   0.00000  Uiso   1.00
C277   C     0.92075   0.75626   0.36660   0.00000  Uiso   1.00
C278   C     0.86903   0.77132   0.39703   0.00000  Uiso   1.00
C279   C     0.85404   0.81835   0.42181   0.00000  Uiso   1.00
C280   C     0.80515   0.82458   0.44760   0.00000  Uiso   1.00
C281   C     0.72982   0.85396   0.49474   0.00000  Uiso   1.00
C282   C     0.93571   0.71629   0.44246   0.00000  Uiso   1.00
C283   C     0.97678   0.71706   0.50544   0.00000  Uiso   1.00
C284   C     0.98403   0.67697   0.56946   0.00000  Uiso   1.00
C285   C     0.01223   0.62090   0.68710   0.00000  Uiso   1.00
C286   C     0.91630   0.73143   0.26150   0.00000  Uiso   1.00
C287   C     0.94106   0.74492   0.17232   0.00000  Uiso   1.00
C288   C     0.93198   0.71756   0.08398   0.00000  Uiso   1.00
C289   C     0.93004   0.68500   0.92063   0.00000  Uiso   1.00
C290   C     0.86060   0.68367   0.36830   0.00000  Uiso   1.00
C291   C     0.83636   0.73189   0.39795   0.00000  Uiso   1.00
C292   C     0.78748   0.73805   0.42370   0.00000  Uiso   1.00
C293   C     0.77242   0.78509   0.44852   0.00000  Uiso   1.00
C294   C     0.90304   0.67687   0.44339   0.00000  Uiso   1.00
C295   C     0.91022   0.63676   0.50732   0.00000  Uiso   1.00
C296   C     0.95130   0.63747   0.57039   0.00000  Uiso   1.00
C297   C     0.88362   0.69200   0.26242   0.00000  Uiso   1.00
C298   C     0.87450   0.66462   0.17420   0.00000  Uiso   1.00
C299   C     0.89924   0.67807   0.08490   0.00000  Uiso   1.00
H300   H     0.94619   0.78695   0.36589   0.00000  Uiso   1.00
H301   H     0.87934   0.84886   0.42110   0.00000  Uiso   1.00
H302   H     0.00206   0.74758   0.50470   0.00000  Uiso   1.00
H303   H     0.96635   0.77543   0.17163   0.00000  Uiso   1.00
H304   H     0.79081   0.90010   0.48276   0.00000  Uiso   1.00
H305   H     0.04959   0.68654   0.65901   0.00000  Uiso   1.00
H306   H     0.97428   0.74528   0.95666   0.00000  Uiso   1.00
H307   H     0.83516   0.65298   0.36902   0.00000  Uiso   1.00
H308   H     0.76220   0.70753   0.42441   0.00000  Uiso   1.00
H309   H     0.88493   0.60625   0.50801   0.00000  Uiso   1.00
H310   H     0.84922   0.63411   0.17494   0.00000  Uiso   1.00
H311   H     0.69574   0.78539   0.48545   0.00000  Uiso   1.00
H312   H     0.95453   0.57183   0.66170   0.00000  Uiso   1.00
H313   H     0.87921   0.63057   0.95935   0.00000  Uiso   1.00
O314   O     0.69729   0.88105   0.52051   0.00000  Uiso   1.00
O315   O     0.03681   0.60086   0.75174   0.00000  Uiso   1.00
O316   O     0.93800   0.67793   0.83028   0.00000  Uiso   1.00
N317   N     0.77844   0.86562   0.47577   0.00000  Uiso   1.00
N318   N     0.02039   0.66596   0.64057   0.00000  Uiso   1.00
N319   N     0.94998   0.72086   0.98394   0.00000  Uiso   1.00
N320   N     0.72729   0.80390   0.47721   0.00000  Uiso   1.00
N321   N     0.96923   0.60423   0.64202   0.00000  Uiso   1.00
N322   N     0.89883   0.65914   0.98539   0.00000  Uiso   1.00
C323   C     0.42075   0.25626   0.86660   0.00000  Uiso   1.00
C324   C     0.36903   0.27132   0.89703   0.00000  Uiso   1.00
C325   C     0.35404   0.31835   0.92181   0.00000  Uiso   1.00
C326   C     0.30515   0.32458   0.94760   0.00000  Uiso   1.00
C327   C     0.22982   0.35396   0.99474   0.00000  Uiso   1.00
C328   C     0.43571   0.21629   0.94246   0.00000  Uiso   1.00
C329   C     0.47678   0.21706   0.00544   0.00000  Uiso   1.00
C330   C     0.48403   0.17697   0.06946   0.00000  Uiso   1.00
C331   C     0.51223   0.12090   0.18710   0.00000  Uiso   1.00
C332   C     0.41630   0.23143   0.76150   0.00000  Uiso   1.00
C333   C     0.44106   0.24492   0.67232   0.00000  Uiso   1.00
C334   C     0.43198   0.21756   0.58398   0.00000  Uiso   1.00
C335   C     0.43004   0.18500   0.42063   0.00000  Uiso   1.00
C336   C     0.36060   0.18367   0.86830   0.00000  Uiso   1.00
C337   C     0.33636   0.23189   0.89795   0.00000  Uiso   1.00
C338   C     0.28748   0.23805   0.92370   0.00000  Uiso   1.00
C339   C     0.27242   0.28509   0.94852   0.00000  Uiso   1.00
C340   C     0.40304   0.17687   0.94339   0.00000  Uiso   1.00
C341   C     0.41022   0.13676   0.00732   0.00000  Uiso   1.00
C342   C     0.45130   0.13747   0.07039   0.00000  Uiso   1.00
C343   C     0.38362   0.19200   0.76242   0.00000  Uiso   1.00
C344   C     0.37450   0.16462   0.67420   0.00000  Uiso   1.00
C345   C     0.39924   0.17807   0.58490   0.00000  Uiso   1.00
H346   H     0.44619   0.28695   0.86589   0.00000  Uiso   1.00
H347   H     0.37934   0.34886   0.92110   0.00000  Uiso   1.00
H348   H     0.50206   0.24758   0.00470   0.00000  Uiso   1.00
H349   H     0.46635   0.27543   0.67163   0.00000  Uiso   1.00
H350   H     0.29081   0.40010   0.98276   0.00000  Uiso   1.00
H351   H     0.54959   0.18654   0.15901   0.00000  Uiso   1.00
H352   H     0.47428   0.24528   0.45666   0.00000  Uiso   1.00
H353   H     0.33516   0.15298   0.86902   0.00000  Uiso   1.00
H354   H     0.26220   0.20753   0.92441   0.00000  Uiso   1.00
H355   H     0.38493   0.10625   0.00801   0.00000  Uiso   1.00
H356   H     0.34922   0.13411   0.67494   0.00000  Uiso   1.00
H357   H     0.19574   0.28539   0.98545   0.00000  Uiso   1.00
H358   H     0.45453   0.07183   0.16170   0.00000  Uiso   1.00
H359   H     0.37921   0.13057   0.45935   0.00000  Uiso   1.00
O360   O     0.19729   0.38105   0.02051   0.00000  Uiso   1.00
O361   O     0.53681   0.10086   0.25174   0.00000  Uiso   1.00
O362   O     0.43800   0.17793   0.33028   0.00000  Uiso   1.00
N363   N     0.27844   0.36562   0.97577   0.00000  Uiso   1.00
N364   N     0.52039   0.16596   0.14057   0.00000  Uiso   1.00
N365   N     0.44998   0.22086   0.48394   0.00000  Uiso   1.00
N366   N     0.22729   0.30390   0.97721   0.00000  Uiso   1.00
N367   N     0.46923   0.10423   0.14202   0.00000  Uiso   1.00
N368   N     0.39883   0.15914   0.48539   0.00000  Uiso   1.00
C369   C     0.75626   0.07925   0.63340   0.00000  Uiso   1.00
C370   C     0.77132   0.13097   0.60297   0.00000  Uiso   1.00
C371   C     0.81835   0.14596   0.57819   0.00000  Uiso   1.00
C372   C     0.82458   0.19485   0.55240   0.00000  Uiso   1.00
C373   C     0.85396   0.27018   0.50526   0.00000  Uiso   1.00
C374   C     0.71629   0.06429   0.55754   0.00000  Uiso   1.00
C375   C     0.71706   0.02322   0.49456   0.00000  Uiso   1.00
C376   C     0.67697   0.01597   0.43054   0.00000  Uiso   1.00
C377   C     0.62090   0.98777   0.31290   0.00000  Uiso   1.00
C378   C     0.73143   0.08370   0.73850   0.00000  Uiso   1.00
C379   C     0.74492   0.05894   0.82768   0.00000  Uiso   1.00
C380   C     0.71756   0.06802   0.91602   0.00000  Uiso   1.00
C381   C     0.68500   0.06996   0.07937   0.00000  Uiso   1.00
C382   C     0.68367   0.13940   0.63170   0.00000  Uiso   1.00
C383   C     0.73189   0.16364   0.60205   0.00000  Uiso   1.00
C384   C     0.73805   0.21252   0.57630   0.00000  Uiso   1.00
C385   C     0.78509   0.22758   0.55148   0.00000  Uiso   1.00
C386   C     0.67687   0.09696   0.55661   0.00000  Uiso   1.00
C387   C     0.63676   0.08978   0.49268   0.00000  Uiso   1.00
C388   C     0.63747   0.04870   0.42961   0.00000  Uiso   1.00
C389   C     0.69200   0.11638   0.73758   0.00000  Uiso   1.00
C390   C     0.66462   0.12550   0.82580   0.00000  Uiso   1.00
C391   C     0.67807   0.10076   0.91510   0.00000  Uiso   1.00
H392   H     0.78695   0.05381   0.63411   0.00000  Uiso   1.00
H393   H     0.84886   0.12066   0.57890   0.00000  Uiso   1.00
H394   H     0.74758   0.99794   0.49530   0.00000  Uiso   1.00
H395   H     0.77543   0.03365   0.82837   0.00000  Uiso   1.00
H396   H     0.90010   0.20919   0.51724   0.00000  Uiso   1.00
H397   H     0.68654   0.95041   0.34099   0.00000  Uiso   1.00
H398   H     0.74528   0.02572   0.04334   0.00000  Uiso   1.00
H399   H     0.65298   0.16484   0.63098   0.00000  Uiso   1.00
H400   H     0.70753   0.23780   0.57559   0.00000  Uiso   1.00
H401   H     0.60625   0.11507   0.49199   0.00000  Uiso   1.00
H402   H     0.63411   0.15078   0.82506   0.00000  Uiso   1.00
H403   H     0.78539   0.30426   0.51455   0.00000  Uiso   1.00
H404   H     0.57183   0.04547   0.33830   0.00000  Uiso   1.00
H405   H     0.63057   0.12079   0.04065   0.00000  Uiso   1.00
O406   O     0.88105   0.30271   0.47949   0.00000  Uiso   1.00
O407   O     0.60086   0.96319   0.24826   0.00000  Uiso   1.00
O408   O     0.67793   0.06200   0.16972   0.00000  Uiso   1.00
N409   N     0.86562   0.22156   0.52423   0.00000  Uiso   1.00
N410   N     0.66596   0.97961   0.35943   0.00000  Uiso   1.00
N411   N     0.72086   0.05002   0.01606   0.00000  Uiso   1.00
N412   N     0.80390   0.27271   0.52279   0.00000  Uiso   1.00
N413   N     0.60423   0.03077   0.35798   0.00000  Uiso   1.00
N414   N     0.65914   0.10117   0.01461   0.00000  Uiso   1.00
C415   C     0.25626   0.57925   0.13340   0.00000  Uiso   1.00
C416   C     0.27132   0.63097   0.10297   0.00000  Uiso   1.00
C417   C     0.31835   0.64596   0.07819   0.00000  Uiso   1.00
C418   C     0.32458   0.69485   0.05240   0.00000  Uiso   1.00
C419   C     0.35396   0.77018   0.00526   0.00000  Uiso   1.00
C420   C     0.21629   0.56429   0.05754   0.00000  Uiso   1.00
C421   C     0.21706   0.52322   0.99456   0.00000  Uiso   1.00
C422   C     0.17697   0.51597   0.93054   0.00000  Uiso   1.00
C423   C     0.12090   0.48777   0.81290   0.00000  Uiso   1.00
C424   C     0.23143   0.58370   0.23850   0.00000  Uiso   1.00
C425   C     0.24492   0.55894   0.32768   0.00000  Uiso   1.00
C426   C     0.21756   0.56802   0.41602   0.00000  Uiso   1.00
C427   C     0.18500   0.56996   0.57937   0.00000  Uiso   1.00
C428   C     0.18367   0.63940   0.13170   0.00000  Uiso   1.00
C429   C     0.23189   0.66364   0.10205   0.00000  Uiso   1.00
C430   C     0.23805   0.71252   0.07630   0.00000  Uiso   1.00
C431   C     0.28509   0.72758   0.05148   0.00000  Uiso   1.00
C432   C     0.17687   0.59696   0.05661   0.00000  Uiso   1.00
C433   C     0.13676   0.58978   0.99268   0.00000  Uiso   1.00
C434   C     0.13747   0.54870   0.92961   0.00000  Uiso   1.00
C435   C     0.19200   0.61638   0.23758   0.00000  Uiso   1.00
C436   C     0.16462   0.62550   0.32580   0.00000  Uiso   1.00
C437   C     0.17807   0.60076   0.41510   0.00000  Uiso   1.00
H438   H     0.28695   0.55381   0.13411   0.00000  Uiso   1.00
H439   H     0.34886   0.62066   0.07890   0.00000  Uiso   1.00
H440   H     0.24758   0.49794   0.99530   0.00000  Uiso   1.00
H441   H     0.27543   0.53365   0.32837   0.00000  Uiso   1.00
H442   H     0.40010   0.70919   0.01724   0.00000  Uiso   1.00
H443   H     0.18654   0.45041   0.84099   0.00000  Uiso   1.00
H444   H     0.24528   0.52572   0.54334   0.00000  Uiso   1.00
H445   H     0.15298   0.66484   0.13098   0.00000  Uiso   1.00
H446   H     0.20753   0.73780   0.07559   0.00000  Uiso   1.00
H447   H     0.10625   0.61507   0.99199   0.00000  Uiso   1.00
H448   H     0.13411   0.65078   0.32506   0.00000  Uiso   1.00
H449   H     0.28539   0.80426   0.01455   0.00000  Uiso   1.00
H450   H     0.07183   0.54547   0.83830   0.00000  Uiso   1.00
H451   H     0.13057   0.62079   0.54065   0.00000  Uiso   1.00
O452   O     0.38105   0.80271   0.97949   0.00000  Uiso   1.00
O453   O     0.10086   0.46319   0.74826   0.00000  Uiso   1.00
O454   O     0.17793   0.56200   0.66972   0.00000  Uiso   1.00
N455   N     0.36562   0.72156   0.02423   0.00000  Uiso   1.00
N456   N     0.16596   0.47961   0.85943   0.00000  Uiso   1.00
N457   N     0.22086   0.55002   0.51606   0.00000  Uiso   1.00
N458   N     0.30390   0.77271   0.02279   0.00000  Uiso   1.00
N459   N     0.10423   0.53077   0.85798   0.00000  Uiso   1.00
N460   N     0.15914   0.60117   0.51461   0.00000  Uiso   1.00
C461   C     0.74374   0.42075   0.13340   0.00000  Uiso   1.00
C462   C     0.72868   0.36903   0.10297   0.00000  Uiso   1.00
C463   C     0.68165   0.35404   0.07819   0.00000  Uiso   1.00
C464   C     0.67542   0.30515   0.05240   0.00000  Uiso   1.00
C465   C     0.64604   0.22982   0.00526   0.00000  Uiso   1.00
C466   C     0.78371   0.43571   0.05754   0.00000  Uiso   1.00
C467   C     0.78294   0.47678   0.99456   0.00000  Uiso   1.00
C468   C     0.82303   0.48403   0.93054   0.00000  Uiso   1.00
C469   C     0.87910   0.51223   0.81290   0.00000  Uiso   1.00
C470   C     0.76857   0.41630   0.23850   0.00000  Uiso   1.00
C471   C     0.75508   0.44106   0.32768   0.00000  Uiso   1.00
C472   C     0.78244   0.43198   0.41602   0.00000  Uiso   1.00
C473   C     0.81500   0.43004   0.57937   0.00000  Uiso   1.00
C474   C     0.81633   0.36060   0.13170   0.00000  Uiso   1.00
C475   C     0.76811   0.33636   0.10205   0.00000  Uiso   1.00
C476   C     0.76195   0.28748   0.07630   0.00000  Uiso   1.00
C477   C     0.71491   0.27242   0.05148   0.00000  Uiso   1.00
C478   C     0.82313   0.40304   0.05661   0.00000  Uiso   1.00
C479   C     0.86324   0.41022   0.99268   0.00000  Uiso   1.00
C480   C     0.86253   0.45130   0.92961   0.00000  Uiso   1.00
C481   C     0.80800   0.38362   0.23758   0.00000  Uiso   1.00
C482   C     0.83538   0.37450   0.32580   0.00000  Uiso   1.00
C483   C     0.82193   0.39924   0.41510   0.00000  Uiso   1.00
H484   H     0.71305   0.44619   0.13411   0.00000  Uiso   1.00
H485   H     0.65114   0.37934   0.07890   0.00000  Uiso   1.00
H486   H     0.75242   0.50206   0.99530   0.00000  Uiso   1.00
H487   H     0.72457   0.46635   0.32837   0.00000  Uiso   1.00
H488   H     0.59990   0.29081   0.01724   0.00000  Uiso   1.00
H489   H     0.81346   0.54959   0.84099   0.00000  Uiso   1.00
H490   H     0.75472   0.47428   0.54334   0.00000  Uiso   1.00
H491   H     0.84702   0.33516   0.13098   0.00000  Uiso   1.00
H492   H     0.79247   0.26220   0.07559   0.00000  Uiso   1.00
H493   H     0.89375   0.38493   0.99199   0.00000  Uiso   1.00
H494   H     0.86589   0.34922   0.32506   0.00000  Uiso   1.00
H495   H     0.71461   0.19574   0.01455   0.00000  Uiso   1.00
H496   H     0.92817   0.45453   0.83830   0.00000  Uiso   1.00
H497   H     0.86943   0.37921   0.54065   0.00000  Uiso   1.00
O498   O     0.61895   0.19729   0.97949   0.00000  Uiso   1.00
O499   O     0.89914   0.53681   0.74826   0.00000  Uiso   1.00
O500   O     0.82207   0.43800   0.66972   0.00000  Uiso   1.00
N501   N     0.63438   0.27844   0.02423   0.00000  Uiso   1.00
N502   N     0.83404   0.52039   0.85943   0.00000  Uiso   1.00
N503   N     0.77914   0.44998   0.51606   0.00000  Uiso   1.00
N504   N     0.69610   0.22729   0.02279   0.00000  Uiso   1.00
N505   N     0.89577   0.46923   0.85798   0.00000  Uiso   1.00
N506   N     0.84086   0.39883   0.51461   0.00000  Uiso   1.00
C507   C     0.24374   0.92075   0.63340   0.00000  Uiso   1.00
C508   C     0.22868   0.86903   0.60297   0.00000  Uiso   1.00
C509   C     0.18165   0.85404   0.57819   0.00000  Uiso   1.00
C510   C     0.17542   0.80515   0.55240   0.00000  Uiso   1.00
C511   C     0.14604   0.72982   0.50526   0.00000  Uiso   1.00
C512   C     0.28371   0.93571   0.55754   0.00000  Uiso   1.00
C513   C     0.28294   0.97678   0.49456   0.00000  Uiso   1.00
C514   C     0.32303   0.98403   0.43054   0.00000  Uiso   1.00
C515   C     0.37910   0.01223   0.31290   0.00000  Uiso   1.00
C516   C     0.26857   0.91630   0.73850   0.00000  Uiso   1.00
C517   C     0.25508   0.94106   0.82768   0.00000  Uiso   1.00
C518   C     0.28244   0.93198   0.91602   0.00000  Uiso   1.00
C519   C     0.31500   0.93004   0.07937   0.00000  Uiso   1.00
C520   C     0.31633   0.86060   0.63170   0.00000  Uiso   1.00
C521   C     0.26811   0.83636   0.60205   0.00000  Uiso   1.00
C522   C     0.26195   0.78748   0.57630   0.00000  Uiso   1.00
C523   C     0.21491   0.77242   0.55148   0.00000  Uiso   1.00
C524   C     0.32313   0.90304   0.55661   0.00000  Uiso   1.00
C525   C     0.36324   0.91022   0.49268   0.00000  Uiso   1.00
C526   C     0.36253   0.95130   0.42961   0.00000  Uiso   1.00
C527   C     0.30800   0.88362   0.73758   0.00000  Uiso   1.00
C528   C     0.33538   0.87450   0.82580   0.00000  Uiso   1.00
C529   C     0.32193   0.89924   0.91510   0.00000  Uiso   1.00
H530   H     0.21305   0.94619   0.63411   0.00000  Uiso   1.00
H531   H     0.15114   0.87934   0.57890   0.00000  Uiso   1.00
H532   H     0.25242   0.00206   0.49530   0.00000  Uiso   1.00
H533   H     0.22457   0.96635   0.82837   0.00000  Uiso   1.00
H534   H     0.09990   0.79081   0.51724   0.00000  Uiso   1.00
H535   H     0.31346   0.04959   0.34099   0.00000  Uiso   1.00
H536   H     0.25472   0.97428   0.04334   0.00000  Uiso   1.00
H537   H     0.34702   0.83516   0.63098   0.00000  Uiso   1.00
H538   H     0.29247   0.76220   0.57559   0.00000  Uiso   1.00
H539   H     0.39375   0.88493   0.49199   0.00000  Uiso   1.00
H540   H     0.36589   0.84922   0.82506   0.00000  Uiso   1.00
H541   H     0.21461   0.69574   0.51455   0.00000  Uiso   1.00
H542   H     0.42817   0.95453   0.33830   0.00000  Uiso   1.00
H543   H     0.36943   0.87921   0.04065   0.00000  Uiso   1.00
O544   O     0.11895   0.69729   0.47949   0.00000  Uiso   1.00
O545   O     0.39914   0.03681   0.24826   0.00000  Uiso   1.00
O546   O     0.32207   0.93800   0.16972   0.00000  Uiso   1.00
N547   N     0.13438   0.77844   0.52423   0.00000  Uiso   1.00
N548   N     0.33404   0.02039   0.35943   0.00000  Uiso   1.00
N549   N     0.27914   0.94998   0.01606   0.00000  Uiso   1.00
N550   N     0.19610   0.72729   0.52279   0.00000  Uiso   1.00
N551   N     0.39577   0.96923   0.35798   0.00000  Uiso   1.00
N552   N     0.34086   0.89883   0.01461   0.00000  Uiso   1.00
C553   C     0.42075   0.75626   0.38340   0.00000  Uiso   1.00
C554   C     0.36903   0.77132   0.35297   0.00000  Uiso   1.00
C555   C     0.35404   0.81835   0.32819   0.00000  Uiso   1.00
C556   C     0.30515   0.82458   0.30240   0.00000  Uiso   1.00
C557   C     0.22982   0.85396   0.25526   0.00000  Uiso   1.00
C558   C     0.43571   0.71629   0.30754   0.00000  Uiso   1.00
C559   C     0.47678   0.71706   0.24456   0.00000  Uiso   1.00
C560   C     0.48403   0.67697   0.18054   0.00000  Uiso   1.00
C561   C     0.51223   0.62090   0.06290   0.00000  Uiso   1.00
C562   C     0.41630   0.73143   0.48850   0.00000  Uiso   1.00
C563   C     0.44106   0.74492   0.57768   0.00000  Uiso   1.00
C564   C     0.43198   0.71756   0.66602   0.00000  Uiso   1.00
C565   C     0.43004   0.68500   0.82937   0.00000  Uiso   1.00
C566   C     0.36060   0.68367   0.38170   0.00000  Uiso   1.00
C567   C     0.33636   0.73189   0.35205   0.00000  Uiso   1.00
C568   C     0.28748   0.73805   0.32630   0.00000  Uiso   1.00
C569   C     0.27242   0.78509   0.30148   0.00000  Uiso   1.00
C570   C     0.40304   0.67687   0.30661   0.00000  Uiso   1.00
C571   C     0.41022   0.63676   0.24268   0.00000  Uiso   1.00
C572   C     0.45130   0.63747   0.17961   0.00000  Uiso   1.00
C573   C     0.38362   0.69200   0.48758   0.00000  Uiso   1.00
C574   C     0.37450   0.66462   0.57580   0.00000  Uiso   1.00
C575   C     0.39924   0.67807   0.66510   0.00000  Uiso   1.00
H576   H     0.44619   0.78695   0.38411   0.00000  Uiso   1.00
H577   H     0.37934   0.84886   0.32890   0.00000  Uiso   1.00
H578   H     0.50206   0.74758   0.24530   0.00000  Uiso   1.00
H579   H     0.46635   0.77543   0.57837   0.00000  Uiso   1.00
H580   H     0.29081   0.90010   0.26724   0.00000  Uiso   1.00
H581   H     0.54959   0.68654   0.09099   0.00000  Uiso   1.00
H582   H     0.47428   0.74528   0.79334   0.00000  Uiso   1.00
H583   H     0.33516   0.65298   0.38098   0.00000  Uiso   1.00
H584   H     0.26220   0.70753   0.32559   0.00000  Uiso   1.00
H585   H     0.38493   0.60625   0.24199   0.00000  Uiso   1.00
H586   H     0.34922   0.63411   0.57506   0.00000  Uiso   1.00
H587   H     0.19574   0.78539   0.26455   0.00000  Uiso   1.00
H588   H     0.45453   0.57183   0.08830   0.00000  Uiso   1.00
H589   H     0.37921   0.63057   0.79065   0.00000  Uiso   1.00
O590   O     0.19729   0.88105   0.22949   0.00000  Uiso   1.00
O591   O     0.53681   0.60086   0.99826   0.00000  Uiso   1.00
O592   O     0.43800   0.67793   0.91972   0.00000  Uiso   1.00
N593   N     0.27844   0.86562   0.27423   0.00000  Uiso   1.00
N594   N     0.52039   0.66596   0.10943   0.00000  Uiso   1.00
N595   N     0.44998   0.72086   0.76606   0.00000  Uiso   1.00
N596   N     0.22729   0.80390   0.27279   0.00000  Uiso   1.00
N597   N     0.46923   0.60423   0.10798   0.00000  Uiso   1.00
N598   N     0.39883   0.65914   0.76461   0.00000  Uiso   1.00
C599   C     0.92075   0.25626   0.88340   0.00000  Uiso   1.00
C600   C     0.86903   0.27132   0.85297   0.00000  Uiso   1.00
C601   C     0.85404   0.31835   0.82819   0.00000  Uiso   1.00
C602   C     0.80515   0.32458   0.80240   0.00000  Uiso   1.00
C603   C     0.72982   0.35396   0.75526   0.00000  Uiso   1.00
C604   C     0.93571   0.21629   0.80754   0.00000  Uiso   1.00
C605   C     0.97678   0.21706   0.74456   0.00000  Uiso   1.00
C606   C     0.98403   0.17697   0.68054   0.00000  Uiso   1.00
C607   C     0.01223   0.12090   0.56290   0.00000  Uiso   1.00
C608   C     0.91630   0.23143   0.98850   0.00000  Uiso   1.00
C609   C     0.94106   0.24492   0.07768   0.00000  Uiso   1.00
C610   C     0.93198   0.21756   0.16602   0.00000  Uiso   1.00
C611   C     0.93004   0.18500   0.32937   0.00000  Uiso   1.00
C612   C     0.86060   0.18367   0.88170   0.00000  Uiso   1.00
C613   C     0.83636   0.23189   0.85205   0.00000  Uiso   1.00
C614   C     0.78748   0.23805   0.82630   0.00000  Uiso   1.00
C615   C     0.77242   0.28509   0.80148   0.00000  Uiso   1.00
C616   C     0.90304   0.17687   0.80661   0.00000  Uiso   1.00
C617   C     0.91022   0.13676   0.74268   0.00000  Uiso   1.00
C618   C     0.95130   0.13747   0.67961   0.00000  Uiso   1.00
C619   C     0.88362   0.19200   0.98758   0.00000  Uiso   1.00
C620   C     0.87450   0.16462   0.07580   0.00000  Uiso   1.00
C621   C     0.89924   0.17807   0.16510   0.00000  Uiso   1.00
H622   H     0.94619   0.28695   0.88411   0.00000  Uiso   1.00
H623   H     0.87934   0.34886   0.82890   0.00000  Uiso   1.00
H624   H     0.00206   0.24758   0.74530   0.00000  Uiso   1.00
H625   H     0.96635   0.27543   0.07837   0.00000  Uiso   1.00
H626   H     0.79081   0.40010   0.76724   0.00000  Uiso   1.00
H627   H     0.04959   0.18654   0.59099   0.00000  Uiso   1.00
H628   H     0.97428   0.24528   0.29334   0.00000  Uiso   1.00
H629   H     0.83516   0.15298   0.88098   0.00000  Uiso   1.00
H630   H     0.76220   0.20753   0.82559   0.00000  Uiso   1.00
H631   H     0.88493   0.10625   0.74199   0.00000  Uiso   1.00
H632   H     0.84922   0.13411   0.07506   0.00000  Uiso   1.00
H633   H     0.69574   0.28539   0.76455   0.00000  Uiso   1.00
H634   H     0.95453   0.07183   0.58830   0.00000  Uiso   1.00
H635   H     0.87921   0.13057   0.29065   0.00000  Uiso   1.00
O636   O     0.69729   0.38105   0.72949   0.00000  Uiso   1.00
O637   O     0.03681   0.10086   0.49826   0.00000  Uiso   1.00
O638   O     0.93800   0.17793   0.41972   0.00000  Uiso   1.00
N639   N     0.77844   0.36562   0.77423   0.00000  Uiso   1.00
N640   N     0.02039   0.16596   0.60943   0.00000  Uiso   1.00
N641   N     0.94998   0.22086   0.26606   0.00000  Uiso   1.00
N642   N     0.72729   0.30390   0.77279   0.00000  Uiso   1.00
N643   N     0.96923   0.10423   0.60798   0.00000  Uiso   1.00
N644   N     0.89883   0.15914   0.26461   0.00000  Uiso   1.00
C645   C     0.07925   0.74374   0.88340   0.00000  Uiso   1.00
C646   C     0.13097   0.72868   0.85297   0.00000  Uiso   1.00
C647   C     0.14596   0.68165   0.82819   0.00000  Uiso   1.00
C648   C     0.19485   0.67542   0.80240   0.00000  Uiso   1.00
C649   C     0.27018   0.64604   0.75526   0.00000  Uiso   1.00
C650   C     0.06429   0.78371   0.80754   0.00000  Uiso   1.00
C651   C     0.02322   0.78294   0.74456   0.00000  Uiso   1.00
C652   C     0.01597   0.82303   0.68054   0.00000  Uiso   1.00
C653   C     0.98777   0.87910   0.56290   0.00000  Uiso   1.00
C654   C     0.08370   0.76857   0.98850   0.00000  Uiso   1.00
C655   C     0.05894   0.75508   0.07768   0.00000  Uiso   1.00
C656   C     0.06802   0.78244   0.16602   0.00000  Uiso   1.00
C657   C     0.06996   0.81500   0.32937   0.00000  Uiso   1.00
C658   C     0.13940   0.81633   0.88170   0.00000  Uiso   1.00
C659   C     0.16364   0.76811   0.85205   0.00000  Uiso   1.00
C660   C     0.21252   0.76195   0.82630   0.00000  Uiso   1.00
C661   C     0.22758   0.71491   0.80148   0.00000  Uiso   1.00
C662   C     0.09696   0.82313   0.80661   0.00000  Uiso   1.00
C663   C     0.08978   0.86324   0.74268   0.00000  Uiso   1.00
C664   C     0.04870   0.86253   0.67961   0.00000  Uiso   1.00
C665   C     0.11638   0.80800   0.98758   0.00000  Uiso   1.00
C666   C     0.12550   0.83538   0.07580   0.00000  Uiso   1.00
C667   C     0.10076   0.82193   0.16510   0.00000  Uiso   1.00
H668   H     0.05381   0.71305   0.88411   0.00000  Uiso   1.00
H669   H     0.12066   0.65114   0.82890   0.00000  Uiso   1.00
H670   H     0.99794   0.75242   0.74530   0.00000  Uiso   1.00
H671   H     0.03365   0.72457   0.07837   0.00000  Uiso   1.00
H672   H     0.20919   0.59990   0.76724   0.00000  Uiso   1.00
H673   H     0.95041   0.81346   0.59099   0.00000  Uiso   1.00
H674   H     0.02572   0.75472   0.29334   0.00000  Uiso   1.00
H675   H     0.16484   0.84702   0.88098   0.00000  Uiso   1.00
H676   H     0.23780   0.79247   0.82559   0.00000  Uiso   1.00
H677   H     0.11507   0.89375   0.74199   0.00000  Uiso   1.00
H678   H     0.15078   0.86589   0.07506   0.00000  Uiso   1.00
H679   H     0.30426   0.71461   0.76455   0.00000  Uiso   1.00
H680   H     0.04547   0.92817   0.58830   0.00000  Uiso   1.00
H681   H     0.12079   0.86943   0.29065   0.00000  Uiso   1.00
O682   O     0.30271   0.61895   0.72949   0.00000  Uiso   1.00
O683   O     0.96319   0.89914   0.49826   0.00000  Uiso   1.00
O684   O     0.06200   0.82207   0.41972   0.00000  Uiso   1.00
N685   N     0.22156   0.63438   0.77423   0.00000  Uiso   1.00
N686   N     0.97961   0.83404   0.60943   0.00000  Uiso   1.00
N687   N     0.05002   0.77914   0.26606   0.00000  Uiso   1.00
N688   N     0.27271   0.69610   0.77279   0.00000  Uiso   1.00
N689   N     0.03077   0.89577   0.60798   0.00000  Uiso   1.00
N690   N     0.10117   0.84086   0.26461   0.00000  Uiso   1.00
C691   C     0.57925   0.24374   0.38340   0.00000  Uiso   1.00
C692   C     0.63097   0.22868   0.35297   0.00000  Uiso   1.00
C693   C     0.64596   0.18165   0.32819   0.00000  Uiso   1.00
C694   C     0.69485   0.17542   0.30240   0.00000  Uiso   1.00
C695   C     0.77018   0.14604   0.25526   0.00000  Uiso   1.00
C696   C     0.56429   0.28371   0.30754   0.00000  Uiso   1.00
C697   C     0.52322   0.28294   0.24456   0.00000  Uiso   1.00
C698   C     0.51597   0.32303   0.18054   0.00000  Uiso   1.00
C699   C     0.48777   0.37910   0.06290   0.00000  Uiso   1.00
C700   C     0.58370   0.26857   0.48850   0.00000  Uiso   1.00
C701   C     0.55894   0.25508   0.57768   0.00000  Uiso   1.00
C702   C     0.56802   0.28244   0.66602   0.00000  Uiso   1.00
C703   C     0.56996   0.31500   0.82937   0.00000  Uiso   1.00
C704   C     0.63940   0.31633   0.38170   0.00000  Uiso   1.00
C705   C     0.66364   0.26811   0.35205   0.00000  Uiso   1.00
C706   C     0.71252   0.26195   0.32630   0.00000  Uiso   1.00
C707   C     0.72758   0.21491   0.30148   0.00000  Uiso   1.00
C708   C     0.59696   0.32313   0.30661   0.00000  Uiso   1.00
C709   C     0.58978   0.36324   0.24268   0.00000  Uiso   1.00
C710   C     0.54870   0.36253   0.17961   0.00000  Uiso   1.00
C711   C     0.61638   0.30800   0.48758   0.00000  Uiso   1.00
C712   C     0.62550   0.33538   0.57580   0.00000  Uiso   1.00
C713   C     0.60076   0.32193   0.66510   0.00000  Uiso   1.00
H714   H     0.55381   0.21305   0.38411   0.00000  Uiso   1.00
H715   H     0.62066   0.15114   0.32890   0.00000  Uiso   1.00
H716   H     0.49794   0.25242   0.24530   0.00000  Uiso   1.00
H717   H     0.53365   0.22457   0.57837   0.00000  Uiso   1.00
H718   H     0.70919   0.09990   0.26724   0.00000  Uiso   1.00
H719   H     0.45041   0.31346   0.09099   0.00000  Uiso   1.00
H720   H     0.52572   0.25472   0.79334   0.00000  Uiso   1.00
H721   H     0.66484   0.34702   0.38098   0.00000  Uiso   1.00
H722   H     0.73780   0.29247   0.32559   0.00000  Uiso   1.00
H723   H     0.61507   0.39375   0.24199   0.00000  Uiso   1.00
H724   H     0.65078   0.36589   0.57506   0.00000  Uiso   1.00
H725   H     0.80426   0.21461   0.26455   0.00000  Uiso   1.00
H726   H     0.54547   0.42817   0.08830   0.00000  Uiso   1.00
H727   H     0.62079   0.36943   0.79065   0.00000  Uiso   1.00
O728   O     0.80271   0.11895   0.22949   0.00000  Uiso   1.00
O729   O     0.46319   0.39914   0.99826   0.00000  Uiso   1.00
O730   O     0.56200   0.32207   0.91972   0.00000  Uiso   1.00
N731   N     0.72156   0.13438   0.27423   0.00000  Uiso   1.00
N732   N     0.47961   0.33404   0.10943   0.00000  Uiso   1.00
N733   N     0.55002   0.27914   0.76606   0.00000  Uiso   1.00
N734   N     0.77271   0.19610   0.27279   0.00000  Uiso   1.00
N735   N     0.53077   0.39577   0.10798   0.00000  Uiso   1.00
N736   N     0.60117   0.34086   0.76461   0.00000  Uiso   1.00
