data_job_05634
_audit_creation_date              2018-12-19
_audit_creation_method            'Materials Studio'
_symmetry_space_group_name_H-M    'P1'
_symmetry_Int_Tables_number       1
_symmetry_cell_setting            triclinic
loop_
_symmetry_equiv_pos_as_xyz
  x,y,z
_cell_length_a                    15.7923
_cell_length_b                    42.3798
_cell_length_c                    18.5355
_cell_angle_alpha                 90.0000
_cell_angle_beta                  90.0000
_cell_angle_gamma                 90.0000
loop_
_atom_site_label
_atom_site_type_symbol
_atom_site_fract_x
_atom_site_fract_y
_atom_site_fract_z
_atom_site_U_iso_or_equiv
_atom_site_adp_type
_atom_site_occupancy
C1     C     0.63361   0.49389   0.27027   0.00000  Uiso   1.00
C2     C     0.64684   0.45830   0.26585   0.00000  Uiso   1.00
C3     C     0.58888   0.43548   0.28691   0.00000  Uiso   1.00
C4     C     0.61297   0.40418   0.27857   0.00000  Uiso   1.00
C5     C     0.62148   0.35016   0.27606   0.00000  Uiso   1.00
C6     C     0.70695   0.50666   0.31511   0.00000  Uiso   1.00
C7     C     0.69954   0.52450   0.37759   0.00000  Uiso   1.00
C8     C     0.77424   0.53392   0.41069   0.00000  Uiso   1.00
C9     C     0.87608   0.55499   0.48464   0.00000  Uiso   1.00
C10    C     0.64698   0.50645   0.19402   0.00000  Uiso   1.00
C11    C     0.58916   0.52411   0.15468   0.00000  Uiso   1.00
C12    C     0.61338   0.53335   0.08584   0.00000  Uiso   1.00
C13    C     0.62210   0.55409   0.97176   0.00000  Uiso   1.00
C14    C     0.77945   0.47891   0.21798   0.00000  Uiso   1.00
C15    C     0.72606   0.45016   0.23745   0.00000  Uiso   1.00
C16    C     0.75024   0.41890   0.22906   0.00000  Uiso   1.00
C17    C     0.69233   0.39603   0.25011   0.00000  Uiso   1.00
C18    C     0.78617   0.49852   0.28671   0.00000  Uiso   1.00
C19    C     0.86090   0.50792   0.31973   0.00000  Uiso   1.00
C20    C     0.85361   0.52577   0.38224   0.00000  Uiso   1.00
C21    C     0.72620   0.49831   0.16561   0.00000  Uiso   1.00
C22    C     0.75052   0.50753   0.09682   0.00000  Uiso   1.00
C23    C     0.69274   0.52520   0.05739   0.00000  Uiso   1.00
H24    H     0.57194   0.50023   0.29238   0.00000  Uiso   1.00
H25    H     0.52758   0.44179   0.30890   0.00000  Uiso   1.00
H26    H     0.63823   0.53080   0.39955   0.00000  Uiso   1.00
H27    H     0.52786   0.53040   0.17667   0.00000  Uiso   1.00
H28    H     0.51336   0.37340   0.31471   0.00000  Uiso   1.00
H29    H     0.74666   0.56110   0.50583   0.00000  Uiso   1.00
H30    H     0.51392   0.56027   0.03586   0.00000  Uiso   1.00
H31    H     0.84113   0.47257   0.19587   0.00000  Uiso   1.00
H32    H     0.81155   0.41261   0.20709   0.00000  Uiso   1.00
H33    H     0.92220   0.50162   0.29774   0.00000  Uiso   1.00
H34    H     0.81183   0.50123   0.07486   0.00000  Uiso   1.00
H35    H     0.74384   0.34971   0.23208   0.00000  Uiso   1.00
H36    H     0.97714   0.53741   0.42320   0.00000  Uiso   1.00
H37    H     0.74440   0.53658   0.95323   0.00000  Uiso   1.00
O38    O     0.60430   0.32261   0.28254   0.00000  Uiso   1.00
O39    O     0.91037   0.56886   0.53328   0.00000  Uiso   1.00
O40    O     0.60503   0.56777   0.91668   0.00000  Uiso   1.00
N41    N     0.57166   0.37605   0.29371   0.00000  Uiso   1.00
N42    N     0.78978   0.55154   0.47241   0.00000  Uiso   1.00
N43    N     0.57220   0.55077   0.03303   0.00000  Uiso   1.00
N44    N     0.69568   0.36331   0.24924   0.00000  Uiso   1.00
N45    N     0.91380   0.53879   0.42794   0.00000  Uiso   1.00
N46    N     0.69622   0.53802   0.98856   0.00000  Uiso   1.00
C47    C     0.63361   0.99389   0.77027   0.00000  Uiso   1.00
C48    C     0.64684   0.95830   0.76585   0.00000  Uiso   1.00
C49    C     0.58888   0.93548   0.78691   0.00000  Uiso   1.00
C50    C     0.61297   0.90418   0.77857   0.00000  Uiso   1.00
C51    C     0.62148   0.85016   0.77606   0.00000  Uiso   1.00
C52    C     0.70695   0.00666   0.81511   0.00000  Uiso   1.00
C53    C     0.69954   0.02450   0.87759   0.00000  Uiso   1.00
C54    C     0.77424   0.03392   0.91069   0.00000  Uiso   1.00
C55    C     0.87608   0.05499   0.98464   0.00000  Uiso   1.00
C56    C     0.64698   0.00645   0.69402   0.00000  Uiso   1.00
C57    C     0.58916   0.02411   0.65468   0.00000  Uiso   1.00
C58    C     0.61338   0.03335   0.58584   0.00000  Uiso   1.00
C59    C     0.62210   0.05409   0.47176   0.00000  Uiso   1.00
C60    C     0.77945   0.97891   0.71798   0.00000  Uiso   1.00
C61    C     0.72606   0.95016   0.73745   0.00000  Uiso   1.00
C62    C     0.75024   0.91890   0.72906   0.00000  Uiso   1.00
C63    C     0.69233   0.89603   0.75011   0.00000  Uiso   1.00
C64    C     0.78617   0.99852   0.78671   0.00000  Uiso   1.00
C65    C     0.86090   0.00792   0.81973   0.00000  Uiso   1.00
C66    C     0.85361   0.02577   0.88224   0.00000  Uiso   1.00
C67    C     0.72620   0.99831   0.66561   0.00000  Uiso   1.00
C68    C     0.75052   0.00753   0.59682   0.00000  Uiso   1.00
C69    C     0.69274   0.02520   0.55739   0.00000  Uiso   1.00
H70    H     0.57194   0.00023   0.79238   0.00000  Uiso   1.00
H71    H     0.52758   0.94179   0.80890   0.00000  Uiso   1.00
H72    H     0.63823   0.03080   0.89955   0.00000  Uiso   1.00
H73    H     0.52786   0.03040   0.67667   0.00000  Uiso   1.00
H74    H     0.51336   0.87340   0.81471   0.00000  Uiso   1.00
H75    H     0.74666   0.06110   0.00583   0.00000  Uiso   1.00
H76    H     0.51392   0.06027   0.53586   0.00000  Uiso   1.00
H77    H     0.84113   0.97257   0.69587   0.00000  Uiso   1.00
H78    H     0.81155   0.91261   0.70709   0.00000  Uiso   1.00
H79    H     0.92220   0.00162   0.79774   0.00000  Uiso   1.00
H80    H     0.81183   0.00123   0.57486   0.00000  Uiso   1.00
H81    H     0.74384   0.84971   0.73208   0.00000  Uiso   1.00
H82    H     0.97714   0.03741   0.92320   0.00000  Uiso   1.00
H83    H     0.74440   0.03658   0.45323   0.00000  Uiso   1.00
O84    O     0.60430   0.82261   0.78254   0.00000  Uiso   1.00
O85    O     0.91037   0.06886   0.03328   0.00000  Uiso   1.00
O86    O     0.60503   0.06777   0.41668   0.00000  Uiso   1.00
N87    N     0.57166   0.87605   0.79371   0.00000  Uiso   1.00
N88    N     0.78978   0.05154   0.97241   0.00000  Uiso   1.00
N89    N     0.57220   0.05077   0.53303   0.00000  Uiso   1.00
N90    N     0.69568   0.86331   0.74924   0.00000  Uiso   1.00
N91    N     0.91380   0.03879   0.92794   0.00000  Uiso   1.00
N92    N     0.69622   0.03802   0.48856   0.00000  Uiso   1.00
C93    C     0.13361   0.49389   0.77027   0.00000  Uiso   1.00
C94    C     0.14684   0.45830   0.76585   0.00000  Uiso   1.00
C95    C     0.08888   0.43548   0.78691   0.00000  Uiso   1.00
C96    C     0.11297   0.40418   0.77857   0.00000  Uiso   1.00
C97    C     0.12148   0.35016   0.77606   0.00000  Uiso   1.00
C98    C     0.20695   0.50666   0.81511   0.00000  Uiso   1.00
C99    C     0.19954   0.52450   0.87759   0.00000  Uiso   1.00
C100   C     0.27424   0.53392   0.91069   0.00000  Uiso   1.00
C101   C     0.37608   0.55499   0.98464   0.00000  Uiso   1.00
C102   C     0.14698   0.50645   0.69402   0.00000  Uiso   1.00
C103   C     0.08916   0.52411   0.65468   0.00000  Uiso   1.00
C104   C     0.11338   0.53335   0.58584   0.00000  Uiso   1.00
C105   C     0.12210   0.55409   0.47176   0.00000  Uiso   1.00
C106   C     0.27945   0.47891   0.71798   0.00000  Uiso   1.00
C107   C     0.22606   0.45016   0.73745   0.00000  Uiso   1.00
C108   C     0.25024   0.41890   0.72906   0.00000  Uiso   1.00
C109   C     0.19233   0.39603   0.75011   0.00000  Uiso   1.00
C110   C     0.28617   0.49852   0.78671   0.00000  Uiso   1.00
C111   C     0.36090   0.50792   0.81973   0.00000  Uiso   1.00
C112   C     0.35361   0.52577   0.88224   0.00000  Uiso   1.00
C113   C     0.22620   0.49831   0.66561   0.00000  Uiso   1.00
C114   C     0.25052   0.50753   0.59682   0.00000  Uiso   1.00
C115   C     0.19274   0.52520   0.55739   0.00000  Uiso   1.00
H116   H     0.07194   0.50023   0.79238   0.00000  Uiso   1.00
H117   H     0.02758   0.44179   0.80890   0.00000  Uiso   1.00
H118   H     0.13823   0.53080   0.89955   0.00000  Uiso   1.00
H119   H     0.02786   0.53040   0.67667   0.00000  Uiso   1.00
H120   H     0.01336   0.37340   0.81471   0.00000  Uiso   1.00
H121   H     0.24666   0.56110   0.00583   0.00000  Uiso   1.00
H122   H     0.01392   0.56027   0.53586   0.00000  Uiso   1.00
H123   H     0.34113   0.47257   0.69587   0.00000  Uiso   1.00
H124   H     0.31155   0.41261   0.70709   0.00000  Uiso   1.00
H125   H     0.42220   0.50162   0.79774   0.00000  Uiso   1.00
H126   H     0.31183   0.50123   0.57486   0.00000  Uiso   1.00
H127   H     0.24384   0.34971   0.73208   0.00000  Uiso   1.00
H128   H     0.47714   0.53741   0.92320   0.00000  Uiso   1.00
H129   H     0.24440   0.53658   0.45323   0.00000  Uiso   1.00
O130   O     0.10430   0.32261   0.78254   0.00000  Uiso   1.00
O131   O     0.41037   0.56886   0.03328   0.00000  Uiso   1.00
O132   O     0.10503   0.56777   0.41668   0.00000  Uiso   1.00
N133   N     0.07166   0.37605   0.79371   0.00000  Uiso   1.00
N134   N     0.28978   0.55154   0.97241   0.00000  Uiso   1.00
N135   N     0.07220   0.55077   0.53303   0.00000  Uiso   1.00
N136   N     0.19568   0.36331   0.74924   0.00000  Uiso   1.00
N137   N     0.41380   0.53879   0.92794   0.00000  Uiso   1.00
N138   N     0.19622   0.53802   0.48856   0.00000  Uiso   1.00
C139   C     0.13361   0.99389   0.27027   0.00000  Uiso   1.00
C140   C     0.14684   0.95830   0.26585   0.00000  Uiso   1.00
C141   C     0.08888   0.93548   0.28691   0.00000  Uiso   1.00
C142   C     0.11297   0.90418   0.27857   0.00000  Uiso   1.00
C143   C     0.12148   0.85016   0.27606   0.00000  Uiso   1.00
C144   C     0.20695   0.00666   0.31511   0.00000  Uiso   1.00
C145   C     0.19954   0.02450   0.37759   0.00000  Uiso   1.00
C146   C     0.27424   0.03392   0.41069   0.00000  Uiso   1.00
C147   C     0.37608   0.05499   0.48464   0.00000  Uiso   1.00
C148   C     0.14698   0.00645   0.19402   0.00000  Uiso   1.00
C149   C     0.08916   0.02411   0.15468   0.00000  Uiso   1.00
C150   C     0.11338   0.03335   0.08584   0.00000  Uiso   1.00
C151   C     0.12210   0.05409   0.97176   0.00000  Uiso   1.00
C152   C     0.27945   0.97891   0.21798   0.00000  Uiso   1.00
C153   C     0.22606   0.95016   0.23745   0.00000  Uiso   1.00
C154   C     0.25024   0.91890   0.22906   0.00000  Uiso   1.00
C155   C     0.19233   0.89603   0.25011   0.00000  Uiso   1.00
C156   C     0.28617   0.99852   0.28671   0.00000  Uiso   1.00
C157   C     0.36090   0.00792   0.31973   0.00000  Uiso   1.00
C158   C     0.35361   0.02577   0.38224   0.00000  Uiso   1.00
C159   C     0.22620   0.99831   0.16561   0.00000  Uiso   1.00
C160   C     0.25052   0.00753   0.09682   0.00000  Uiso   1.00
C161   C     0.19274   0.02520   0.05739   0.00000  Uiso   1.00
H162   H     0.07194   0.00023   0.29238   0.00000  Uiso   1.00
H163   H     0.02758   0.94179   0.30890   0.00000  Uiso   1.00
H164   H     0.13823   0.03080   0.39955   0.00000  Uiso   1.00
H165   H     0.02786   0.03040   0.17667   0.00000  Uiso   1.00
H166   H     0.01336   0.87340   0.31471   0.00000  Uiso   1.00
H167   H     0.24666   0.06110   0.50583   0.00000  Uiso   1.00
H168   H     0.01392   0.06027   0.03586   0.00000  Uiso   1.00
H169   H     0.34113   0.97257   0.19587   0.00000  Uiso   1.00
H170   H     0.31155   0.91261   0.20709   0.00000  Uiso   1.00
H171   H     0.42220   0.00162   0.29774   0.00000  Uiso   1.00
H172   H     0.31183   0.00123   0.07486   0.00000  Uiso   1.00
H173   H     0.24384   0.84971   0.23208   0.00000  Uiso   1.00
H174   H     0.47714   0.03741   0.42320   0.00000  Uiso   1.00
H175   H     0.24440   0.03658   0.95323   0.00000  Uiso   1.00
O176   O     0.10430   0.82261   0.28254   0.00000  Uiso   1.00
O177   O     0.41037   0.06886   0.53328   0.00000  Uiso   1.00
O178   O     0.10503   0.06777   0.91668   0.00000  Uiso   1.00
N179   N     0.07166   0.87605   0.29371   0.00000  Uiso   1.00
N180   N     0.28978   0.05154   0.47241   0.00000  Uiso   1.00
N181   N     0.07220   0.05077   0.03303   0.00000  Uiso   1.00
N182   N     0.19568   0.86331   0.24924   0.00000  Uiso   1.00
N183   N     0.41380   0.03879   0.42794   0.00000  Uiso   1.00
N184   N     0.19622   0.03802   0.98856   0.00000  Uiso   1.00
C185   C     0.36639   0.50611   0.27027   0.00000  Uiso   1.00
C186   C     0.35316   0.54170   0.26585   0.00000  Uiso   1.00
C187   C     0.41112   0.56452   0.28691   0.00000  Uiso   1.00
C188   C     0.38703   0.59582   0.27857   0.00000  Uiso   1.00
C189   C     0.37852   0.64984   0.27606   0.00000  Uiso   1.00
C190   C     0.29305   0.49334   0.31511   0.00000  Uiso   1.00
C191   C     0.30046   0.47550   0.37759   0.00000  Uiso   1.00
C192   C     0.22576   0.46608   0.41069   0.00000  Uiso   1.00
C193   C     0.12392   0.44501   0.48464   0.00000  Uiso   1.00
C194   C     0.35302   0.49355   0.19402   0.00000  Uiso   1.00
C195   C     0.41084   0.47589   0.15468   0.00000  Uiso   1.00
C196   C     0.38662   0.46665   0.08584   0.00000  Uiso   1.00
C197   C     0.37790   0.44591   0.97176   0.00000  Uiso   1.00
C198   C     0.22055   0.52109   0.21798   0.00000  Uiso   1.00
C199   C     0.27394   0.54984   0.23745   0.00000  Uiso   1.00
C200   C     0.24976   0.58110   0.22906   0.00000  Uiso   1.00
C201   C     0.30767   0.60397   0.25011   0.00000  Uiso   1.00
C202   C     0.21383   0.50148   0.28671   0.00000  Uiso   1.00
C203   C     0.13910   0.49208   0.31973   0.00000  Uiso   1.00
C204   C     0.14639   0.47423   0.38224   0.00000  Uiso   1.00
C205   C     0.27380   0.50169   0.16561   0.00000  Uiso   1.00
C206   C     0.24948   0.49247   0.09682   0.00000  Uiso   1.00
C207   C     0.30726   0.47480   0.05739   0.00000  Uiso   1.00
H208   H     0.42806   0.49977   0.29238   0.00000  Uiso   1.00
H209   H     0.47242   0.55821   0.30890   0.00000  Uiso   1.00
H210   H     0.36177   0.46920   0.39955   0.00000  Uiso   1.00
H211   H     0.47214   0.46960   0.17667   0.00000  Uiso   1.00
H212   H     0.48664   0.62660   0.31471   0.00000  Uiso   1.00
H213   H     0.25334   0.43890   0.50583   0.00000  Uiso   1.00
H214   H     0.48608   0.43973   0.03586   0.00000  Uiso   1.00
H215   H     0.15887   0.52743   0.19587   0.00000  Uiso   1.00
H216   H     0.18845   0.58739   0.20709   0.00000  Uiso   1.00
H217   H     0.07780   0.49838   0.29774   0.00000  Uiso   1.00
H218   H     0.18817   0.49877   0.07486   0.00000  Uiso   1.00
H219   H     0.25616   0.65029   0.23208   0.00000  Uiso   1.00
H220   H     0.02286   0.46259   0.42320   0.00000  Uiso   1.00
H221   H     0.25560   0.46342   0.95323   0.00000  Uiso   1.00
O222   O     0.39570   0.67739   0.28254   0.00000  Uiso   1.00
O223   O     0.08963   0.43114   0.53328   0.00000  Uiso   1.00
O224   O     0.39497   0.43223   0.91668   0.00000  Uiso   1.00
N225   N     0.42834   0.62395   0.29371   0.00000  Uiso   1.00
N226   N     0.21022   0.44846   0.47241   0.00000  Uiso   1.00
N227   N     0.42780   0.44923   0.03303   0.00000  Uiso   1.00
N228   N     0.30432   0.63669   0.24924   0.00000  Uiso   1.00
N229   N     0.08620   0.46121   0.42794   0.00000  Uiso   1.00
N230   N     0.30378   0.46198   0.98856   0.00000  Uiso   1.00
C231   C     0.36639   0.00611   0.77027   0.00000  Uiso   1.00
C232   C     0.35316   0.04170   0.76585   0.00000  Uiso   1.00
C233   C     0.41112   0.06452   0.78691   0.00000  Uiso   1.00
C234   C     0.38703   0.09582   0.77857   0.00000  Uiso   1.00
C235   C     0.37852   0.14984   0.77606   0.00000  Uiso   1.00
C236   C     0.29305   0.99334   0.81511   0.00000  Uiso   1.00
C237   C     0.30046   0.97550   0.87759   0.00000  Uiso   1.00
C238   C     0.22576   0.96608   0.91069   0.00000  Uiso   1.00
C239   C     0.12392   0.94501   0.98464   0.00000  Uiso   1.00
C240   C     0.35302   0.99355   0.69402   0.00000  Uiso   1.00
C241   C     0.41084   0.97589   0.65468   0.00000  Uiso   1.00
C242   C     0.38662   0.96665   0.58584   0.00000  Uiso   1.00
C243   C     0.37790   0.94591   0.47176   0.00000  Uiso   1.00
C244   C     0.22055   0.02109   0.71798   0.00000  Uiso   1.00
C245   C     0.27394   0.04984   0.73745   0.00000  Uiso   1.00
C246   C     0.24976   0.08110   0.72906   0.00000  Uiso   1.00
C247   C     0.30767   0.10397   0.75011   0.00000  Uiso   1.00
C248   C     0.21383   0.00148   0.78671   0.00000  Uiso   1.00
C249   C     0.13910   0.99208   0.81973   0.00000  Uiso   1.00
C250   C     0.14639   0.97423   0.88224   0.00000  Uiso   1.00
C251   C     0.27380   0.00169   0.66561   0.00000  Uiso   1.00
C252   C     0.24948   0.99247   0.59682   0.00000  Uiso   1.00
C253   C     0.30726   0.97480   0.55739   0.00000  Uiso   1.00
H254   H     0.42806   0.99977   0.79238   0.00000  Uiso   1.00
H255   H     0.47242   0.05821   0.80890   0.00000  Uiso   1.00
H256   H     0.36177   0.96920   0.89955   0.00000  Uiso   1.00
H257   H     0.47214   0.96960   0.67667   0.00000  Uiso   1.00
H258   H     0.48664   0.12660   0.81471   0.00000  Uiso   1.00
H259   H     0.25334   0.93890   0.00583   0.00000  Uiso   1.00
H260   H     0.48608   0.93973   0.53586   0.00000  Uiso   1.00
H261   H     0.15887   0.02743   0.69587   0.00000  Uiso   1.00
H262   H     0.18845   0.08739   0.70709   0.00000  Uiso   1.00
H263   H     0.07780   0.99838   0.79774   0.00000  Uiso   1.00
H264   H     0.18817   0.99877   0.57486   0.00000  Uiso   1.00
H265   H     0.25616   0.15029   0.73208   0.00000  Uiso   1.00
H266   H     0.02286   0.96259   0.92320   0.00000  Uiso   1.00
H267   H     0.25560   0.96342   0.45323   0.00000  Uiso   1.00
O268   O     0.39570   0.17739   0.78254   0.00000  Uiso   1.00
O269   O     0.08963   0.93114   0.03328   0.00000  Uiso   1.00
O270   O     0.39497   0.93223   0.41668   0.00000  Uiso   1.00
N271   N     0.42834   0.12395   0.79371   0.00000  Uiso   1.00
N272   N     0.21022   0.94846   0.97241   0.00000  Uiso   1.00
N273   N     0.42780   0.94923   0.53303   0.00000  Uiso   1.00
N274   N     0.30432   0.13669   0.74924   0.00000  Uiso   1.00
N275   N     0.08620   0.96121   0.92794   0.00000  Uiso   1.00
N276   N     0.30378   0.96198   0.48856   0.00000  Uiso   1.00
C277   C     0.86639   0.50611   0.77027   0.00000  Uiso   1.00
C278   C     0.85316   0.54170   0.76585   0.00000  Uiso   1.00
C279   C     0.91112   0.56452   0.78691   0.00000  Uiso   1.00
C280   C     0.88703   0.59582   0.77857   0.00000  Uiso   1.00
C281   C     0.87852   0.64984   0.77606   0.00000  Uiso   1.00
C282   C     0.79305   0.49334   0.81511   0.00000  Uiso   1.00
C283   C     0.80046   0.47550   0.87759   0.00000  Uiso   1.00
C284   C     0.72576   0.46608   0.91069   0.00000  Uiso   1.00
C285   C     0.62392   0.44501   0.98464   0.00000  Uiso   1.00
C286   C     0.85302   0.49355   0.69402   0.00000  Uiso   1.00
C287   C     0.91084   0.47589   0.65468   0.00000  Uiso   1.00
C288   C     0.88662   0.46665   0.58584   0.00000  Uiso   1.00
C289   C     0.87790   0.44591   0.47176   0.00000  Uiso   1.00
C290   C     0.72055   0.52109   0.71798   0.00000  Uiso   1.00
C291   C     0.77394   0.54984   0.73745   0.00000  Uiso   1.00
C292   C     0.74976   0.58110   0.72906   0.00000  Uiso   1.00
C293   C     0.80767   0.60397   0.75011   0.00000  Uiso   1.00
C294   C     0.71383   0.50148   0.78671   0.00000  Uiso   1.00
C295   C     0.63910   0.49208   0.81973   0.00000  Uiso   1.00
C296   C     0.64639   0.47423   0.88224   0.00000  Uiso   1.00
C297   C     0.77380   0.50169   0.66561   0.00000  Uiso   1.00
C298   C     0.74948   0.49247   0.59682   0.00000  Uiso   1.00
C299   C     0.80726   0.47480   0.55739   0.00000  Uiso   1.00
H300   H     0.92806   0.49977   0.79238   0.00000  Uiso   1.00
H301   H     0.97242   0.55821   0.80890   0.00000  Uiso   1.00
H302   H     0.86177   0.46920   0.89955   0.00000  Uiso   1.00
H303   H     0.97214   0.46960   0.67667   0.00000  Uiso   1.00
H304   H     0.98664   0.62660   0.81471   0.00000  Uiso   1.00
H305   H     0.75334   0.43890   0.00583   0.00000  Uiso   1.00
H306   H     0.98608   0.43973   0.53586   0.00000  Uiso   1.00
H307   H     0.65887   0.52743   0.69587   0.00000  Uiso   1.00
H308   H     0.68845   0.58739   0.70709   0.00000  Uiso   1.00
H309   H     0.57780   0.49838   0.79774   0.00000  Uiso   1.00
H310   H     0.68817   0.49877   0.57486   0.00000  Uiso   1.00
H311   H     0.75616   0.65029   0.73208   0.00000  Uiso   1.00
H312   H     0.52286   0.46259   0.92320   0.00000  Uiso   1.00
H313   H     0.75560   0.46342   0.45323   0.00000  Uiso   1.00
O314   O     0.89570   0.67739   0.78254   0.00000  Uiso   1.00
O315   O     0.58963   0.43114   0.03328   0.00000  Uiso   1.00
O316   O     0.89497   0.43223   0.41668   0.00000  Uiso   1.00
N317   N     0.92834   0.62395   0.79371   0.00000  Uiso   1.00
N318   N     0.71022   0.44846   0.97241   0.00000  Uiso   1.00
N319   N     0.92780   0.44923   0.53303   0.00000  Uiso   1.00
N320   N     0.80432   0.63669   0.74924   0.00000  Uiso   1.00
N321   N     0.58620   0.46121   0.92794   0.00000  Uiso   1.00
N322   N     0.80378   0.46198   0.48856   0.00000  Uiso   1.00
C323   C     0.86639   0.00611   0.27027   0.00000  Uiso   1.00
C324   C     0.85316   0.04170   0.26585   0.00000  Uiso   1.00
C325   C     0.91112   0.06452   0.28691   0.00000  Uiso   1.00
C326   C     0.88703   0.09582   0.27857   0.00000  Uiso   1.00
C327   C     0.87852   0.14984   0.27606   0.00000  Uiso   1.00
C328   C     0.79305   0.99334   0.31511   0.00000  Uiso   1.00
C329   C     0.80046   0.97550   0.37759   0.00000  Uiso   1.00
C330   C     0.72576   0.96608   0.41069   0.00000  Uiso   1.00
C331   C     0.62392   0.94501   0.48464   0.00000  Uiso   1.00
C332   C     0.85302   0.99355   0.19402   0.00000  Uiso   1.00
C333   C     0.91084   0.97589   0.15468   0.00000  Uiso   1.00
C334   C     0.88662   0.96665   0.08584   0.00000  Uiso   1.00
C335   C     0.87790   0.94591   0.97176   0.00000  Uiso   1.00
C336   C     0.72055   0.02109   0.21798   0.00000  Uiso   1.00
C337   C     0.77394   0.04984   0.23745   0.00000  Uiso   1.00
C338   C     0.74976   0.08110   0.22906   0.00000  Uiso   1.00
C339   C     0.80767   0.10397   0.25011   0.00000  Uiso   1.00
C340   C     0.71383   0.00148   0.28671   0.00000  Uiso   1.00
C341   C     0.63910   0.99208   0.31973   0.00000  Uiso   1.00
C342   C     0.64639   0.97423   0.38224   0.00000  Uiso   1.00
C343   C     0.77380   0.00169   0.16561   0.00000  Uiso   1.00
C344   C     0.74948   0.99247   0.09682   0.00000  Uiso   1.00
C345   C     0.80726   0.97480   0.05739   0.00000  Uiso   1.00
H346   H     0.92806   0.99977   0.29238   0.00000  Uiso   1.00
H347   H     0.97242   0.05821   0.30890   0.00000  Uiso   1.00
H348   H     0.86177   0.96920   0.39955   0.00000  Uiso   1.00
H349   H     0.97214   0.96960   0.17667   0.00000  Uiso   1.00
H350   H     0.98664   0.12660   0.31471   0.00000  Uiso   1.00
H351   H     0.75334   0.93890   0.50583   0.00000  Uiso   1.00
H352   H     0.98608   0.93973   0.03586   0.00000  Uiso   1.00
H353   H     0.65887   0.02743   0.19587   0.00000  Uiso   1.00
H354   H     0.68845   0.08739   0.20709   0.00000  Uiso   1.00
H355   H     0.57780   0.99838   0.29774   0.00000  Uiso   1.00
H356   H     0.68817   0.99877   0.07486   0.00000  Uiso   1.00
H357   H     0.75616   0.15029   0.23208   0.00000  Uiso   1.00
H358   H     0.52286   0.96259   0.42320   0.00000  Uiso   1.00
H359   H     0.75560   0.96342   0.95323   0.00000  Uiso   1.00
O360   O     0.89570   0.17739   0.28254   0.00000  Uiso   1.00
O361   O     0.58963   0.93114   0.53328   0.00000  Uiso   1.00
O362   O     0.89497   0.93223   0.91668   0.00000  Uiso   1.00
N363   N     0.92834   0.12395   0.29371   0.00000  Uiso   1.00
N364   N     0.71022   0.94846   0.47241   0.00000  Uiso   1.00
N365   N     0.92780   0.94923   0.03303   0.00000  Uiso   1.00
N366   N     0.80432   0.13669   0.24924   0.00000  Uiso   1.00
N367   N     0.58620   0.96121   0.42794   0.00000  Uiso   1.00
N368   N     0.80378   0.96198   0.98856   0.00000  Uiso   1.00
C369   C     0.88361   0.75611   0.52027   0.00000  Uiso   1.00
C370   C     0.89684   0.79170   0.51585   0.00000  Uiso   1.00
C371   C     0.83888   0.81452   0.53691   0.00000  Uiso   1.00
C372   C     0.86297   0.84582   0.52857   0.00000  Uiso   1.00
C373   C     0.87148   0.89984   0.52606   0.00000  Uiso   1.00
C374   C     0.95695   0.74334   0.56511   0.00000  Uiso   1.00
C375   C     0.94954   0.72550   0.62759   0.00000  Uiso   1.00
C376   C     0.02424   0.71608   0.66069   0.00000  Uiso   1.00
C377   C     0.12608   0.69501   0.73464   0.00000  Uiso   1.00
C378   C     0.89698   0.74355   0.44402   0.00000  Uiso   1.00
C379   C     0.83916   0.72589   0.40468   0.00000  Uiso   1.00
C380   C     0.86338   0.71665   0.33584   0.00000  Uiso   1.00
C381   C     0.87210   0.69591   0.22176   0.00000  Uiso   1.00
C382   C     0.02945   0.77109   0.46798   0.00000  Uiso   1.00
C383   C     0.97606   0.79984   0.48745   0.00000  Uiso   1.00
C384   C     0.00024   0.83110   0.47906   0.00000  Uiso   1.00
C385   C     0.94233   0.85397   0.50011   0.00000  Uiso   1.00
C386   C     0.03617   0.75148   0.53671   0.00000  Uiso   1.00
C387   C     0.11090   0.74208   0.56973   0.00000  Uiso   1.00
C388   C     0.10361   0.72423   0.63224   0.00000  Uiso   1.00
C389   C     0.97620   0.75169   0.41561   0.00000  Uiso   1.00
C390   C     0.00052   0.74247   0.34682   0.00000  Uiso   1.00
C391   C     0.94274   0.72480   0.30739   0.00000  Uiso   1.00
H392   H     0.82194   0.74977   0.54238   0.00000  Uiso   1.00
H393   H     0.77758   0.80821   0.55890   0.00000  Uiso   1.00
H394   H     0.88823   0.71920   0.64955   0.00000  Uiso   1.00
H395   H     0.77786   0.71960   0.42667   0.00000  Uiso   1.00
H396   H     0.76336   0.87660   0.56471   0.00000  Uiso   1.00
H397   H     0.99666   0.68890   0.75583   0.00000  Uiso   1.00
H398   H     0.76392   0.68973   0.28586   0.00000  Uiso   1.00
H399   H     0.09113   0.77743   0.44587   0.00000  Uiso   1.00
H400   H     0.06155   0.83739   0.45709   0.00000  Uiso   1.00
H401   H     0.17220   0.74838   0.54774   0.00000  Uiso   1.00
H402   H     0.06183   0.74877   0.32486   0.00000  Uiso   1.00
H403   H     0.99384   0.90029   0.48208   0.00000  Uiso   1.00
H404   H     0.22714   0.71259   0.67320   0.00000  Uiso   1.00
H405   H     0.99440   0.71342   0.20323   0.00000  Uiso   1.00
O406   O     0.85430   0.92739   0.53254   0.00000  Uiso   1.00
O407   O     0.16037   0.68114   0.78328   0.00000  Uiso   1.00
O408   O     0.85503   0.68223   0.16668   0.00000  Uiso   1.00
N409   N     0.82166   0.87395   0.54371   0.00000  Uiso   1.00
N410   N     0.03978   0.69846   0.72241   0.00000  Uiso   1.00
N411   N     0.82220   0.69923   0.28303   0.00000  Uiso   1.00
N412   N     0.94568   0.88669   0.49924   0.00000  Uiso   1.00
N413   N     0.16380   0.71121   0.67794   0.00000  Uiso   1.00
N414   N     0.94622   0.71198   0.23856   0.00000  Uiso   1.00
C415   C     0.88361   0.25611   0.02027   0.00000  Uiso   1.00
C416   C     0.89684   0.29170   0.01585   0.00000  Uiso   1.00
C417   C     0.83888   0.31452   0.03691   0.00000  Uiso   1.00
C418   C     0.86297   0.34582   0.02857   0.00000  Uiso   1.00
C419   C     0.87148   0.39984   0.02606   0.00000  Uiso   1.00
C420   C     0.95695   0.24334   0.06511   0.00000  Uiso   1.00
C421   C     0.94954   0.22550   0.12759   0.00000  Uiso   1.00
C422   C     0.02424   0.21608   0.16069   0.00000  Uiso   1.00
C423   C     0.12608   0.19501   0.23464   0.00000  Uiso   1.00
C424   C     0.89698   0.24355   0.94402   0.00000  Uiso   1.00
C425   C     0.83916   0.22589   0.90468   0.00000  Uiso   1.00
C426   C     0.86338   0.21665   0.83584   0.00000  Uiso   1.00
C427   C     0.87210   0.19591   0.72176   0.00000  Uiso   1.00
C428   C     0.02945   0.27109   0.96798   0.00000  Uiso   1.00
C429   C     0.97606   0.29984   0.98745   0.00000  Uiso   1.00
C430   C     0.00024   0.33110   0.97906   0.00000  Uiso   1.00
C431   C     0.94233   0.35397   0.00011   0.00000  Uiso   1.00
C432   C     0.03617   0.25148   0.03671   0.00000  Uiso   1.00
C433   C     0.11090   0.24208   0.06973   0.00000  Uiso   1.00
C434   C     0.10361   0.22423   0.13224   0.00000  Uiso   1.00
C435   C     0.97620   0.25169   0.91561   0.00000  Uiso   1.00
C436   C     0.00052   0.24247   0.84682   0.00000  Uiso   1.00
C437   C     0.94274   0.22480   0.80739   0.00000  Uiso   1.00
H438   H     0.82194   0.24977   0.04238   0.00000  Uiso   1.00
H439   H     0.77758   0.30821   0.05890   0.00000  Uiso   1.00
H440   H     0.88823   0.21920   0.14955   0.00000  Uiso   1.00
H441   H     0.77786   0.21960   0.92667   0.00000  Uiso   1.00
H442   H     0.76336   0.37660   0.06471   0.00000  Uiso   1.00
H443   H     0.99666   0.18890   0.25583   0.00000  Uiso   1.00
H444   H     0.76392   0.18973   0.78586   0.00000  Uiso   1.00
H445   H     0.09113   0.27743   0.94587   0.00000  Uiso   1.00
H446   H     0.06155   0.33739   0.95709   0.00000  Uiso   1.00
H447   H     0.17220   0.24838   0.04774   0.00000  Uiso   1.00
H448   H     0.06183   0.24877   0.82486   0.00000  Uiso   1.00
H449   H     0.99384   0.40029   0.98208   0.00000  Uiso   1.00
H450   H     0.22714   0.21259   0.17320   0.00000  Uiso   1.00
H451   H     0.99440   0.21342   0.70323   0.00000  Uiso   1.00
O452   O     0.85430   0.42739   0.03254   0.00000  Uiso   1.00
O453   O     0.16037   0.18114   0.28328   0.00000  Uiso   1.00
O454   O     0.85503   0.18223   0.66668   0.00000  Uiso   1.00
N455   N     0.82166   0.37395   0.04371   0.00000  Uiso   1.00
N456   N     0.03978   0.19846   0.22241   0.00000  Uiso   1.00
N457   N     0.82220   0.19923   0.78303   0.00000  Uiso   1.00
N458   N     0.94568   0.38669   0.99924   0.00000  Uiso   1.00
N459   N     0.16380   0.21121   0.17794   0.00000  Uiso   1.00
N460   N     0.94622   0.21198   0.73856   0.00000  Uiso   1.00
C461   C     0.38361   0.75611   0.02027   0.00000  Uiso   1.00
C462   C     0.39684   0.79170   0.01585   0.00000  Uiso   1.00
C463   C     0.33888   0.81452   0.03691   0.00000  Uiso   1.00
C464   C     0.36297   0.84582   0.02857   0.00000  Uiso   1.00
C465   C     0.37148   0.89984   0.02606   0.00000  Uiso   1.00
C466   C     0.45695   0.74334   0.06511   0.00000  Uiso   1.00
C467   C     0.44954   0.72550   0.12759   0.00000  Uiso   1.00
C468   C     0.52424   0.71608   0.16069   0.00000  Uiso   1.00
C469   C     0.62608   0.69501   0.23464   0.00000  Uiso   1.00
C470   C     0.39698   0.74355   0.94402   0.00000  Uiso   1.00
C471   C     0.33916   0.72589   0.90468   0.00000  Uiso   1.00
C472   C     0.36338   0.71665   0.83584   0.00000  Uiso   1.00
C473   C     0.37210   0.69591   0.72176   0.00000  Uiso   1.00
C474   C     0.52945   0.77109   0.96798   0.00000  Uiso   1.00
C475   C     0.47606   0.79984   0.98745   0.00000  Uiso   1.00
C476   C     0.50024   0.83110   0.97906   0.00000  Uiso   1.00
C477   C     0.44233   0.85397   0.00011   0.00000  Uiso   1.00
C478   C     0.53617   0.75148   0.03671   0.00000  Uiso   1.00
C479   C     0.61090   0.74208   0.06973   0.00000  Uiso   1.00
C480   C     0.60361   0.72423   0.13224   0.00000  Uiso   1.00
C481   C     0.47620   0.75169   0.91561   0.00000  Uiso   1.00
C482   C     0.50052   0.74247   0.84682   0.00000  Uiso   1.00
C483   C     0.44274   0.72480   0.80739   0.00000  Uiso   1.00
H484   H     0.32194   0.74977   0.04238   0.00000  Uiso   1.00
H485   H     0.27758   0.80821   0.05890   0.00000  Uiso   1.00
H486   H     0.38823   0.71920   0.14955   0.00000  Uiso   1.00
H487   H     0.27786   0.71960   0.92667   0.00000  Uiso   1.00
H488   H     0.26336   0.87660   0.06471   0.00000  Uiso   1.00
H489   H     0.49666   0.68890   0.25583   0.00000  Uiso   1.00
H490   H     0.26392   0.68973   0.78586   0.00000  Uiso   1.00
H491   H     0.59113   0.77743   0.94587   0.00000  Uiso   1.00
H492   H     0.56155   0.83739   0.95709   0.00000  Uiso   1.00
H493   H     0.67220   0.74838   0.04774   0.00000  Uiso   1.00
H494   H     0.56183   0.74877   0.82486   0.00000  Uiso   1.00
H495   H     0.49384   0.90029   0.98208   0.00000  Uiso   1.00
H496   H     0.72714   0.71259   0.17320   0.00000  Uiso   1.00
H497   H     0.49440   0.71342   0.70323   0.00000  Uiso   1.00
O498   O     0.35430   0.92739   0.03254   0.00000  Uiso   1.00
O499   O     0.66037   0.68114   0.28328   0.00000  Uiso   1.00
O500   O     0.35503   0.68223   0.66668   0.00000  Uiso   1.00
N501   N     0.32166   0.87395   0.04371   0.00000  Uiso   1.00
N502   N     0.53978   0.69846   0.22241   0.00000  Uiso   1.00
N503   N     0.32220   0.69923   0.78303   0.00000  Uiso   1.00
N504   N     0.44568   0.88669   0.99924   0.00000  Uiso   1.00
N505   N     0.66380   0.71121   0.17794   0.00000  Uiso   1.00
N506   N     0.44622   0.71198   0.73856   0.00000  Uiso   1.00
C507   C     0.38361   0.25611   0.52027   0.00000  Uiso   1.00
C508   C     0.39684   0.29170   0.51585   0.00000  Uiso   1.00
C509   C     0.33888   0.31452   0.53691   0.00000  Uiso   1.00
C510   C     0.36297   0.34582   0.52857   0.00000  Uiso   1.00
C511   C     0.37148   0.39984   0.52606   0.00000  Uiso   1.00
C512   C     0.45695   0.24334   0.56511   0.00000  Uiso   1.00
C513   C     0.44954   0.22550   0.62759   0.00000  Uiso   1.00
C514   C     0.52424   0.21608   0.66069   0.00000  Uiso   1.00
C515   C     0.62608   0.19501   0.73464   0.00000  Uiso   1.00
C516   C     0.39698   0.24355   0.44402   0.00000  Uiso   1.00
C517   C     0.33916   0.22589   0.40468   0.00000  Uiso   1.00
C518   C     0.36338   0.21665   0.33584   0.00000  Uiso   1.00
C519   C     0.37210   0.19591   0.22176   0.00000  Uiso   1.00
C520   C     0.52945   0.27109   0.46798   0.00000  Uiso   1.00
C521   C     0.47606   0.29984   0.48745   0.00000  Uiso   1.00
C522   C     0.50024   0.33110   0.47906   0.00000  Uiso   1.00
C523   C     0.44233   0.35397   0.50011   0.00000  Uiso   1.00
C524   C     0.53617   0.25148   0.53671   0.00000  Uiso   1.00
C525   C     0.61090   0.24208   0.56973   0.00000  Uiso   1.00
C526   C     0.60361   0.22423   0.63224   0.00000  Uiso   1.00
C527   C     0.47620   0.25169   0.41561   0.00000  Uiso   1.00
C528   C     0.50052   0.24247   0.34682   0.00000  Uiso   1.00
C529   C     0.44274   0.22480   0.30739   0.00000  Uiso   1.00
H530   H     0.32194   0.24977   0.54238   0.00000  Uiso   1.00
H531   H     0.27758   0.30821   0.55890   0.00000  Uiso   1.00
H532   H     0.38823   0.21920   0.64955   0.00000  Uiso   1.00
H533   H     0.27786   0.21960   0.42667   0.00000  Uiso   1.00
H534   H     0.26336   0.37660   0.56471   0.00000  Uiso   1.00
H535   H     0.49666   0.18890   0.75583   0.00000  Uiso   1.00
H536   H     0.26392   0.18973   0.28586   0.00000  Uiso   1.00
H537   H     0.59113   0.27743   0.44587   0.00000  Uiso   1.00
H538   H     0.56155   0.33739   0.45709   0.00000  Uiso   1.00
H539   H     0.67220   0.24838   0.54774   0.00000  Uiso   1.00
H540   H     0.56183   0.24877   0.32486   0.00000  Uiso   1.00
H541   H     0.49384   0.40029   0.48208   0.00000  Uiso   1.00
H542   H     0.72714   0.21259   0.67320   0.00000  Uiso   1.00
H543   H     0.49440   0.21342   0.20323   0.00000  Uiso   1.00
O544   O     0.35430   0.42739   0.53254   0.00000  Uiso   1.00
O545   O     0.66037   0.18114   0.78328   0.00000  Uiso   1.00
O546   O     0.35503   0.18223   0.16668   0.00000  Uiso   1.00
N547   N     0.32166   0.37395   0.54371   0.00000  Uiso   1.00
N548   N     0.53978   0.19846   0.72241   0.00000  Uiso   1.00
N549   N     0.32220   0.19923   0.28303   0.00000  Uiso   1.00
N550   N     0.44568   0.38669   0.49924   0.00000  Uiso   1.00
N551   N     0.66380   0.21121   0.67794   0.00000  Uiso   1.00
N552   N     0.44622   0.21198   0.23856   0.00000  Uiso   1.00
C553   C     0.61639   0.74389   0.52027   0.00000  Uiso   1.00
C554   C     0.60316   0.70830   0.51585   0.00000  Uiso   1.00
C555   C     0.66112   0.68548   0.53691   0.00000  Uiso   1.00
C556   C     0.63703   0.65418   0.52857   0.00000  Uiso   1.00
C557   C     0.62852   0.60016   0.52606   0.00000  Uiso   1.00
C558   C     0.54305   0.75666   0.56511   0.00000  Uiso   1.00
C559   C     0.55046   0.77450   0.62759   0.00000  Uiso   1.00
C560   C     0.47576   0.78392   0.66069   0.00000  Uiso   1.00
C561   C     0.37392   0.80499   0.73464   0.00000  Uiso   1.00
C562   C     0.60302   0.75645   0.44402   0.00000  Uiso   1.00
C563   C     0.66084   0.77411   0.40468   0.00000  Uiso   1.00
C564   C     0.63662   0.78335   0.33584   0.00000  Uiso   1.00
C565   C     0.62790   0.80409   0.22176   0.00000  Uiso   1.00
C566   C     0.47055   0.72891   0.46798   0.00000  Uiso   1.00
C567   C     0.52394   0.70016   0.48745   0.00000  Uiso   1.00
C568   C     0.49976   0.66890   0.47906   0.00000  Uiso   1.00
C569   C     0.55767   0.64603   0.50011   0.00000  Uiso   1.00
C570   C     0.46383   0.74852   0.53671   0.00000  Uiso   1.00
C571   C     0.38910   0.75792   0.56973   0.00000  Uiso   1.00
C572   C     0.39639   0.77577   0.63224   0.00000  Uiso   1.00
C573   C     0.52380   0.74831   0.41561   0.00000  Uiso   1.00
C574   C     0.49948   0.75753   0.34682   0.00000  Uiso   1.00
C575   C     0.55726   0.77520   0.30739   0.00000  Uiso   1.00
H576   H     0.67806   0.75023   0.54238   0.00000  Uiso   1.00
H577   H     0.72242   0.69179   0.55890   0.00000  Uiso   1.00
H578   H     0.61177   0.78080   0.64955   0.00000  Uiso   1.00
H579   H     0.72214   0.78040   0.42667   0.00000  Uiso   1.00
H580   H     0.73664   0.62340   0.56471   0.00000  Uiso   1.00
H581   H     0.50334   0.81110   0.75583   0.00000  Uiso   1.00
H582   H     0.73608   0.81027   0.28586   0.00000  Uiso   1.00
H583   H     0.40887   0.72257   0.44587   0.00000  Uiso   1.00
H584   H     0.43845   0.66261   0.45709   0.00000  Uiso   1.00
H585   H     0.32780   0.75162   0.54774   0.00000  Uiso   1.00
H586   H     0.43817   0.75123   0.32486   0.00000  Uiso   1.00
H587   H     0.50616   0.59971   0.48208   0.00000  Uiso   1.00
H588   H     0.27286   0.78741   0.67320   0.00000  Uiso   1.00
H589   H     0.50560   0.78658   0.20323   0.00000  Uiso   1.00
O590   O     0.64570   0.57261   0.53254   0.00000  Uiso   1.00
O591   O     0.33963   0.81886   0.78328   0.00000  Uiso   1.00
O592   O     0.64497   0.81777   0.16668   0.00000  Uiso   1.00
N593   N     0.67834   0.62605   0.54371   0.00000  Uiso   1.00
N594   N     0.46022   0.80154   0.72241   0.00000  Uiso   1.00
N595   N     0.67780   0.80077   0.28303   0.00000  Uiso   1.00
N596   N     0.55432   0.61331   0.49924   0.00000  Uiso   1.00
N597   N     0.33620   0.78879   0.67794   0.00000  Uiso   1.00
N598   N     0.55378   0.78802   0.23856   0.00000  Uiso   1.00
C599   C     0.61639   0.24389   0.02027   0.00000  Uiso   1.00
C600   C     0.60316   0.20830   0.01585   0.00000  Uiso   1.00
C601   C     0.66112   0.18548   0.03691   0.00000  Uiso   1.00
C602   C     0.63703   0.15418   0.02857   0.00000  Uiso   1.00
C603   C     0.62852   0.10016   0.02606   0.00000  Uiso   1.00
C604   C     0.54305   0.25666   0.06511   0.00000  Uiso   1.00
C605   C     0.55046   0.27450   0.12759   0.00000  Uiso   1.00
C606   C     0.47576   0.28392   0.16069   0.00000  Uiso   1.00
C607   C     0.37392   0.30499   0.23464   0.00000  Uiso   1.00
C608   C     0.60302   0.25645   0.94402   0.00000  Uiso   1.00
C609   C     0.66084   0.27411   0.90468   0.00000  Uiso   1.00
C610   C     0.63662   0.28335   0.83584   0.00000  Uiso   1.00
C611   C     0.62790   0.30409   0.72176   0.00000  Uiso   1.00
C612   C     0.47055   0.22891   0.96798   0.00000  Uiso   1.00
C613   C     0.52394   0.20016   0.98745   0.00000  Uiso   1.00
C614   C     0.49976   0.16890   0.97906   0.00000  Uiso   1.00
C615   C     0.55767   0.14603   0.00011   0.00000  Uiso   1.00
C616   C     0.46383   0.24852   0.03671   0.00000  Uiso   1.00
C617   C     0.38910   0.25792   0.06973   0.00000  Uiso   1.00
C618   C     0.39639   0.27577   0.13224   0.00000  Uiso   1.00
C619   C     0.52380   0.24831   0.91561   0.00000  Uiso   1.00
C620   C     0.49948   0.25753   0.84682   0.00000  Uiso   1.00
C621   C     0.55726   0.27520   0.80739   0.00000  Uiso   1.00
H622   H     0.67806   0.25023   0.04238   0.00000  Uiso   1.00
H623   H     0.72242   0.19179   0.05890   0.00000  Uiso   1.00
H624   H     0.61177   0.28080   0.14955   0.00000  Uiso   1.00
H625   H     0.72214   0.28040   0.92667   0.00000  Uiso   1.00
H626   H     0.73664   0.12340   0.06471   0.00000  Uiso   1.00
H627   H     0.50334   0.31110   0.25583   0.00000  Uiso   1.00
H628   H     0.73608   0.31027   0.78586   0.00000  Uiso   1.00
H629   H     0.40887   0.22257   0.94587   0.00000  Uiso   1.00
H630   H     0.43845   0.16261   0.95709   0.00000  Uiso   1.00
H631   H     0.32780   0.25162   0.04774   0.00000  Uiso   1.00
H632   H     0.43817   0.25123   0.82486   0.00000  Uiso   1.00
H633   H     0.50616   0.09971   0.98208   0.00000  Uiso   1.00
H634   H     0.27286   0.28741   0.17320   0.00000  Uiso   1.00
H635   H     0.50560   0.28658   0.70323   0.00000  Uiso   1.00
O636   O     0.64570   0.07261   0.03254   0.00000  Uiso   1.00
O637   O     0.33963   0.31886   0.28328   0.00000  Uiso   1.00
O638   O     0.64497   0.31777   0.66668   0.00000  Uiso   1.00
N639   N     0.67834   0.12605   0.04371   0.00000  Uiso   1.00
N640   N     0.46022   0.30154   0.22241   0.00000  Uiso   1.00
N641   N     0.67780   0.30077   0.78303   0.00000  Uiso   1.00
N642   N     0.55432   0.11331   0.99924   0.00000  Uiso   1.00
N643   N     0.33620   0.28879   0.17794   0.00000  Uiso   1.00
N644   N     0.55378   0.28802   0.73856   0.00000  Uiso   1.00
C645   C     0.11639   0.74389   0.02027   0.00000  Uiso   1.00
C646   C     0.10316   0.70830   0.01585   0.00000  Uiso   1.00
C647   C     0.16112   0.68548   0.03691   0.00000  Uiso   1.00
C648   C     0.13703   0.65418   0.02857   0.00000  Uiso   1.00
C649   C     0.12852   0.60016   0.02606   0.00000  Uiso   1.00
C650   C     0.04305   0.75666   0.06511   0.00000  Uiso   1.00
C651   C     0.05046   0.77450   0.12759   0.00000  Uiso   1.00
C652   C     0.97576   0.78392   0.16069   0.00000  Uiso   1.00
C653   C     0.87392   0.80499   0.23464   0.00000  Uiso   1.00
C654   C     0.10302   0.75645   0.94402   0.00000  Uiso   1.00
C655   C     0.16084   0.77411   0.90468   0.00000  Uiso   1.00
C656   C     0.13662   0.78335   0.83584   0.00000  Uiso   1.00
C657   C     0.12790   0.80409   0.72176   0.00000  Uiso   1.00
C658   C     0.97055   0.72891   0.96798   0.00000  Uiso   1.00
C659   C     0.02394   0.70016   0.98745   0.00000  Uiso   1.00
C660   C     0.99976   0.66890   0.97906   0.00000  Uiso   1.00
C661   C     0.05767   0.64603   0.00011   0.00000  Uiso   1.00
C662   C     0.96383   0.74852   0.03671   0.00000  Uiso   1.00
C663   C     0.88910   0.75792   0.06973   0.00000  Uiso   1.00
C664   C     0.89639   0.77577   0.13224   0.00000  Uiso   1.00
C665   C     0.02380   0.74831   0.91561   0.00000  Uiso   1.00
C666   C     0.99948   0.75753   0.84682   0.00000  Uiso   1.00
C667   C     0.05726   0.77520   0.80739   0.00000  Uiso   1.00
H668   H     0.17806   0.75023   0.04238   0.00000  Uiso   1.00
H669   H     0.22242   0.69179   0.05890   0.00000  Uiso   1.00
H670   H     0.11177   0.78080   0.14955   0.00000  Uiso   1.00
H671   H     0.22214   0.78040   0.92667   0.00000  Uiso   1.00
H672   H     0.23664   0.62340   0.06471   0.00000  Uiso   1.00
H673   H     0.00334   0.81110   0.25583   0.00000  Uiso   1.00
H674   H     0.23608   0.81027   0.78586   0.00000  Uiso   1.00
H675   H     0.90887   0.72257   0.94587   0.00000  Uiso   1.00
H676   H     0.93845   0.66261   0.95709   0.00000  Uiso   1.00
H677   H     0.82780   0.75162   0.04774   0.00000  Uiso   1.00
H678   H     0.93817   0.75123   0.82486   0.00000  Uiso   1.00
H679   H     0.00616   0.59971   0.98208   0.00000  Uiso   1.00
H680   H     0.77286   0.78741   0.17320   0.00000  Uiso   1.00
H681   H     0.00560   0.78658   0.70323   0.00000  Uiso   1.00
O682   O     0.14570   0.57261   0.03254   0.00000  Uiso   1.00
O683   O     0.83963   0.81886   0.28328   0.00000  Uiso   1.00
O684   O     0.14497   0.81777   0.66668   0.00000  Uiso   1.00
N685   N     0.17834   0.62605   0.04371   0.00000  Uiso   1.00
N686   N     0.96022   0.80154   0.22241   0.00000  Uiso   1.00
N687   N     0.17780   0.80077   0.78303   0.00000  Uiso   1.00
N688   N     0.05432   0.61331   0.99924   0.00000  Uiso   1.00
N689   N     0.83620   0.78879   0.17794   0.00000  Uiso   1.00
N690   N     0.05378   0.78802   0.73856   0.00000  Uiso   1.00
C691   C     0.11639   0.24389   0.52027   0.00000  Uiso   1.00
C692   C     0.10316   0.20830   0.51585   0.00000  Uiso   1.00
C693   C     0.16112   0.18548   0.53691   0.00000  Uiso   1.00
C694   C     0.13703   0.15418   0.52857   0.00000  Uiso   1.00
C695   C     0.12852   0.10016   0.52606   0.00000  Uiso   1.00
C696   C     0.04305   0.25666   0.56511   0.00000  Uiso   1.00
C697   C     0.05046   0.27450   0.62759   0.00000  Uiso   1.00
C698   C     0.97576   0.28392   0.66069   0.00000  Uiso   1.00
C699   C     0.87392   0.30499   0.73464   0.00000  Uiso   1.00
C700   C     0.10302   0.25645   0.44402   0.00000  Uiso   1.00
C701   C     0.16084   0.27411   0.40468   0.00000  Uiso   1.00
C702   C     0.13662   0.28335   0.33584   0.00000  Uiso   1.00
C703   C     0.12790   0.30409   0.22176   0.00000  Uiso   1.00
C704   C     0.97055   0.22891   0.46798   0.00000  Uiso   1.00
C705   C     0.02394   0.20016   0.48745   0.00000  Uiso   1.00
C706   C     0.99976   0.16890   0.47906   0.00000  Uiso   1.00
C707   C     0.05767   0.14603   0.50011   0.00000  Uiso   1.00
C708   C     0.96383   0.24852   0.53671   0.00000  Uiso   1.00
C709   C     0.88910   0.25792   0.56973   0.00000  Uiso   1.00
C710   C     0.89639   0.27577   0.63224   0.00000  Uiso   1.00
C711   C     0.02380   0.24831   0.41561   0.00000  Uiso   1.00
C712   C     0.99948   0.25753   0.34682   0.00000  Uiso   1.00
C713   C     0.05726   0.27520   0.30739   0.00000  Uiso   1.00
H714   H     0.17806   0.25023   0.54238   0.00000  Uiso   1.00
H715   H     0.22242   0.19179   0.55890   0.00000  Uiso   1.00
H716   H     0.11177   0.28080   0.64955   0.00000  Uiso   1.00
H717   H     0.22214   0.28040   0.42667   0.00000  Uiso   1.00
H718   H     0.23664   0.12340   0.56471   0.00000  Uiso   1.00
H719   H     0.00334   0.31110   0.75583   0.00000  Uiso   1.00
H720   H     0.23608   0.31027   0.28586   0.00000  Uiso   1.00
H721   H     0.90887   0.22257   0.44587   0.00000  Uiso   1.00
H722   H     0.93845   0.16261   0.45709   0.00000  Uiso   1.00
H723   H     0.82780   0.25162   0.54774   0.00000  Uiso   1.00
H724   H     0.93817   0.25123   0.32486   0.00000  Uiso   1.00
H725   H     0.00616   0.09971   0.48208   0.00000  Uiso   1.00
H726   H     0.77286   0.28741   0.67320   0.00000  Uiso   1.00
H727   H     0.00560   0.28658   0.20323   0.00000  Uiso   1.00
O728   O     0.14570   0.07261   0.53254   0.00000  Uiso   1.00
O729   O     0.83963   0.31886   0.78328   0.00000  Uiso   1.00
O730   O     0.14497   0.31777   0.16668   0.00000  Uiso   1.00
N731   N     0.17834   0.12605   0.54371   0.00000  Uiso   1.00
N732   N     0.96022   0.30154   0.72241   0.00000  Uiso   1.00
N733   N     0.17780   0.30077   0.28303   0.00000  Uiso   1.00
N734   N     0.05432   0.11331   0.49924   0.00000  Uiso   1.00
N735   N     0.83620   0.28879   0.67794   0.00000  Uiso   1.00
N736   N     0.05378   0.28802   0.23856   0.00000  Uiso   1.00
