data_job_05380
_audit_creation_date              2018-12-19
_audit_creation_method            'Materials Studio'
_symmetry_space_group_name_H-M    'P1'
_symmetry_Int_Tables_number       1
_symmetry_cell_setting            triclinic
loop_
_symmetry_equiv_pos_as_xyz
  x,y,z
_cell_length_a                    20.6817
_cell_length_b                    20.6817
_cell_length_c                    28.6134
_cell_angle_alpha                 90.0000
_cell_angle_beta                  90.0000
_cell_angle_gamma                 90.0000
loop_
_atom_site_label
_atom_site_type_symbol
_atom_site_fract_x
_atom_site_fract_y
_atom_site_fract_z
_atom_site_U_iso_or_equiv
_atom_site_adp_type
_atom_site_occupancy
C1     C     0.32270   0.70462   0.23921   0.00000  Uiso   1.00
C2     C     0.36862   0.75370   0.21728   0.00000  Uiso   1.00
C3     C     0.40516   0.79902   0.24140   0.00000  Uiso   1.00
C4     C     0.44419   0.83958   0.21496   0.00000  Uiso   1.00
C5     C     0.51510   0.91650   0.18833   0.00000  Uiso   1.00
C6     C     0.25706   0.71589   0.21635   0.00000  Uiso   1.00
C7     C     0.19980   0.72941   0.23968   0.00000  Uiso   1.00
C8     C     0.14492   0.73813   0.21245   0.00000  Uiso   1.00
C9     C     0.04263   0.75631   0.18438   0.00000  Uiso   1.00
C10    C     0.34540   0.63842   0.22243   0.00000  Uiso   1.00
C11    C     0.36241   0.58680   0.25088   0.00000  Uiso   1.00
C12    C     0.38189   0.53030   0.22877   0.00000  Uiso   1.00
C13    C     0.41676   0.42821   0.21014   0.00000  Uiso   1.00
C14    C     0.32704   0.69606   0.14937   0.00000  Uiso   1.00
C15    C     0.37097   0.74905   0.16848   0.00000  Uiso   1.00
C16    C     0.40996   0.78955   0.14200   0.00000  Uiso   1.00
C17    C     0.44655   0.83492   0.16607   0.00000  Uiso   1.00
C18    C     0.25941   0.71124   0.16755   0.00000  Uiso   1.00
C19    C     0.20460   0.71994   0.14028   0.00000  Uiso   1.00
C20    C     0.14728   0.73348   0.16357   0.00000  Uiso   1.00
C21    C     0.34776   0.63377   0.17363   0.00000  Uiso   1.00
C22    C     0.36721   0.57734   0.15148   0.00000  Uiso   1.00
C23    C     0.38425   0.52565   0.17989   0.00000  Uiso   1.00
H24    H     0.32087   0.70824   0.27720   0.00000  Uiso   1.00
H25    H     0.40332   0.80260   0.27916   0.00000  Uiso   1.00
H26    H     0.19800   0.73300   0.27744   0.00000  Uiso   1.00
H27    H     0.36058   0.59042   0.28864   0.00000  Uiso   1.00
H28    H     0.49576   0.90518   0.25981   0.00000  Uiso   1.00
H29    H     0.06282   0.75840   0.25620   0.00000  Uiso   1.00
H30    H     0.40566   0.45774   0.27980   0.00000  Uiso   1.00
H31    H     0.32887   0.69245   0.11137   0.00000  Uiso   1.00
H32    H     0.41177   0.78594   0.10423   0.00000  Uiso   1.00
H33    H     0.20644   0.71634   0.10252   0.00000  Uiso   1.00
H34    H     0.36903   0.57376   0.11371   0.00000  Uiso   1.00
H35    H     0.50261   0.89166   0.11784   0.00000  Uiso   1.00
H36    H     0.06967   0.74487   0.11422   0.00000  Uiso   1.00
H37    H     0.41251   0.44422   0.13783   0.00000  Uiso   1.00
O38    O     0.55355   0.96023   0.18712   0.00000  Uiso   1.00
O39    O     0.98555   0.76764   0.18238   0.00000  Uiso   1.00
O40    O     0.43535   0.37319   0.21335   0.00000  Uiso   1.00
N41    N     0.48600   0.88916   0.22738   0.00000  Uiso   1.00
N42    N     0.08123   0.75194   0.22400   0.00000  Uiso   1.00
N43    N     0.40174   0.47084   0.24607   0.00000  Uiso   1.00
N44    N     0.48969   0.88189   0.15098   0.00000  Uiso   1.00
N45    N     0.08492   0.74466   0.14760   0.00000  Uiso   1.00
N46    N     0.40543   0.46357   0.16967   0.00000  Uiso   1.00
C47    C     0.82270   0.20462   0.73921   0.00000  Uiso   1.00
C48    C     0.86862   0.25370   0.71728   0.00000  Uiso   1.00
C49    C     0.90516   0.29902   0.74140   0.00000  Uiso   1.00
C50    C     0.94419   0.33958   0.71496   0.00000  Uiso   1.00
C51    C     0.01510   0.41650   0.68833   0.00000  Uiso   1.00
C52    C     0.75706   0.21589   0.71635   0.00000  Uiso   1.00
C53    C     0.69980   0.22941   0.73968   0.00000  Uiso   1.00
C54    C     0.64492   0.23813   0.71245   0.00000  Uiso   1.00
C55    C     0.54263   0.25631   0.68438   0.00000  Uiso   1.00
C56    C     0.84540   0.13842   0.72243   0.00000  Uiso   1.00
C57    C     0.86241   0.08680   0.75088   0.00000  Uiso   1.00
C58    C     0.88189   0.03030   0.72877   0.00000  Uiso   1.00
C59    C     0.91676   0.92821   0.71014   0.00000  Uiso   1.00
C60    C     0.82704   0.19606   0.64937   0.00000  Uiso   1.00
C61    C     0.87097   0.24905   0.66848   0.00000  Uiso   1.00
C62    C     0.90996   0.28955   0.64200   0.00000  Uiso   1.00
C63    C     0.94655   0.33492   0.66607   0.00000  Uiso   1.00
C64    C     0.75941   0.21124   0.66755   0.00000  Uiso   1.00
C65    C     0.70460   0.21994   0.64028   0.00000  Uiso   1.00
C66    C     0.64728   0.23348   0.66357   0.00000  Uiso   1.00
C67    C     0.84776   0.13377   0.67363   0.00000  Uiso   1.00
C68    C     0.86721   0.07734   0.65148   0.00000  Uiso   1.00
C69    C     0.88425   0.02565   0.67989   0.00000  Uiso   1.00
H70    H     0.82087   0.20824   0.77720   0.00000  Uiso   1.00
H71    H     0.90332   0.30260   0.77916   0.00000  Uiso   1.00
H72    H     0.69800   0.23300   0.77744   0.00000  Uiso   1.00
H73    H     0.86058   0.09042   0.78864   0.00000  Uiso   1.00
H74    H     0.99576   0.40518   0.75981   0.00000  Uiso   1.00
H75    H     0.56282   0.25840   0.75620   0.00000  Uiso   1.00
H76    H     0.90566   0.95774   0.77980   0.00000  Uiso   1.00
H77    H     0.82887   0.19245   0.61137   0.00000  Uiso   1.00
H78    H     0.91177   0.28594   0.60423   0.00000  Uiso   1.00
H79    H     0.70644   0.21634   0.60252   0.00000  Uiso   1.00
H80    H     0.86903   0.07376   0.61371   0.00000  Uiso   1.00
H81    H     0.00261   0.39166   0.61784   0.00000  Uiso   1.00
H82    H     0.56967   0.24487   0.61422   0.00000  Uiso   1.00
H83    H     0.91251   0.94422   0.63783   0.00000  Uiso   1.00
O84    O     0.05355   0.46023   0.68712   0.00000  Uiso   1.00
O85    O     0.48555   0.26764   0.68238   0.00000  Uiso   1.00
O86    O     0.93535   0.87319   0.71335   0.00000  Uiso   1.00
N87    N     0.98600   0.38916   0.72738   0.00000  Uiso   1.00
N88    N     0.58123   0.25194   0.72400   0.00000  Uiso   1.00
N89    N     0.90174   0.97084   0.74607   0.00000  Uiso   1.00
N90    N     0.98969   0.38189   0.65098   0.00000  Uiso   1.00
N91    N     0.58492   0.24466   0.64760   0.00000  Uiso   1.00
N92    N     0.90543   0.96357   0.66967   0.00000  Uiso   1.00
C93    C     0.17730   0.79538   0.73921   0.00000  Uiso   1.00
C94    C     0.13138   0.74630   0.71728   0.00000  Uiso   1.00
C95    C     0.09484   0.70098   0.74140   0.00000  Uiso   1.00
C96    C     0.05581   0.66042   0.71496   0.00000  Uiso   1.00
C97    C     0.98490   0.58350   0.68833   0.00000  Uiso   1.00
C98    C     0.24294   0.78411   0.71635   0.00000  Uiso   1.00
C99    C     0.30020   0.77059   0.73968   0.00000  Uiso   1.00
C100   C     0.35508   0.76187   0.71245   0.00000  Uiso   1.00
C101   C     0.45737   0.74369   0.68438   0.00000  Uiso   1.00
C102   C     0.15460   0.86158   0.72243   0.00000  Uiso   1.00
C103   C     0.13759   0.91320   0.75088   0.00000  Uiso   1.00
C104   C     0.11811   0.96970   0.72877   0.00000  Uiso   1.00
C105   C     0.08324   0.07179   0.71014   0.00000  Uiso   1.00
C106   C     0.17296   0.80394   0.64937   0.00000  Uiso   1.00
C107   C     0.12903   0.75095   0.66848   0.00000  Uiso   1.00
C108   C     0.09004   0.71045   0.64200   0.00000  Uiso   1.00
C109   C     0.05345   0.66508   0.66607   0.00000  Uiso   1.00
C110   C     0.24059   0.78876   0.66755   0.00000  Uiso   1.00
C111   C     0.29540   0.78006   0.64028   0.00000  Uiso   1.00
C112   C     0.35272   0.76652   0.66357   0.00000  Uiso   1.00
C113   C     0.15224   0.86623   0.67363   0.00000  Uiso   1.00
C114   C     0.13279   0.92266   0.65148   0.00000  Uiso   1.00
C115   C     0.11575   0.97435   0.67989   0.00000  Uiso   1.00
H116   H     0.17913   0.79176   0.77720   0.00000  Uiso   1.00
H117   H     0.09668   0.69740   0.77916   0.00000  Uiso   1.00
H118   H     0.30200   0.76700   0.77744   0.00000  Uiso   1.00
H119   H     0.13942   0.90958   0.78864   0.00000  Uiso   1.00
H120   H     0.00424   0.59482   0.75981   0.00000  Uiso   1.00
H121   H     0.43718   0.74160   0.75620   0.00000  Uiso   1.00
H122   H     0.09434   0.04226   0.77980   0.00000  Uiso   1.00
H123   H     0.17113   0.80755   0.61137   0.00000  Uiso   1.00
H124   H     0.08823   0.71406   0.60423   0.00000  Uiso   1.00
H125   H     0.29356   0.78366   0.60252   0.00000  Uiso   1.00
H126   H     0.13097   0.92624   0.61371   0.00000  Uiso   1.00
H127   H     0.99739   0.60834   0.61784   0.00000  Uiso   1.00
H128   H     0.43033   0.75513   0.61422   0.00000  Uiso   1.00
H129   H     0.08749   0.05578   0.63783   0.00000  Uiso   1.00
O130   O     0.94645   0.53977   0.68712   0.00000  Uiso   1.00
O131   O     0.51445   0.73236   0.68238   0.00000  Uiso   1.00
O132   O     0.06465   0.12681   0.71335   0.00000  Uiso   1.00
N133   N     0.01400   0.61084   0.72738   0.00000  Uiso   1.00
N134   N     0.41877   0.74806   0.72400   0.00000  Uiso   1.00
N135   N     0.09826   0.02916   0.74607   0.00000  Uiso   1.00
N136   N     0.01031   0.61811   0.65098   0.00000  Uiso   1.00
N137   N     0.41508   0.75534   0.64760   0.00000  Uiso   1.00
N138   N     0.09457   0.03643   0.66967   0.00000  Uiso   1.00
C139   C     0.67730   0.29538   0.23921   0.00000  Uiso   1.00
C140   C     0.63138   0.24630   0.21728   0.00000  Uiso   1.00
C141   C     0.59484   0.20098   0.24140   0.00000  Uiso   1.00
C142   C     0.55581   0.16042   0.21496   0.00000  Uiso   1.00
C143   C     0.48490   0.08350   0.18833   0.00000  Uiso   1.00
C144   C     0.74294   0.28411   0.21635   0.00000  Uiso   1.00
C145   C     0.80020   0.27059   0.23968   0.00000  Uiso   1.00
C146   C     0.85508   0.26187   0.21245   0.00000  Uiso   1.00
C147   C     0.95737   0.24369   0.18438   0.00000  Uiso   1.00
C148   C     0.65460   0.36158   0.22243   0.00000  Uiso   1.00
C149   C     0.63759   0.41320   0.25088   0.00000  Uiso   1.00
C150   C     0.61811   0.46970   0.22877   0.00000  Uiso   1.00
C151   C     0.58324   0.57179   0.21014   0.00000  Uiso   1.00
C152   C     0.67296   0.30394   0.14937   0.00000  Uiso   1.00
C153   C     0.62903   0.25095   0.16848   0.00000  Uiso   1.00
C154   C     0.59004   0.21045   0.14200   0.00000  Uiso   1.00
C155   C     0.55345   0.16508   0.16607   0.00000  Uiso   1.00
C156   C     0.74059   0.28876   0.16755   0.00000  Uiso   1.00
C157   C     0.79540   0.28006   0.14028   0.00000  Uiso   1.00
C158   C     0.85272   0.26652   0.16357   0.00000  Uiso   1.00
C159   C     0.65224   0.36623   0.17363   0.00000  Uiso   1.00
C160   C     0.63279   0.42266   0.15148   0.00000  Uiso   1.00
C161   C     0.61575   0.47435   0.17989   0.00000  Uiso   1.00
H162   H     0.67913   0.29176   0.27720   0.00000  Uiso   1.00
H163   H     0.59668   0.19740   0.27916   0.00000  Uiso   1.00
H164   H     0.80200   0.26700   0.27744   0.00000  Uiso   1.00
H165   H     0.63942   0.40958   0.28864   0.00000  Uiso   1.00
H166   H     0.50424   0.09482   0.25981   0.00000  Uiso   1.00
H167   H     0.93718   0.24160   0.25620   0.00000  Uiso   1.00
H168   H     0.59434   0.54226   0.27980   0.00000  Uiso   1.00
H169   H     0.67113   0.30755   0.11137   0.00000  Uiso   1.00
H170   H     0.58823   0.21406   0.10423   0.00000  Uiso   1.00
H171   H     0.79356   0.28366   0.10252   0.00000  Uiso   1.00
H172   H     0.63097   0.42624   0.11371   0.00000  Uiso   1.00
H173   H     0.49739   0.10834   0.11784   0.00000  Uiso   1.00
H174   H     0.93033   0.25513   0.11422   0.00000  Uiso   1.00
H175   H     0.58749   0.55578   0.13783   0.00000  Uiso   1.00
O176   O     0.44645   0.03977   0.18712   0.00000  Uiso   1.00
O177   O     0.01445   0.23236   0.18238   0.00000  Uiso   1.00
O178   O     0.56465   0.62681   0.21335   0.00000  Uiso   1.00
N179   N     0.51400   0.11084   0.22738   0.00000  Uiso   1.00
N180   N     0.91877   0.24806   0.22400   0.00000  Uiso   1.00
N181   N     0.59826   0.52916   0.24607   0.00000  Uiso   1.00
N182   N     0.51031   0.11811   0.15098   0.00000  Uiso   1.00
N183   N     0.91508   0.25534   0.14760   0.00000  Uiso   1.00
N184   N     0.59457   0.53643   0.16967   0.00000  Uiso   1.00
C185   C     0.29538   0.82270   0.48921   0.00000  Uiso   1.00
C186   C     0.24630   0.86862   0.46728   0.00000  Uiso   1.00
C187   C     0.20098   0.90516   0.49140   0.00000  Uiso   1.00
C188   C     0.16042   0.94419   0.46496   0.00000  Uiso   1.00
C189   C     0.08350   0.01510   0.43833   0.00000  Uiso   1.00
C190   C     0.28411   0.75706   0.46635   0.00000  Uiso   1.00
C191   C     0.27059   0.69980   0.48968   0.00000  Uiso   1.00
C192   C     0.26187   0.64492   0.46245   0.00000  Uiso   1.00
C193   C     0.24369   0.54263   0.43438   0.00000  Uiso   1.00
C194   C     0.36158   0.84540   0.47243   0.00000  Uiso   1.00
C195   C     0.41320   0.86241   0.50088   0.00000  Uiso   1.00
C196   C     0.46970   0.88189   0.47877   0.00000  Uiso   1.00
C197   C     0.57179   0.91676   0.46014   0.00000  Uiso   1.00
C198   C     0.30394   0.82704   0.39937   0.00000  Uiso   1.00
C199   C     0.25095   0.87097   0.41848   0.00000  Uiso   1.00
C200   C     0.21045   0.90996   0.39200   0.00000  Uiso   1.00
C201   C     0.16508   0.94655   0.41607   0.00000  Uiso   1.00
C202   C     0.28876   0.75941   0.41755   0.00000  Uiso   1.00
C203   C     0.28006   0.70460   0.39028   0.00000  Uiso   1.00
C204   C     0.26652   0.64728   0.41357   0.00000  Uiso   1.00
C205   C     0.36623   0.84776   0.42363   0.00000  Uiso   1.00
C206   C     0.42266   0.86721   0.40148   0.00000  Uiso   1.00
C207   C     0.47435   0.88425   0.42989   0.00000  Uiso   1.00
H208   H     0.29176   0.82087   0.52720   0.00000  Uiso   1.00
H209   H     0.19740   0.90332   0.52916   0.00000  Uiso   1.00
H210   H     0.26700   0.69800   0.52744   0.00000  Uiso   1.00
H211   H     0.40958   0.86058   0.53864   0.00000  Uiso   1.00
H212   H     0.09482   0.99576   0.50981   0.00000  Uiso   1.00
H213   H     0.24160   0.56282   0.50620   0.00000  Uiso   1.00
H214   H     0.54226   0.90566   0.52980   0.00000  Uiso   1.00
H215   H     0.30755   0.82887   0.36137   0.00000  Uiso   1.00
H216   H     0.21406   0.91177   0.35423   0.00000  Uiso   1.00
H217   H     0.28366   0.70644   0.35252   0.00000  Uiso   1.00
H218   H     0.42624   0.86903   0.36371   0.00000  Uiso   1.00
H219   H     0.10834   0.00261   0.36784   0.00000  Uiso   1.00
H220   H     0.25513   0.56967   0.36422   0.00000  Uiso   1.00
H221   H     0.55578   0.91251   0.38783   0.00000  Uiso   1.00
O222   O     0.03977   0.05355   0.43712   0.00000  Uiso   1.00
O223   O     0.23236   0.48555   0.43238   0.00000  Uiso   1.00
O224   O     0.62681   0.93535   0.46335   0.00000  Uiso   1.00
N225   N     0.11084   0.98600   0.47738   0.00000  Uiso   1.00
N226   N     0.24806   0.58123   0.47400   0.00000  Uiso   1.00
N227   N     0.52916   0.90174   0.49607   0.00000  Uiso   1.00
N228   N     0.11811   0.98969   0.40098   0.00000  Uiso   1.00
N229   N     0.25534   0.58492   0.39760   0.00000  Uiso   1.00
N230   N     0.53643   0.90543   0.41967   0.00000  Uiso   1.00
C231   C     0.79538   0.32270   0.98921   0.00000  Uiso   1.00
C232   C     0.74630   0.36862   0.96728   0.00000  Uiso   1.00
C233   C     0.70098   0.40516   0.99140   0.00000  Uiso   1.00
C234   C     0.66042   0.44419   0.96496   0.00000  Uiso   1.00
C235   C     0.58350   0.51510   0.93833   0.00000  Uiso   1.00
C236   C     0.78411   0.25706   0.96635   0.00000  Uiso   1.00
C237   C     0.77059   0.19980   0.98968   0.00000  Uiso   1.00
C238   C     0.76187   0.14492   0.96245   0.00000  Uiso   1.00
C239   C     0.74369   0.04263   0.93438   0.00000  Uiso   1.00
C240   C     0.86158   0.34540   0.97243   0.00000  Uiso   1.00
C241   C     0.91320   0.36241   0.00088   0.00000  Uiso   1.00
C242   C     0.96970   0.38189   0.97877   0.00000  Uiso   1.00
C243   C     0.07179   0.41676   0.96014   0.00000  Uiso   1.00
C244   C     0.80394   0.32704   0.89937   0.00000  Uiso   1.00
C245   C     0.75095   0.37097   0.91848   0.00000  Uiso   1.00
C246   C     0.71045   0.40996   0.89200   0.00000  Uiso   1.00
C247   C     0.66508   0.44655   0.91607   0.00000  Uiso   1.00
C248   C     0.78876   0.25941   0.91755   0.00000  Uiso   1.00
C249   C     0.78006   0.20460   0.89028   0.00000  Uiso   1.00
C250   C     0.76652   0.14728   0.91357   0.00000  Uiso   1.00
C251   C     0.86623   0.34776   0.92363   0.00000  Uiso   1.00
C252   C     0.92266   0.36721   0.90148   0.00000  Uiso   1.00
C253   C     0.97435   0.38425   0.92989   0.00000  Uiso   1.00
H254   H     0.79176   0.32087   0.02720   0.00000  Uiso   1.00
H255   H     0.69740   0.40332   0.02916   0.00000  Uiso   1.00
H256   H     0.76700   0.19800   0.02744   0.00000  Uiso   1.00
H257   H     0.90958   0.36058   0.03864   0.00000  Uiso   1.00
H258   H     0.59482   0.49576   0.00981   0.00000  Uiso   1.00
H259   H     0.74160   0.06282   0.00620   0.00000  Uiso   1.00
H260   H     0.04226   0.40566   0.02980   0.00000  Uiso   1.00
H261   H     0.80755   0.32887   0.86137   0.00000  Uiso   1.00
H262   H     0.71406   0.41177   0.85423   0.00000  Uiso   1.00
H263   H     0.78366   0.20644   0.85252   0.00000  Uiso   1.00
H264   H     0.92624   0.36903   0.86371   0.00000  Uiso   1.00
H265   H     0.60834   0.50261   0.86784   0.00000  Uiso   1.00
H266   H     0.75513   0.06967   0.86422   0.00000  Uiso   1.00
H267   H     0.05578   0.41251   0.88783   0.00000  Uiso   1.00
O268   O     0.53977   0.55355   0.93712   0.00000  Uiso   1.00
O269   O     0.73236   0.98555   0.93238   0.00000  Uiso   1.00
O270   O     0.12681   0.43535   0.96335   0.00000  Uiso   1.00
N271   N     0.61084   0.48600   0.97738   0.00000  Uiso   1.00
N272   N     0.74806   0.08123   0.97400   0.00000  Uiso   1.00
N273   N     0.02916   0.40174   0.99607   0.00000  Uiso   1.00
N274   N     0.61811   0.48969   0.90098   0.00000  Uiso   1.00
N275   N     0.75534   0.08492   0.89760   0.00000  Uiso   1.00
N276   N     0.03643   0.40543   0.91967   0.00000  Uiso   1.00
C277   C     0.20462   0.67730   0.98921   0.00000  Uiso   1.00
C278   C     0.25370   0.63138   0.96728   0.00000  Uiso   1.00
C279   C     0.29902   0.59484   0.99140   0.00000  Uiso   1.00
C280   C     0.33958   0.55581   0.96496   0.00000  Uiso   1.00
C281   C     0.41650   0.48490   0.93833   0.00000  Uiso   1.00
C282   C     0.21589   0.74294   0.96635   0.00000  Uiso   1.00
C283   C     0.22941   0.80020   0.98968   0.00000  Uiso   1.00
C284   C     0.23813   0.85508   0.96245   0.00000  Uiso   1.00
C285   C     0.25631   0.95737   0.93438   0.00000  Uiso   1.00
C286   C     0.13842   0.65460   0.97243   0.00000  Uiso   1.00
C287   C     0.08680   0.63759   0.00088   0.00000  Uiso   1.00
C288   C     0.03030   0.61811   0.97877   0.00000  Uiso   1.00
C289   C     0.92821   0.58324   0.96014   0.00000  Uiso   1.00
C290   C     0.19606   0.67296   0.89937   0.00000  Uiso   1.00
C291   C     0.24905   0.62903   0.91848   0.00000  Uiso   1.00
C292   C     0.28955   0.59004   0.89200   0.00000  Uiso   1.00
C293   C     0.33492   0.55345   0.91607   0.00000  Uiso   1.00
C294   C     0.21124   0.74059   0.91755   0.00000  Uiso   1.00
C295   C     0.21994   0.79540   0.89028   0.00000  Uiso   1.00
C296   C     0.23348   0.85272   0.91357   0.00000  Uiso   1.00
C297   C     0.13377   0.65224   0.92363   0.00000  Uiso   1.00
C298   C     0.07734   0.63279   0.90148   0.00000  Uiso   1.00
C299   C     0.02565   0.61575   0.92989   0.00000  Uiso   1.00
H300   H     0.20824   0.67913   0.02720   0.00000  Uiso   1.00
H301   H     0.30260   0.59668   0.02916   0.00000  Uiso   1.00
H302   H     0.23300   0.80200   0.02744   0.00000  Uiso   1.00
H303   H     0.09042   0.63942   0.03864   0.00000  Uiso   1.00
H304   H     0.40518   0.50424   0.00981   0.00000  Uiso   1.00
H305   H     0.25840   0.93718   0.00620   0.00000  Uiso   1.00
H306   H     0.95774   0.59434   0.02980   0.00000  Uiso   1.00
H307   H     0.19245   0.67113   0.86137   0.00000  Uiso   1.00
H308   H     0.28594   0.58823   0.85423   0.00000  Uiso   1.00
H309   H     0.21634   0.79356   0.85252   0.00000  Uiso   1.00
H310   H     0.07376   0.63097   0.86371   0.00000  Uiso   1.00
H311   H     0.39166   0.49739   0.86784   0.00000  Uiso   1.00
H312   H     0.24487   0.93033   0.86422   0.00000  Uiso   1.00
H313   H     0.94422   0.58749   0.88783   0.00000  Uiso   1.00
O314   O     0.46023   0.44645   0.93712   0.00000  Uiso   1.00
O315   O     0.26764   0.01445   0.93238   0.00000  Uiso   1.00
O316   O     0.87319   0.56465   0.96335   0.00000  Uiso   1.00
N317   N     0.38916   0.51400   0.97738   0.00000  Uiso   1.00
N318   N     0.25194   0.91877   0.97400   0.00000  Uiso   1.00
N319   N     0.97084   0.59826   0.99607   0.00000  Uiso   1.00
N320   N     0.38189   0.51031   0.90098   0.00000  Uiso   1.00
N321   N     0.24466   0.91508   0.89760   0.00000  Uiso   1.00
N322   N     0.96357   0.59457   0.91967   0.00000  Uiso   1.00
C323   C     0.70462   0.17730   0.48921   0.00000  Uiso   1.00
C324   C     0.75370   0.13138   0.46728   0.00000  Uiso   1.00
C325   C     0.79902   0.09484   0.49140   0.00000  Uiso   1.00
C326   C     0.83958   0.05581   0.46496   0.00000  Uiso   1.00
C327   C     0.91650   0.98490   0.43833   0.00000  Uiso   1.00
C328   C     0.71589   0.24294   0.46635   0.00000  Uiso   1.00
C329   C     0.72941   0.30020   0.48968   0.00000  Uiso   1.00
C330   C     0.73813   0.35508   0.46245   0.00000  Uiso   1.00
C331   C     0.75631   0.45737   0.43438   0.00000  Uiso   1.00
C332   C     0.63842   0.15460   0.47243   0.00000  Uiso   1.00
C333   C     0.58680   0.13759   0.50088   0.00000  Uiso   1.00
C334   C     0.53030   0.11811   0.47877   0.00000  Uiso   1.00
C335   C     0.42821   0.08324   0.46014   0.00000  Uiso   1.00
C336   C     0.69606   0.17296   0.39937   0.00000  Uiso   1.00
C337   C     0.74905   0.12903   0.41848   0.00000  Uiso   1.00
C338   C     0.78955   0.09004   0.39200   0.00000  Uiso   1.00
C339   C     0.83492   0.05345   0.41607   0.00000  Uiso   1.00
C340   C     0.71124   0.24059   0.41755   0.00000  Uiso   1.00
C341   C     0.71994   0.29540   0.39028   0.00000  Uiso   1.00
C342   C     0.73348   0.35272   0.41357   0.00000  Uiso   1.00
C343   C     0.63377   0.15224   0.42363   0.00000  Uiso   1.00
C344   C     0.57734   0.13279   0.40148   0.00000  Uiso   1.00
C345   C     0.52565   0.11575   0.42989   0.00000  Uiso   1.00
H346   H     0.70824   0.17913   0.52720   0.00000  Uiso   1.00
H347   H     0.80260   0.09668   0.52916   0.00000  Uiso   1.00
H348   H     0.73300   0.30200   0.52744   0.00000  Uiso   1.00
H349   H     0.59042   0.13942   0.53864   0.00000  Uiso   1.00
H350   H     0.90518   0.00424   0.50981   0.00000  Uiso   1.00
H351   H     0.75840   0.43718   0.50620   0.00000  Uiso   1.00
H352   H     0.45774   0.09434   0.52980   0.00000  Uiso   1.00
H353   H     0.69245   0.17113   0.36137   0.00000  Uiso   1.00
H354   H     0.78594   0.08823   0.35423   0.00000  Uiso   1.00
H355   H     0.71634   0.29356   0.35252   0.00000  Uiso   1.00
H356   H     0.57376   0.13097   0.36371   0.00000  Uiso   1.00
H357   H     0.89166   0.99739   0.36784   0.00000  Uiso   1.00
H358   H     0.74487   0.43033   0.36422   0.00000  Uiso   1.00
H359   H     0.44422   0.08749   0.38783   0.00000  Uiso   1.00
O360   O     0.96023   0.94645   0.43712   0.00000  Uiso   1.00
O361   O     0.76764   0.51445   0.43238   0.00000  Uiso   1.00
O362   O     0.37319   0.06465   0.46335   0.00000  Uiso   1.00
N363   N     0.88916   0.01400   0.47738   0.00000  Uiso   1.00
N364   N     0.75194   0.41877   0.47400   0.00000  Uiso   1.00
N365   N     0.47084   0.09826   0.49607   0.00000  Uiso   1.00
N366   N     0.88189   0.01031   0.40098   0.00000  Uiso   1.00
N367   N     0.74466   0.41508   0.39760   0.00000  Uiso   1.00
N368   N     0.46357   0.09457   0.41967   0.00000  Uiso   1.00
C369   C     0.67730   0.79538   0.01079   0.00000  Uiso   1.00
C370   C     0.63138   0.74630   0.03272   0.00000  Uiso   1.00
C371   C     0.59484   0.70098   0.00860   0.00000  Uiso   1.00
C372   C     0.55581   0.66042   0.03504   0.00000  Uiso   1.00
C373   C     0.48490   0.58350   0.06167   0.00000  Uiso   1.00
C374   C     0.74294   0.78411   0.03365   0.00000  Uiso   1.00
C375   C     0.80020   0.77059   0.01032   0.00000  Uiso   1.00
C376   C     0.85508   0.76187   0.03755   0.00000  Uiso   1.00
C377   C     0.95737   0.74369   0.06562   0.00000  Uiso   1.00
C378   C     0.65460   0.86158   0.02757   0.00000  Uiso   1.00
C379   C     0.63759   0.91320   0.99912   0.00000  Uiso   1.00
C380   C     0.61811   0.96970   0.02123   0.00000  Uiso   1.00
C381   C     0.58324   0.07179   0.03986   0.00000  Uiso   1.00
C382   C     0.67296   0.80394   0.10063   0.00000  Uiso   1.00
C383   C     0.62903   0.75095   0.08152   0.00000  Uiso   1.00
C384   C     0.59004   0.71045   0.10800   0.00000  Uiso   1.00
C385   C     0.55345   0.66508   0.08393   0.00000  Uiso   1.00
C386   C     0.74059   0.78876   0.08245   0.00000  Uiso   1.00
C387   C     0.79540   0.78006   0.10972   0.00000  Uiso   1.00
C388   C     0.85272   0.76652   0.08643   0.00000  Uiso   1.00
C389   C     0.65224   0.86623   0.07637   0.00000  Uiso   1.00
C390   C     0.63279   0.92266   0.09852   0.00000  Uiso   1.00
C391   C     0.61575   0.97435   0.07011   0.00000  Uiso   1.00
H392   H     0.67913   0.79176   0.97280   0.00000  Uiso   1.00
H393   H     0.59668   0.69740   0.97084   0.00000  Uiso   1.00
H394   H     0.80200   0.76700   0.97256   0.00000  Uiso   1.00
H395   H     0.63942   0.90958   0.96136   0.00000  Uiso   1.00
H396   H     0.50424   0.59482   0.99019   0.00000  Uiso   1.00
H397   H     0.93718   0.74160   0.99380   0.00000  Uiso   1.00
H398   H     0.59434   0.04226   0.97020   0.00000  Uiso   1.00
H399   H     0.67113   0.80755   0.13863   0.00000  Uiso   1.00
H400   H     0.58823   0.71406   0.14577   0.00000  Uiso   1.00
H401   H     0.79356   0.78366   0.14748   0.00000  Uiso   1.00
H402   H     0.63097   0.92624   0.13629   0.00000  Uiso   1.00
H403   H     0.49739   0.60834   0.13216   0.00000  Uiso   1.00
H404   H     0.93033   0.75513   0.13578   0.00000  Uiso   1.00
H405   H     0.58749   0.05578   0.11217   0.00000  Uiso   1.00
O406   O     0.44645   0.53977   0.06288   0.00000  Uiso   1.00
O407   O     0.01445   0.73236   0.06762   0.00000  Uiso   1.00
O408   O     0.56465   0.12681   0.03665   0.00000  Uiso   1.00
N409   N     0.51400   0.61084   0.02262   0.00000  Uiso   1.00
N410   N     0.91877   0.74806   0.02600   0.00000  Uiso   1.00
N411   N     0.59826   0.02916   0.00393   0.00000  Uiso   1.00
N412   N     0.51031   0.61811   0.09902   0.00000  Uiso   1.00
N413   N     0.91508   0.75534   0.10240   0.00000  Uiso   1.00
N414   N     0.59457   0.03643   0.08033   0.00000  Uiso   1.00
C415   C     0.17730   0.29538   0.51079   0.00000  Uiso   1.00
C416   C     0.13138   0.24630   0.53272   0.00000  Uiso   1.00
C417   C     0.09484   0.20098   0.50860   0.00000  Uiso   1.00
C418   C     0.05581   0.16042   0.53504   0.00000  Uiso   1.00
C419   C     0.98490   0.08350   0.56167   0.00000  Uiso   1.00
C420   C     0.24294   0.28411   0.53365   0.00000  Uiso   1.00
C421   C     0.30020   0.27059   0.51032   0.00000  Uiso   1.00
C422   C     0.35508   0.26187   0.53755   0.00000  Uiso   1.00
C423   C     0.45737   0.24369   0.56562   0.00000  Uiso   1.00
C424   C     0.15460   0.36158   0.52757   0.00000  Uiso   1.00
C425   C     0.13759   0.41320   0.49912   0.00000  Uiso   1.00
C426   C     0.11811   0.46970   0.52123   0.00000  Uiso   1.00
C427   C     0.08324   0.57179   0.53986   0.00000  Uiso   1.00
C428   C     0.17296   0.30394   0.60063   0.00000  Uiso   1.00
C429   C     0.12903   0.25095   0.58152   0.00000  Uiso   1.00
C430   C     0.09004   0.21045   0.60800   0.00000  Uiso   1.00
C431   C     0.05345   0.16508   0.58393   0.00000  Uiso   1.00
C432   C     0.24059   0.28876   0.58245   0.00000  Uiso   1.00
C433   C     0.29540   0.28006   0.60972   0.00000  Uiso   1.00
C434   C     0.35272   0.26652   0.58643   0.00000  Uiso   1.00
C435   C     0.15224   0.36623   0.57637   0.00000  Uiso   1.00
C436   C     0.13279   0.42266   0.59852   0.00000  Uiso   1.00
C437   C     0.11575   0.47435   0.57011   0.00000  Uiso   1.00
H438   H     0.17913   0.29176   0.47280   0.00000  Uiso   1.00
H439   H     0.09668   0.19740   0.47084   0.00000  Uiso   1.00
H440   H     0.30200   0.26700   0.47256   0.00000  Uiso   1.00
H441   H     0.13942   0.40958   0.46136   0.00000  Uiso   1.00
H442   H     0.00424   0.09482   0.49019   0.00000  Uiso   1.00
H443   H     0.43718   0.24160   0.49380   0.00000  Uiso   1.00
H444   H     0.09434   0.54226   0.47020   0.00000  Uiso   1.00
H445   H     0.17113   0.30755   0.63863   0.00000  Uiso   1.00
H446   H     0.08823   0.21406   0.64577   0.00000  Uiso   1.00
H447   H     0.29356   0.28366   0.64748   0.00000  Uiso   1.00
H448   H     0.13097   0.42624   0.63629   0.00000  Uiso   1.00
H449   H     0.99739   0.10834   0.63216   0.00000  Uiso   1.00
H450   H     0.43033   0.25513   0.63578   0.00000  Uiso   1.00
H451   H     0.08749   0.55578   0.61217   0.00000  Uiso   1.00
O452   O     0.94645   0.03977   0.56288   0.00000  Uiso   1.00
O453   O     0.51445   0.23236   0.56762   0.00000  Uiso   1.00
O454   O     0.06465   0.62681   0.53665   0.00000  Uiso   1.00
N455   N     0.01400   0.11084   0.52262   0.00000  Uiso   1.00
N456   N     0.41877   0.24806   0.52600   0.00000  Uiso   1.00
N457   N     0.09826   0.52916   0.50393   0.00000  Uiso   1.00
N458   N     0.01031   0.11811   0.59902   0.00000  Uiso   1.00
N459   N     0.41508   0.25534   0.60240   0.00000  Uiso   1.00
N460   N     0.09457   0.53643   0.58033   0.00000  Uiso   1.00
C461   C     0.82270   0.70462   0.51079   0.00000  Uiso   1.00
C462   C     0.86862   0.75370   0.53272   0.00000  Uiso   1.00
C463   C     0.90516   0.79902   0.50860   0.00000  Uiso   1.00
C464   C     0.94419   0.83958   0.53504   0.00000  Uiso   1.00
C465   C     0.01510   0.91650   0.56167   0.00000  Uiso   1.00
C466   C     0.75706   0.71589   0.53365   0.00000  Uiso   1.00
C467   C     0.69980   0.72941   0.51032   0.00000  Uiso   1.00
C468   C     0.64492   0.73813   0.53755   0.00000  Uiso   1.00
C469   C     0.54263   0.75631   0.56562   0.00000  Uiso   1.00
C470   C     0.84540   0.63842   0.52757   0.00000  Uiso   1.00
C471   C     0.86241   0.58680   0.49912   0.00000  Uiso   1.00
C472   C     0.88189   0.53030   0.52123   0.00000  Uiso   1.00
C473   C     0.91676   0.42821   0.53986   0.00000  Uiso   1.00
C474   C     0.82704   0.69606   0.60063   0.00000  Uiso   1.00
C475   C     0.87097   0.74905   0.58152   0.00000  Uiso   1.00
C476   C     0.90996   0.78955   0.60800   0.00000  Uiso   1.00
C477   C     0.94655   0.83492   0.58393   0.00000  Uiso   1.00
C478   C     0.75941   0.71124   0.58245   0.00000  Uiso   1.00
C479   C     0.70460   0.71994   0.60972   0.00000  Uiso   1.00
C480   C     0.64728   0.73348   0.58643   0.00000  Uiso   1.00
C481   C     0.84776   0.63377   0.57637   0.00000  Uiso   1.00
C482   C     0.86721   0.57734   0.59852   0.00000  Uiso   1.00
C483   C     0.88425   0.52565   0.57011   0.00000  Uiso   1.00
H484   H     0.82087   0.70824   0.47280   0.00000  Uiso   1.00
H485   H     0.90332   0.80260   0.47084   0.00000  Uiso   1.00
H486   H     0.69800   0.73300   0.47256   0.00000  Uiso   1.00
H487   H     0.86058   0.59042   0.46136   0.00000  Uiso   1.00
H488   H     0.99576   0.90518   0.49019   0.00000  Uiso   1.00
H489   H     0.56282   0.75840   0.49380   0.00000  Uiso   1.00
H490   H     0.90566   0.45774   0.47020   0.00000  Uiso   1.00
H491   H     0.82887   0.69245   0.63863   0.00000  Uiso   1.00
H492   H     0.91177   0.78594   0.64577   0.00000  Uiso   1.00
H493   H     0.70644   0.71634   0.64748   0.00000  Uiso   1.00
H494   H     0.86903   0.57376   0.63629   0.00000  Uiso   1.00
H495   H     0.00261   0.89166   0.63216   0.00000  Uiso   1.00
H496   H     0.56967   0.74487   0.63578   0.00000  Uiso   1.00
H497   H     0.91251   0.44422   0.61217   0.00000  Uiso   1.00
O498   O     0.05355   0.96023   0.56288   0.00000  Uiso   1.00
O499   O     0.48555   0.76764   0.56762   0.00000  Uiso   1.00
O500   O     0.93535   0.37319   0.53665   0.00000  Uiso   1.00
N501   N     0.98600   0.88916   0.52262   0.00000  Uiso   1.00
N502   N     0.58123   0.75194   0.52600   0.00000  Uiso   1.00
N503   N     0.90174   0.47084   0.50393   0.00000  Uiso   1.00
N504   N     0.98969   0.88189   0.59902   0.00000  Uiso   1.00
N505   N     0.58492   0.74466   0.60240   0.00000  Uiso   1.00
N506   N     0.90543   0.46357   0.58033   0.00000  Uiso   1.00
C507   C     0.32270   0.20462   0.01079   0.00000  Uiso   1.00
C508   C     0.36862   0.25370   0.03272   0.00000  Uiso   1.00
C509   C     0.40516   0.29902   0.00860   0.00000  Uiso   1.00
C510   C     0.44419   0.33958   0.03504   0.00000  Uiso   1.00
C511   C     0.51510   0.41650   0.06167   0.00000  Uiso   1.00
C512   C     0.25706   0.21589   0.03365   0.00000  Uiso   1.00
C513   C     0.19980   0.22941   0.01032   0.00000  Uiso   1.00
C514   C     0.14492   0.23813   0.03755   0.00000  Uiso   1.00
C515   C     0.04263   0.25631   0.06562   0.00000  Uiso   1.00
C516   C     0.34540   0.13842   0.02757   0.00000  Uiso   1.00
C517   C     0.36241   0.08680   0.99912   0.00000  Uiso   1.00
C518   C     0.38189   0.03030   0.02123   0.00000  Uiso   1.00
C519   C     0.41676   0.92821   0.03986   0.00000  Uiso   1.00
C520   C     0.32704   0.19606   0.10063   0.00000  Uiso   1.00
C521   C     0.37097   0.24905   0.08152   0.00000  Uiso   1.00
C522   C     0.40996   0.28955   0.10800   0.00000  Uiso   1.00
C523   C     0.44655   0.33492   0.08393   0.00000  Uiso   1.00
C524   C     0.25941   0.21124   0.08245   0.00000  Uiso   1.00
C525   C     0.20460   0.21994   0.10972   0.00000  Uiso   1.00
C526   C     0.14728   0.23348   0.08643   0.00000  Uiso   1.00
C527   C     0.34776   0.13377   0.07637   0.00000  Uiso   1.00
C528   C     0.36721   0.07734   0.09852   0.00000  Uiso   1.00
C529   C     0.38425   0.02565   0.07011   0.00000  Uiso   1.00
H530   H     0.32087   0.20824   0.97280   0.00000  Uiso   1.00
H531   H     0.40332   0.30260   0.97084   0.00000  Uiso   1.00
H532   H     0.19800   0.23300   0.97256   0.00000  Uiso   1.00
H533   H     0.36058   0.09042   0.96136   0.00000  Uiso   1.00
H534   H     0.49576   0.40518   0.99019   0.00000  Uiso   1.00
H535   H     0.06282   0.25840   0.99380   0.00000  Uiso   1.00
H536   H     0.40566   0.95774   0.97020   0.00000  Uiso   1.00
H537   H     0.32887   0.19245   0.13863   0.00000  Uiso   1.00
H538   H     0.41177   0.28594   0.14577   0.00000  Uiso   1.00
H539   H     0.20644   0.21634   0.14748   0.00000  Uiso   1.00
H540   H     0.36903   0.07376   0.13629   0.00000  Uiso   1.00
H541   H     0.50261   0.39166   0.13216   0.00000  Uiso   1.00
H542   H     0.06967   0.24487   0.13578   0.00000  Uiso   1.00
H543   H     0.41251   0.94422   0.11217   0.00000  Uiso   1.00
O544   O     0.55355   0.46023   0.06288   0.00000  Uiso   1.00
O545   O     0.98555   0.26764   0.06762   0.00000  Uiso   1.00
O546   O     0.43535   0.87319   0.03665   0.00000  Uiso   1.00
N547   N     0.48600   0.38916   0.02262   0.00000  Uiso   1.00
N548   N     0.08123   0.25194   0.02600   0.00000  Uiso   1.00
N549   N     0.40174   0.97084   0.00393   0.00000  Uiso   1.00
N550   N     0.48969   0.38189   0.09902   0.00000  Uiso   1.00
N551   N     0.08492   0.24466   0.10240   0.00000  Uiso   1.00
N552   N     0.40543   0.96357   0.08033   0.00000  Uiso   1.00
C553   C     0.70462   0.67730   0.76079   0.00000  Uiso   1.00
C554   C     0.75370   0.63138   0.78272   0.00000  Uiso   1.00
C555   C     0.79902   0.59484   0.75860   0.00000  Uiso   1.00
C556   C     0.83958   0.55581   0.78504   0.00000  Uiso   1.00
C557   C     0.91650   0.48490   0.81167   0.00000  Uiso   1.00
C558   C     0.71589   0.74294   0.78365   0.00000  Uiso   1.00
C559   C     0.72941   0.80020   0.76032   0.00000  Uiso   1.00
C560   C     0.73813   0.85508   0.78755   0.00000  Uiso   1.00
C561   C     0.75631   0.95737   0.81562   0.00000  Uiso   1.00
C562   C     0.63842   0.65460   0.77757   0.00000  Uiso   1.00
C563   C     0.58680   0.63759   0.74912   0.00000  Uiso   1.00
C564   C     0.53030   0.61811   0.77123   0.00000  Uiso   1.00
C565   C     0.42821   0.58324   0.78986   0.00000  Uiso   1.00
C566   C     0.69606   0.67296   0.85063   0.00000  Uiso   1.00
C567   C     0.74905   0.62903   0.83152   0.00000  Uiso   1.00
C568   C     0.78955   0.59004   0.85800   0.00000  Uiso   1.00
C569   C     0.83492   0.55345   0.83393   0.00000  Uiso   1.00
C570   C     0.71124   0.74059   0.83245   0.00000  Uiso   1.00
C571   C     0.71994   0.79540   0.85972   0.00000  Uiso   1.00
C572   C     0.73348   0.85272   0.83643   0.00000  Uiso   1.00
C573   C     0.63377   0.65224   0.82637   0.00000  Uiso   1.00
C574   C     0.57734   0.63279   0.84852   0.00000  Uiso   1.00
C575   C     0.52565   0.61575   0.82011   0.00000  Uiso   1.00
H576   H     0.70824   0.67913   0.72280   0.00000  Uiso   1.00
H577   H     0.80260   0.59668   0.72084   0.00000  Uiso   1.00
H578   H     0.73300   0.80200   0.72256   0.00000  Uiso   1.00
H579   H     0.59042   0.63942   0.71136   0.00000  Uiso   1.00
H580   H     0.90518   0.50424   0.74019   0.00000  Uiso   1.00
H581   H     0.75840   0.93718   0.74380   0.00000  Uiso   1.00
H582   H     0.45774   0.59434   0.72020   0.00000  Uiso   1.00
H583   H     0.69245   0.67113   0.88863   0.00000  Uiso   1.00
H584   H     0.78594   0.58823   0.89577   0.00000  Uiso   1.00
H585   H     0.71634   0.79356   0.89748   0.00000  Uiso   1.00
H586   H     0.57376   0.63097   0.88629   0.00000  Uiso   1.00
H587   H     0.89166   0.49739   0.88216   0.00000  Uiso   1.00
H588   H     0.74487   0.93033   0.88578   0.00000  Uiso   1.00
H589   H     0.44422   0.58749   0.86217   0.00000  Uiso   1.00
O590   O     0.96023   0.44645   0.81288   0.00000  Uiso   1.00
O591   O     0.76764   0.01445   0.81762   0.00000  Uiso   1.00
O592   O     0.37319   0.56465   0.78665   0.00000  Uiso   1.00
N593   N     0.88916   0.51400   0.77262   0.00000  Uiso   1.00
N594   N     0.75194   0.91877   0.77600   0.00000  Uiso   1.00
N595   N     0.47084   0.59826   0.75393   0.00000  Uiso   1.00
N596   N     0.88189   0.51031   0.84902   0.00000  Uiso   1.00
N597   N     0.74466   0.91508   0.85240   0.00000  Uiso   1.00
N598   N     0.46357   0.59457   0.83033   0.00000  Uiso   1.00
C599   C     0.20462   0.17730   0.26079   0.00000  Uiso   1.00
C600   C     0.25370   0.13138   0.28272   0.00000  Uiso   1.00
C601   C     0.29902   0.09484   0.25860   0.00000  Uiso   1.00
C602   C     0.33958   0.05581   0.28504   0.00000  Uiso   1.00
C603   C     0.41650   0.98490   0.31167   0.00000  Uiso   1.00
C604   C     0.21589   0.24294   0.28365   0.00000  Uiso   1.00
C605   C     0.22941   0.30020   0.26032   0.00000  Uiso   1.00
C606   C     0.23813   0.35508   0.28755   0.00000  Uiso   1.00
C607   C     0.25631   0.45737   0.31562   0.00000  Uiso   1.00
C608   C     0.13842   0.15460   0.27757   0.00000  Uiso   1.00
C609   C     0.08680   0.13759   0.24912   0.00000  Uiso   1.00
C610   C     0.03030   0.11811   0.27123   0.00000  Uiso   1.00
C611   C     0.92821   0.08324   0.28986   0.00000  Uiso   1.00
C612   C     0.19606   0.17296   0.35063   0.00000  Uiso   1.00
C613   C     0.24905   0.12903   0.33152   0.00000  Uiso   1.00
C614   C     0.28955   0.09004   0.35800   0.00000  Uiso   1.00
C615   C     0.33492   0.05345   0.33393   0.00000  Uiso   1.00
C616   C     0.21124   0.24059   0.33245   0.00000  Uiso   1.00
C617   C     0.21994   0.29540   0.35972   0.00000  Uiso   1.00
C618   C     0.23348   0.35272   0.33643   0.00000  Uiso   1.00
C619   C     0.13377   0.15224   0.32637   0.00000  Uiso   1.00
C620   C     0.07734   0.13279   0.34852   0.00000  Uiso   1.00
C621   C     0.02565   0.11575   0.32011   0.00000  Uiso   1.00
H622   H     0.20824   0.17913   0.22280   0.00000  Uiso   1.00
H623   H     0.30260   0.09668   0.22084   0.00000  Uiso   1.00
H624   H     0.23300   0.30200   0.22256   0.00000  Uiso   1.00
H625   H     0.09042   0.13942   0.21136   0.00000  Uiso   1.00
H626   H     0.40518   0.00424   0.24019   0.00000  Uiso   1.00
H627   H     0.25840   0.43718   0.24380   0.00000  Uiso   1.00
H628   H     0.95774   0.09434   0.22020   0.00000  Uiso   1.00
H629   H     0.19245   0.17113   0.38863   0.00000  Uiso   1.00
H630   H     0.28594   0.08823   0.39577   0.00000  Uiso   1.00
H631   H     0.21634   0.29356   0.39748   0.00000  Uiso   1.00
H632   H     0.07376   0.13097   0.38629   0.00000  Uiso   1.00
H633   H     0.39166   0.99739   0.38216   0.00000  Uiso   1.00
H634   H     0.24487   0.43033   0.38578   0.00000  Uiso   1.00
H635   H     0.94422   0.08749   0.36217   0.00000  Uiso   1.00
O636   O     0.46023   0.94645   0.31288   0.00000  Uiso   1.00
O637   O     0.26764   0.51445   0.31762   0.00000  Uiso   1.00
O638   O     0.87319   0.06465   0.28665   0.00000  Uiso   1.00
N639   N     0.38916   0.01400   0.27262   0.00000  Uiso   1.00
N640   N     0.25194   0.41877   0.27600   0.00000  Uiso   1.00
N641   N     0.97084   0.09826   0.25393   0.00000  Uiso   1.00
N642   N     0.38189   0.01031   0.34902   0.00000  Uiso   1.00
N643   N     0.24466   0.41508   0.35240   0.00000  Uiso   1.00
N644   N     0.96357   0.09457   0.33033   0.00000  Uiso   1.00
C645   C     0.79538   0.82270   0.26079   0.00000  Uiso   1.00
C646   C     0.74630   0.86862   0.28272   0.00000  Uiso   1.00
C647   C     0.70098   0.90516   0.25860   0.00000  Uiso   1.00
C648   C     0.66042   0.94419   0.28504   0.00000  Uiso   1.00
C649   C     0.58350   0.01510   0.31167   0.00000  Uiso   1.00
C650   C     0.78411   0.75706   0.28365   0.00000  Uiso   1.00
C651   C     0.77059   0.69980   0.26032   0.00000  Uiso   1.00
C652   C     0.76187   0.64492   0.28755   0.00000  Uiso   1.00
C653   C     0.74369   0.54263   0.31562   0.00000  Uiso   1.00
C654   C     0.86158   0.84540   0.27757   0.00000  Uiso   1.00
C655   C     0.91320   0.86241   0.24912   0.00000  Uiso   1.00
C656   C     0.96970   0.88189   0.27123   0.00000  Uiso   1.00
C657   C     0.07179   0.91676   0.28986   0.00000  Uiso   1.00
C658   C     0.80394   0.82704   0.35063   0.00000  Uiso   1.00
C659   C     0.75095   0.87097   0.33152   0.00000  Uiso   1.00
C660   C     0.71045   0.90996   0.35800   0.00000  Uiso   1.00
C661   C     0.66508   0.94655   0.33393   0.00000  Uiso   1.00
C662   C     0.78876   0.75941   0.33245   0.00000  Uiso   1.00
C663   C     0.78006   0.70460   0.35972   0.00000  Uiso   1.00
C664   C     0.76652   0.64728   0.33643   0.00000  Uiso   1.00
C665   C     0.86623   0.84776   0.32637   0.00000  Uiso   1.00
C666   C     0.92266   0.86721   0.34852   0.00000  Uiso   1.00
C667   C     0.97435   0.88425   0.32011   0.00000  Uiso   1.00
H668   H     0.79176   0.82087   0.22280   0.00000  Uiso   1.00
H669   H     0.69740   0.90332   0.22084   0.00000  Uiso   1.00
H670   H     0.76700   0.69800   0.22256   0.00000  Uiso   1.00
H671   H     0.90958   0.86058   0.21136   0.00000  Uiso   1.00
H672   H     0.59482   0.99576   0.24019   0.00000  Uiso   1.00
H673   H     0.74160   0.56282   0.24380   0.00000  Uiso   1.00
H674   H     0.04226   0.90566   0.22020   0.00000  Uiso   1.00
H675   H     0.80755   0.82887   0.38863   0.00000  Uiso   1.00
H676   H     0.71406   0.91177   0.39577   0.00000  Uiso   1.00
H677   H     0.78366   0.70644   0.39748   0.00000  Uiso   1.00
H678   H     0.92624   0.86903   0.38629   0.00000  Uiso   1.00
H679   H     0.60834   0.00261   0.38216   0.00000  Uiso   1.00
H680   H     0.75513   0.56967   0.38578   0.00000  Uiso   1.00
H681   H     0.05578   0.91251   0.36217   0.00000  Uiso   1.00
O682   O     0.53977   0.05355   0.31288   0.00000  Uiso   1.00
O683   O     0.73236   0.48555   0.31762   0.00000  Uiso   1.00
O684   O     0.12681   0.93535   0.28665   0.00000  Uiso   1.00
N685   N     0.61084   0.98600   0.27262   0.00000  Uiso   1.00
N686   N     0.74806   0.58123   0.27600   0.00000  Uiso   1.00
N687   N     0.02916   0.90174   0.25393   0.00000  Uiso   1.00
N688   N     0.61811   0.98969   0.34902   0.00000  Uiso   1.00
N689   N     0.75534   0.58492   0.35240   0.00000  Uiso   1.00
N690   N     0.03643   0.90543   0.33033   0.00000  Uiso   1.00
C691   C     0.29538   0.32270   0.76079   0.00000  Uiso   1.00
C692   C     0.24630   0.36862   0.78272   0.00000  Uiso   1.00
C693   C     0.20098   0.40516   0.75860   0.00000  Uiso   1.00
C694   C     0.16042   0.44419   0.78504   0.00000  Uiso   1.00
C695   C     0.08350   0.51510   0.81167   0.00000  Uiso   1.00
C696   C     0.28411   0.25706   0.78365   0.00000  Uiso   1.00
C697   C     0.27059   0.19980   0.76032   0.00000  Uiso   1.00
C698   C     0.26187   0.14492   0.78755   0.00000  Uiso   1.00
C699   C     0.24369   0.04263   0.81562   0.00000  Uiso   1.00
C700   C     0.36158   0.34540   0.77757   0.00000  Uiso   1.00
C701   C     0.41320   0.36241   0.74912   0.00000  Uiso   1.00
C702   C     0.46970   0.38189   0.77123   0.00000  Uiso   1.00
C703   C     0.57179   0.41676   0.78986   0.00000  Uiso   1.00
C704   C     0.30394   0.32704   0.85063   0.00000  Uiso   1.00
C705   C     0.25095   0.37097   0.83152   0.00000  Uiso   1.00
C706   C     0.21045   0.40996   0.85800   0.00000  Uiso   1.00
C707   C     0.16508   0.44655   0.83393   0.00000  Uiso   1.00
C708   C     0.28876   0.25941   0.83245   0.00000  Uiso   1.00
C709   C     0.28006   0.20460   0.85972   0.00000  Uiso   1.00
C710   C     0.26652   0.14728   0.83643   0.00000  Uiso   1.00
C711   C     0.36623   0.34776   0.82637   0.00000  Uiso   1.00
C712   C     0.42266   0.36721   0.84852   0.00000  Uiso   1.00
C713   C     0.47435   0.38425   0.82011   0.00000  Uiso   1.00
H714   H     0.29176   0.32087   0.72280   0.00000  Uiso   1.00
H715   H     0.19740   0.40332   0.72084   0.00000  Uiso   1.00
H716   H     0.26700   0.19800   0.72256   0.00000  Uiso   1.00
H717   H     0.40958   0.36058   0.71136   0.00000  Uiso   1.00
H718   H     0.09482   0.49576   0.74019   0.00000  Uiso   1.00
H719   H     0.24160   0.06282   0.74380   0.00000  Uiso   1.00
H720   H     0.54226   0.40566   0.72020   0.00000  Uiso   1.00
H721   H     0.30755   0.32887   0.88863   0.00000  Uiso   1.00
H722   H     0.21406   0.41177   0.89577   0.00000  Uiso   1.00
H723   H     0.28366   0.20644   0.89748   0.00000  Uiso   1.00
H724   H     0.42624   0.36903   0.88629   0.00000  Uiso   1.00
H725   H     0.10834   0.50261   0.88216   0.00000  Uiso   1.00
H726   H     0.25513   0.06967   0.88578   0.00000  Uiso   1.00
H727   H     0.55578   0.41251   0.86217   0.00000  Uiso   1.00
O728   O     0.03977   0.55355   0.81288   0.00000  Uiso   1.00
O729   O     0.23236   0.98555   0.81762   0.00000  Uiso   1.00
O730   O     0.62681   0.43535   0.78665   0.00000  Uiso   1.00
N731   N     0.11084   0.48600   0.77262   0.00000  Uiso   1.00
N732   N     0.24806   0.08123   0.77600   0.00000  Uiso   1.00
N733   N     0.52916   0.40174   0.75393   0.00000  Uiso   1.00
N734   N     0.11811   0.48969   0.84902   0.00000  Uiso   1.00
N735   N     0.25534   0.08492   0.85240   0.00000  Uiso   1.00
N736   N     0.53643   0.40543   0.83033   0.00000  Uiso   1.00
