data_job_02169
_audit_creation_date              2018-12-19
_audit_creation_method            'Materials Studio'
_symmetry_space_group_name_H-M    'P1'
_symmetry_Int_Tables_number       1
_symmetry_cell_setting            triclinic
loop_
_symmetry_equiv_pos_as_xyz
  x,y,z
_cell_length_a                    12.5556
_cell_length_b                    12.5556
_cell_length_c                    71.2888
_cell_angle_alpha                 90.0000
_cell_angle_beta                  90.0000
_cell_angle_gamma                 90.0000
loop_
_atom_site_label
_atom_site_type_symbol
_atom_site_fract_x
_atom_site_fract_y
_atom_site_fract_z
_atom_site_U_iso_or_equiv
_atom_site_adp_type
_atom_site_occupancy
C1     C     0.76923   0.68888   0.92027   0.00000  Uiso   1.00
C2     C     0.73574   0.61838   0.93666   0.00000  Uiso   1.00
C3     C     0.66409   0.53437   0.93575   0.00000  Uiso   1.00
C4     C     0.64403   0.47967   0.95230   0.00000  Uiso   1.00
C5     C     0.58440   0.36592   0.97519   0.00000  Uiso   1.00
C6     C     0.74456   0.80291   0.92621   0.00000  Uiso   1.00
C7     C     0.68034   0.87406   0.91651   0.00000  Uiso   1.00
C8     C     0.66772   0.97471   0.92427   0.00000  Uiso   1.00
C9     C     0.62184   0.14748   0.93093   0.00000  Uiso   1.00
C10    C     0.89028   0.68114   0.91920   0.00000  Uiso   1.00
C11    C     0.94860   0.64994   0.90360   0.00000  Uiso   1.00
C12    C     0.05867   0.64809   0.90545   0.00000  Uiso   1.00
C13    C     0.23905   0.63179   0.90122   0.00000  Uiso   1.00
C14    C     0.86100   0.74111   0.95129   0.00000  Uiso   1.00
C15    C     0.78558   0.64675   0.95351   0.00000  Uiso   1.00
C16    C     0.76563   0.59216   0.97006   0.00000  Uiso   1.00
C17    C     0.69397   0.50809   0.96918   0.00000  Uiso   1.00
C18    C     0.79440   0.83129   0.94306   0.00000  Uiso   1.00
C19    C     0.78188   0.93186   0.95083   0.00000  Uiso   1.00
C20    C     0.71765   0.00314   0.94115   0.00000  Uiso   1.00
C21    C     0.94013   0.70951   0.93604   0.00000  Uiso   1.00
C22    C     0.05013   0.70772   0.93792   0.00000  Uiso   1.00
C23    C     0.10860   0.67651   0.92233   0.00000  Uiso   1.00
H24    H     0.73042   0.66679   0.90715   0.00000  Uiso   1.00
H25    H     0.62553   0.51244   0.92271   0.00000  Uiso   1.00
H26    H     0.64178   0.85209   0.90347   0.00000  Uiso   1.00
H27    H     0.90999   0.62799   0.89056   0.00000  Uiso   1.00
H28    H     0.53119   0.35385   0.94738   0.00000  Uiso   1.00
H29    H     0.56549   0.07002   0.90682   0.00000  Uiso   1.00
H30    H     0.13107   0.59747   0.87960   0.00000  Uiso   1.00
H31    H     0.89981   0.76321   0.96441   0.00000  Uiso   1.00
H32    H     0.80422   0.61414   0.98310   0.00000  Uiso   1.00
H33    H     0.82047   0.95379   0.96387   0.00000  Uiso   1.00
H34    H     0.08868   0.72969   0.95096   0.00000  Uiso   1.00
H35    H     0.67621   0.43640   0.99640   0.00000  Uiso   1.00
H36    H     0.71052   0.15257   0.95584   0.00000  Uiso   1.00
H37    H     0.27610   0.68001   0.92862   0.00000  Uiso   1.00
O38    O     0.53773   0.29535   0.98316   0.00000  Uiso   1.00
O39    O     0.58276   0.23494   0.92995   0.00000  Uiso   1.00
O40    O     0.32477   0.61495   0.89423   0.00000  Uiso   1.00
N41    N     0.57846   0.39372   0.95635   0.00000  Uiso   1.00
N42    N     0.61051   0.06329   0.91843   0.00000  Uiso   1.00
N43    N     0.13928   0.62152   0.89298   0.00000  Uiso   1.00
N44    N     0.65649   0.43814   0.98273   0.00000  Uiso   1.00
N45    N     0.68855   0.10771   0.94481   0.00000  Uiso   1.00
N46    N     0.21732   0.66594   0.91936   0.00000  Uiso   1.00
C47    C     0.26923   0.18888   0.42027   0.00000  Uiso   1.00
C48    C     0.23574   0.11838   0.43666   0.00000  Uiso   1.00
C49    C     0.16409   0.03437   0.43575   0.00000  Uiso   1.00
C50    C     0.14403   0.97967   0.45230   0.00000  Uiso   1.00
C51    C     0.08440   0.86592   0.47519   0.00000  Uiso   1.00
C52    C     0.24456   0.30291   0.42621   0.00000  Uiso   1.00
C53    C     0.18034   0.37406   0.41651   0.00000  Uiso   1.00
C54    C     0.16772   0.47471   0.42427   0.00000  Uiso   1.00
C55    C     0.12184   0.64748   0.43093   0.00000  Uiso   1.00
C56    C     0.39028   0.18114   0.41920   0.00000  Uiso   1.00
C57    C     0.44860   0.14994   0.40360   0.00000  Uiso   1.00
C58    C     0.55867   0.14809   0.40545   0.00000  Uiso   1.00
C59    C     0.73905   0.13179   0.40122   0.00000  Uiso   1.00
C60    C     0.36100   0.24111   0.45129   0.00000  Uiso   1.00
C61    C     0.28558   0.14675   0.45351   0.00000  Uiso   1.00
C62    C     0.26563   0.09216   0.47006   0.00000  Uiso   1.00
C63    C     0.19397   0.00809   0.46918   0.00000  Uiso   1.00
C64    C     0.29440   0.33129   0.44306   0.00000  Uiso   1.00
C65    C     0.28188   0.43186   0.45083   0.00000  Uiso   1.00
C66    C     0.21765   0.50314   0.44115   0.00000  Uiso   1.00
C67    C     0.44013   0.20951   0.43604   0.00000  Uiso   1.00
C68    C     0.55013   0.20772   0.43792   0.00000  Uiso   1.00
C69    C     0.60860   0.17651   0.42233   0.00000  Uiso   1.00
H70    H     0.23042   0.16679   0.40715   0.00000  Uiso   1.00
H71    H     0.12553   0.01244   0.42271   0.00000  Uiso   1.00
H72    H     0.14178   0.35209   0.40347   0.00000  Uiso   1.00
H73    H     0.40999   0.12799   0.39056   0.00000  Uiso   1.00
H74    H     0.03119   0.85385   0.44738   0.00000  Uiso   1.00
H75    H     0.06549   0.57002   0.40682   0.00000  Uiso   1.00
H76    H     0.63107   0.09747   0.37960   0.00000  Uiso   1.00
H77    H     0.39981   0.26321   0.46441   0.00000  Uiso   1.00
H78    H     0.30422   0.11414   0.48310   0.00000  Uiso   1.00
H79    H     0.32047   0.45379   0.46387   0.00000  Uiso   1.00
H80    H     0.58868   0.22969   0.45096   0.00000  Uiso   1.00
H81    H     0.17621   0.93640   0.49640   0.00000  Uiso   1.00
H82    H     0.21052   0.65257   0.45584   0.00000  Uiso   1.00
H83    H     0.77610   0.18001   0.42862   0.00000  Uiso   1.00
O84    O     0.03773   0.79535   0.48316   0.00000  Uiso   1.00
O85    O     0.08276   0.73494   0.42995   0.00000  Uiso   1.00
O86    O     0.82477   0.11495   0.39423   0.00000  Uiso   1.00
N87    N     0.07846   0.89372   0.45635   0.00000  Uiso   1.00
N88    N     0.11051   0.56329   0.41843   0.00000  Uiso   1.00
N89    N     0.63928   0.12152   0.39298   0.00000  Uiso   1.00
N90    N     0.15649   0.93814   0.48273   0.00000  Uiso   1.00
N91    N     0.18855   0.60771   0.44481   0.00000  Uiso   1.00
N92    N     0.71732   0.16594   0.41936   0.00000  Uiso   1.00
C93    C     0.23077   0.31112   0.92027   0.00000  Uiso   1.00
C94    C     0.26426   0.38162   0.93666   0.00000  Uiso   1.00
C95    C     0.33591   0.46563   0.93575   0.00000  Uiso   1.00
C96    C     0.35597   0.52033   0.95230   0.00000  Uiso   1.00
C97    C     0.41560   0.63408   0.97519   0.00000  Uiso   1.00
C98    C     0.25544   0.19709   0.92621   0.00000  Uiso   1.00
C99    C     0.31966   0.12594   0.91651   0.00000  Uiso   1.00
C100   C     0.33228   0.02529   0.92427   0.00000  Uiso   1.00
C101   C     0.37816   0.85252   0.93093   0.00000  Uiso   1.00
C102   C     0.10972   0.31886   0.91920   0.00000  Uiso   1.00
C103   C     0.05140   0.35006   0.90360   0.00000  Uiso   1.00
C104   C     0.94133   0.35191   0.90545   0.00000  Uiso   1.00
C105   C     0.76095   0.36821   0.90122   0.00000  Uiso   1.00
C106   C     0.13900   0.25889   0.95129   0.00000  Uiso   1.00
C107   C     0.21442   0.35325   0.95351   0.00000  Uiso   1.00
C108   C     0.23437   0.40784   0.97006   0.00000  Uiso   1.00
C109   C     0.30603   0.49191   0.96918   0.00000  Uiso   1.00
C110   C     0.20560   0.16871   0.94306   0.00000  Uiso   1.00
C111   C     0.21812   0.06814   0.95083   0.00000  Uiso   1.00
C112   C     0.28235   0.99686   0.94115   0.00000  Uiso   1.00
C113   C     0.05987   0.29049   0.93604   0.00000  Uiso   1.00
C114   C     0.94987   0.29228   0.93792   0.00000  Uiso   1.00
C115   C     0.89140   0.32349   0.92233   0.00000  Uiso   1.00
H116   H     0.26958   0.33321   0.90715   0.00000  Uiso   1.00
H117   H     0.37447   0.48756   0.92271   0.00000  Uiso   1.00
H118   H     0.35822   0.14791   0.90347   0.00000  Uiso   1.00
H119   H     0.09001   0.37201   0.89056   0.00000  Uiso   1.00
H120   H     0.46881   0.64615   0.94738   0.00000  Uiso   1.00
H121   H     0.43451   0.92998   0.90682   0.00000  Uiso   1.00
H122   H     0.86893   0.40253   0.87960   0.00000  Uiso   1.00
H123   H     0.10019   0.23679   0.96441   0.00000  Uiso   1.00
H124   H     0.19578   0.38586   0.98310   0.00000  Uiso   1.00
H125   H     0.17953   0.04621   0.96387   0.00000  Uiso   1.00
H126   H     0.91132   0.27031   0.95096   0.00000  Uiso   1.00
H127   H     0.32379   0.56360   0.99640   0.00000  Uiso   1.00
H128   H     0.28948   0.84743   0.95584   0.00000  Uiso   1.00
H129   H     0.72390   0.31999   0.92862   0.00000  Uiso   1.00
O130   O     0.46227   0.70465   0.98316   0.00000  Uiso   1.00
O131   O     0.41724   0.76506   0.92995   0.00000  Uiso   1.00
O132   O     0.67523   0.38505   0.89423   0.00000  Uiso   1.00
N133   N     0.42154   0.60628   0.95635   0.00000  Uiso   1.00
N134   N     0.38949   0.93671   0.91843   0.00000  Uiso   1.00
N135   N     0.86072   0.37848   0.89298   0.00000  Uiso   1.00
N136   N     0.34351   0.56186   0.98273   0.00000  Uiso   1.00
N137   N     0.31145   0.89229   0.94481   0.00000  Uiso   1.00
N138   N     0.78268   0.33406   0.91936   0.00000  Uiso   1.00
C139   C     0.73077   0.81112   0.42027   0.00000  Uiso   1.00
C140   C     0.76426   0.88162   0.43666   0.00000  Uiso   1.00
C141   C     0.83591   0.96563   0.43575   0.00000  Uiso   1.00
C142   C     0.85597   0.02033   0.45230   0.00000  Uiso   1.00
C143   C     0.91560   0.13408   0.47519   0.00000  Uiso   1.00
C144   C     0.75544   0.69709   0.42621   0.00000  Uiso   1.00
C145   C     0.81966   0.62594   0.41651   0.00000  Uiso   1.00
C146   C     0.83228   0.52529   0.42427   0.00000  Uiso   1.00
C147   C     0.87816   0.35252   0.43093   0.00000  Uiso   1.00
C148   C     0.60972   0.81886   0.41920   0.00000  Uiso   1.00
C149   C     0.55140   0.85006   0.40360   0.00000  Uiso   1.00
C150   C     0.44133   0.85191   0.40545   0.00000  Uiso   1.00
C151   C     0.26095   0.86821   0.40122   0.00000  Uiso   1.00
C152   C     0.63900   0.75889   0.45129   0.00000  Uiso   1.00
C153   C     0.71442   0.85325   0.45351   0.00000  Uiso   1.00
C154   C     0.73437   0.90784   0.47006   0.00000  Uiso   1.00
C155   C     0.80603   0.99191   0.46918   0.00000  Uiso   1.00
C156   C     0.70560   0.66871   0.44306   0.00000  Uiso   1.00
C157   C     0.71812   0.56814   0.45083   0.00000  Uiso   1.00
C158   C     0.78235   0.49686   0.44115   0.00000  Uiso   1.00
C159   C     0.55987   0.79049   0.43604   0.00000  Uiso   1.00
C160   C     0.44987   0.79228   0.43792   0.00000  Uiso   1.00
C161   C     0.39140   0.82349   0.42233   0.00000  Uiso   1.00
H162   H     0.76958   0.83321   0.40715   0.00000  Uiso   1.00
H163   H     0.87447   0.98756   0.42271   0.00000  Uiso   1.00
H164   H     0.85822   0.64791   0.40347   0.00000  Uiso   1.00
H165   H     0.59001   0.87201   0.39056   0.00000  Uiso   1.00
H166   H     0.96881   0.14615   0.44738   0.00000  Uiso   1.00
H167   H     0.93451   0.42998   0.40682   0.00000  Uiso   1.00
H168   H     0.36893   0.90253   0.37960   0.00000  Uiso   1.00
H169   H     0.60019   0.73679   0.46441   0.00000  Uiso   1.00
H170   H     0.69578   0.88586   0.48310   0.00000  Uiso   1.00
H171   H     0.67953   0.54621   0.46387   0.00000  Uiso   1.00
H172   H     0.41132   0.77031   0.45096   0.00000  Uiso   1.00
H173   H     0.82379   0.06360   0.49640   0.00000  Uiso   1.00
H174   H     0.78948   0.34743   0.45584   0.00000  Uiso   1.00
H175   H     0.22390   0.81999   0.42862   0.00000  Uiso   1.00
O176   O     0.96227   0.20465   0.48316   0.00000  Uiso   1.00
O177   O     0.91724   0.26506   0.42995   0.00000  Uiso   1.00
O178   O     0.17523   0.88505   0.39423   0.00000  Uiso   1.00
N179   N     0.92154   0.10628   0.45635   0.00000  Uiso   1.00
N180   N     0.88949   0.43671   0.41843   0.00000  Uiso   1.00
N181   N     0.36072   0.87848   0.39298   0.00000  Uiso   1.00
N182   N     0.84351   0.06186   0.48273   0.00000  Uiso   1.00
N183   N     0.81145   0.39229   0.44481   0.00000  Uiso   1.00
N184   N     0.28268   0.83406   0.41936   0.00000  Uiso   1.00
C185   C     0.68888   0.23077   0.07973   0.00000  Uiso   1.00
C186   C     0.61838   0.26426   0.06334   0.00000  Uiso   1.00
C187   C     0.53437   0.33591   0.06425   0.00000  Uiso   1.00
C188   C     0.47967   0.35597   0.04770   0.00000  Uiso   1.00
C189   C     0.36592   0.41560   0.02481   0.00000  Uiso   1.00
C190   C     0.80291   0.25544   0.07379   0.00000  Uiso   1.00
C191   C     0.87406   0.31966   0.08349   0.00000  Uiso   1.00
C192   C     0.97471   0.33228   0.07573   0.00000  Uiso   1.00
C193   C     0.14748   0.37816   0.06907   0.00000  Uiso   1.00
C194   C     0.68114   0.10972   0.08080   0.00000  Uiso   1.00
C195   C     0.64994   0.05140   0.09640   0.00000  Uiso   1.00
C196   C     0.64809   0.94133   0.09455   0.00000  Uiso   1.00
C197   C     0.63179   0.76095   0.09878   0.00000  Uiso   1.00
C198   C     0.74111   0.13900   0.04871   0.00000  Uiso   1.00
C199   C     0.64675   0.21442   0.04649   0.00000  Uiso   1.00
C200   C     0.59216   0.23437   0.02994   0.00000  Uiso   1.00
C201   C     0.50809   0.30603   0.03082   0.00000  Uiso   1.00
C202   C     0.83129   0.20560   0.05694   0.00000  Uiso   1.00
C203   C     0.93186   0.21812   0.04917   0.00000  Uiso   1.00
C204   C     0.00314   0.28235   0.05885   0.00000  Uiso   1.00
C205   C     0.70951   0.05987   0.06396   0.00000  Uiso   1.00
C206   C     0.70772   0.94987   0.06208   0.00000  Uiso   1.00
C207   C     0.67651   0.89140   0.07767   0.00000  Uiso   1.00
H208   H     0.66679   0.26958   0.09285   0.00000  Uiso   1.00
H209   H     0.51244   0.37447   0.07729   0.00000  Uiso   1.00
H210   H     0.85209   0.35822   0.09653   0.00000  Uiso   1.00
H211   H     0.62799   0.09001   0.10944   0.00000  Uiso   1.00
H212   H     0.35385   0.46881   0.05262   0.00000  Uiso   1.00
H213   H     0.07002   0.43451   0.09318   0.00000  Uiso   1.00
H214   H     0.59747   0.86893   0.12040   0.00000  Uiso   1.00
H215   H     0.76321   0.10019   0.03559   0.00000  Uiso   1.00
H216   H     0.61414   0.19578   0.01690   0.00000  Uiso   1.00
H217   H     0.95379   0.17953   0.03613   0.00000  Uiso   1.00
H218   H     0.72969   0.91132   0.04904   0.00000  Uiso   1.00
H219   H     0.43640   0.32379   0.00360   0.00000  Uiso   1.00
H220   H     0.15257   0.28948   0.04416   0.00000  Uiso   1.00
H221   H     0.68001   0.72390   0.07138   0.00000  Uiso   1.00
O222   O     0.29535   0.46227   0.01684   0.00000  Uiso   1.00
O223   O     0.23494   0.41724   0.07005   0.00000  Uiso   1.00
O224   O     0.61495   0.67523   0.10577   0.00000  Uiso   1.00
N225   N     0.39372   0.42154   0.04365   0.00000  Uiso   1.00
N226   N     0.06329   0.38949   0.08157   0.00000  Uiso   1.00
N227   N     0.62152   0.86072   0.10702   0.00000  Uiso   1.00
N228   N     0.43814   0.34351   0.01727   0.00000  Uiso   1.00
N229   N     0.10771   0.31145   0.05519   0.00000  Uiso   1.00
N230   N     0.66594   0.78268   0.08064   0.00000  Uiso   1.00
C231   C     0.18888   0.73077   0.57973   0.00000  Uiso   1.00
C232   C     0.11838   0.76426   0.56334   0.00000  Uiso   1.00
C233   C     0.03437   0.83591   0.56425   0.00000  Uiso   1.00
C234   C     0.97967   0.85597   0.54770   0.00000  Uiso   1.00
C235   C     0.86592   0.91560   0.52481   0.00000  Uiso   1.00
C236   C     0.30291   0.75544   0.57379   0.00000  Uiso   1.00
C237   C     0.37406   0.81966   0.58349   0.00000  Uiso   1.00
C238   C     0.47471   0.83228   0.57573   0.00000  Uiso   1.00
C239   C     0.64748   0.87816   0.56907   0.00000  Uiso   1.00
C240   C     0.18114   0.60972   0.58080   0.00000  Uiso   1.00
C241   C     0.14994   0.55140   0.59640   0.00000  Uiso   1.00
C242   C     0.14809   0.44133   0.59455   0.00000  Uiso   1.00
C243   C     0.13179   0.26095   0.59878   0.00000  Uiso   1.00
C244   C     0.24111   0.63900   0.54871   0.00000  Uiso   1.00
C245   C     0.14675   0.71442   0.54649   0.00000  Uiso   1.00
C246   C     0.09216   0.73437   0.52994   0.00000  Uiso   1.00
C247   C     0.00809   0.80603   0.53082   0.00000  Uiso   1.00
C248   C     0.33129   0.70560   0.55694   0.00000  Uiso   1.00
C249   C     0.43186   0.71812   0.54917   0.00000  Uiso   1.00
C250   C     0.50314   0.78235   0.55885   0.00000  Uiso   1.00
C251   C     0.20951   0.55987   0.56396   0.00000  Uiso   1.00
C252   C     0.20772   0.44987   0.56208   0.00000  Uiso   1.00
C253   C     0.17651   0.39140   0.57767   0.00000  Uiso   1.00
H254   H     0.16679   0.76958   0.59285   0.00000  Uiso   1.00
H255   H     0.01244   0.87447   0.57729   0.00000  Uiso   1.00
H256   H     0.35209   0.85822   0.59653   0.00000  Uiso   1.00
H257   H     0.12799   0.59001   0.60944   0.00000  Uiso   1.00
H258   H     0.85385   0.96881   0.55262   0.00000  Uiso   1.00
H259   H     0.57002   0.93451   0.59318   0.00000  Uiso   1.00
H260   H     0.09747   0.36893   0.62040   0.00000  Uiso   1.00
H261   H     0.26321   0.60019   0.53559   0.00000  Uiso   1.00
H262   H     0.11414   0.69578   0.51690   0.00000  Uiso   1.00
H263   H     0.45379   0.67953   0.53613   0.00000  Uiso   1.00
H264   H     0.22969   0.41132   0.54904   0.00000  Uiso   1.00
H265   H     0.93640   0.82379   0.50360   0.00000  Uiso   1.00
H266   H     0.65257   0.78948   0.54416   0.00000  Uiso   1.00
H267   H     0.18001   0.22390   0.57138   0.00000  Uiso   1.00
O268   O     0.79535   0.96227   0.51684   0.00000  Uiso   1.00
O269   O     0.73494   0.91724   0.57005   0.00000  Uiso   1.00
O270   O     0.11495   0.17523   0.60577   0.00000  Uiso   1.00
N271   N     0.89372   0.92154   0.54365   0.00000  Uiso   1.00
N272   N     0.56329   0.88949   0.58157   0.00000  Uiso   1.00
N273   N     0.12152   0.36072   0.60702   0.00000  Uiso   1.00
N274   N     0.93814   0.84351   0.51727   0.00000  Uiso   1.00
N275   N     0.60771   0.81145   0.55519   0.00000  Uiso   1.00
N276   N     0.16594   0.28268   0.58064   0.00000  Uiso   1.00
C277   C     0.31112   0.76923   0.07973   0.00000  Uiso   1.00
C278   C     0.38162   0.73574   0.06334   0.00000  Uiso   1.00
C279   C     0.46563   0.66409   0.06425   0.00000  Uiso   1.00
C280   C     0.52033   0.64403   0.04770   0.00000  Uiso   1.00
C281   C     0.63408   0.58440   0.02481   0.00000  Uiso   1.00
C282   C     0.19709   0.74456   0.07379   0.00000  Uiso   1.00
C283   C     0.12594   0.68034   0.08349   0.00000  Uiso   1.00
C284   C     0.02529   0.66772   0.07573   0.00000  Uiso   1.00
C285   C     0.85252   0.62184   0.06907   0.00000  Uiso   1.00
C286   C     0.31886   0.89028   0.08080   0.00000  Uiso   1.00
C287   C     0.35006   0.94860   0.09640   0.00000  Uiso   1.00
C288   C     0.35191   0.05867   0.09455   0.00000  Uiso   1.00
C289   C     0.36821   0.23905   0.09878   0.00000  Uiso   1.00
C290   C     0.25889   0.86100   0.04871   0.00000  Uiso   1.00
C291   C     0.35325   0.78558   0.04649   0.00000  Uiso   1.00
C292   C     0.40784   0.76563   0.02994   0.00000  Uiso   1.00
C293   C     0.49191   0.69397   0.03082   0.00000  Uiso   1.00
C294   C     0.16871   0.79440   0.05694   0.00000  Uiso   1.00
C295   C     0.06814   0.78188   0.04917   0.00000  Uiso   1.00
C296   C     0.99686   0.71765   0.05885   0.00000  Uiso   1.00
C297   C     0.29049   0.94013   0.06396   0.00000  Uiso   1.00
C298   C     0.29228   0.05013   0.06208   0.00000  Uiso   1.00
C299   C     0.32349   0.10860   0.07767   0.00000  Uiso   1.00
H300   H     0.33321   0.73042   0.09285   0.00000  Uiso   1.00
H301   H     0.48756   0.62553   0.07729   0.00000  Uiso   1.00
H302   H     0.14791   0.64178   0.09653   0.00000  Uiso   1.00
H303   H     0.37201   0.90999   0.10944   0.00000  Uiso   1.00
H304   H     0.64615   0.53119   0.05262   0.00000  Uiso   1.00
H305   H     0.92998   0.56549   0.09318   0.00000  Uiso   1.00
H306   H     0.40253   0.13107   0.12040   0.00000  Uiso   1.00
H307   H     0.23679   0.89981   0.03559   0.00000  Uiso   1.00
H308   H     0.38586   0.80422   0.01690   0.00000  Uiso   1.00
H309   H     0.04621   0.82047   0.03613   0.00000  Uiso   1.00
H310   H     0.27031   0.08868   0.04904   0.00000  Uiso   1.00
H311   H     0.56360   0.67621   0.00360   0.00000  Uiso   1.00
H312   H     0.84743   0.71052   0.04416   0.00000  Uiso   1.00
H313   H     0.31999   0.27610   0.07138   0.00000  Uiso   1.00
O314   O     0.70465   0.53773   0.01684   0.00000  Uiso   1.00
O315   O     0.76506   0.58276   0.07005   0.00000  Uiso   1.00
O316   O     0.38505   0.32477   0.10577   0.00000  Uiso   1.00
N317   N     0.60628   0.57846   0.04365   0.00000  Uiso   1.00
N318   N     0.93671   0.61051   0.08157   0.00000  Uiso   1.00
N319   N     0.37848   0.13928   0.10702   0.00000  Uiso   1.00
N320   N     0.56186   0.65649   0.01727   0.00000  Uiso   1.00
N321   N     0.89229   0.68855   0.05519   0.00000  Uiso   1.00
N322   N     0.33406   0.21732   0.08064   0.00000  Uiso   1.00
C323   C     0.81112   0.26923   0.57973   0.00000  Uiso   1.00
C324   C     0.88162   0.23574   0.56334   0.00000  Uiso   1.00
C325   C     0.96563   0.16409   0.56425   0.00000  Uiso   1.00
C326   C     0.02033   0.14403   0.54770   0.00000  Uiso   1.00
C327   C     0.13408   0.08440   0.52481   0.00000  Uiso   1.00
C328   C     0.69709   0.24456   0.57379   0.00000  Uiso   1.00
C329   C     0.62594   0.18034   0.58349   0.00000  Uiso   1.00
C330   C     0.52529   0.16772   0.57573   0.00000  Uiso   1.00
C331   C     0.35252   0.12184   0.56907   0.00000  Uiso   1.00
C332   C     0.81886   0.39028   0.58080   0.00000  Uiso   1.00
C333   C     0.85006   0.44860   0.59640   0.00000  Uiso   1.00
C334   C     0.85191   0.55867   0.59455   0.00000  Uiso   1.00
C335   C     0.86821   0.73905   0.59878   0.00000  Uiso   1.00
C336   C     0.75889   0.36100   0.54871   0.00000  Uiso   1.00
C337   C     0.85325   0.28558   0.54649   0.00000  Uiso   1.00
C338   C     0.90784   0.26563   0.52994   0.00000  Uiso   1.00
C339   C     0.99191   0.19397   0.53082   0.00000  Uiso   1.00
C340   C     0.66871   0.29440   0.55694   0.00000  Uiso   1.00
C341   C     0.56814   0.28188   0.54917   0.00000  Uiso   1.00
C342   C     0.49686   0.21765   0.55885   0.00000  Uiso   1.00
C343   C     0.79049   0.44013   0.56396   0.00000  Uiso   1.00
C344   C     0.79228   0.55013   0.56208   0.00000  Uiso   1.00
C345   C     0.82349   0.60860   0.57767   0.00000  Uiso   1.00
H346   H     0.83321   0.23042   0.59285   0.00000  Uiso   1.00
H347   H     0.98756   0.12553   0.57729   0.00000  Uiso   1.00
H348   H     0.64791   0.14178   0.59653   0.00000  Uiso   1.00
H349   H     0.87201   0.40999   0.60944   0.00000  Uiso   1.00
H350   H     0.14615   0.03119   0.55262   0.00000  Uiso   1.00
H351   H     0.42998   0.06549   0.59318   0.00000  Uiso   1.00
H352   H     0.90253   0.63107   0.62040   0.00000  Uiso   1.00
H353   H     0.73679   0.39981   0.53559   0.00000  Uiso   1.00
H354   H     0.88586   0.30422   0.51690   0.00000  Uiso   1.00
H355   H     0.54621   0.32047   0.53613   0.00000  Uiso   1.00
H356   H     0.77031   0.58868   0.54904   0.00000  Uiso   1.00
H357   H     0.06360   0.17621   0.50360   0.00000  Uiso   1.00
H358   H     0.34743   0.21052   0.54416   0.00000  Uiso   1.00
H359   H     0.81999   0.77610   0.57138   0.00000  Uiso   1.00
O360   O     0.20465   0.03773   0.51684   0.00000  Uiso   1.00
O361   O     0.26506   0.08276   0.57005   0.00000  Uiso   1.00
O362   O     0.88505   0.82477   0.60577   0.00000  Uiso   1.00
N363   N     0.10628   0.07846   0.54365   0.00000  Uiso   1.00
N364   N     0.43671   0.11051   0.58157   0.00000  Uiso   1.00
N365   N     0.87848   0.63928   0.60702   0.00000  Uiso   1.00
N366   N     0.06186   0.15649   0.51727   0.00000  Uiso   1.00
N367   N     0.39229   0.18855   0.55519   0.00000  Uiso   1.00
N368   N     0.83406   0.71732   0.58064   0.00000  Uiso   1.00
C369   C     0.73077   0.68888   0.82973   0.00000  Uiso   1.00
C370   C     0.76426   0.61838   0.81334   0.00000  Uiso   1.00
C371   C     0.83591   0.53437   0.81425   0.00000  Uiso   1.00
C372   C     0.85597   0.47967   0.79770   0.00000  Uiso   1.00
C373   C     0.91560   0.36592   0.77481   0.00000  Uiso   1.00
C374   C     0.75544   0.80291   0.82379   0.00000  Uiso   1.00
C375   C     0.81966   0.87406   0.83349   0.00000  Uiso   1.00
C376   C     0.83228   0.97471   0.82573   0.00000  Uiso   1.00
C377   C     0.87816   0.14748   0.81907   0.00000  Uiso   1.00
C378   C     0.60972   0.68114   0.83080   0.00000  Uiso   1.00
C379   C     0.55140   0.64994   0.84640   0.00000  Uiso   1.00
C380   C     0.44133   0.64809   0.84455   0.00000  Uiso   1.00
C381   C     0.26095   0.63179   0.84878   0.00000  Uiso   1.00
C382   C     0.63900   0.74111   0.79871   0.00000  Uiso   1.00
C383   C     0.71442   0.64675   0.79649   0.00000  Uiso   1.00
C384   C     0.73437   0.59216   0.77994   0.00000  Uiso   1.00
C385   C     0.80603   0.50809   0.78082   0.00000  Uiso   1.00
C386   C     0.70560   0.83129   0.80694   0.00000  Uiso   1.00
C387   C     0.71812   0.93186   0.79917   0.00000  Uiso   1.00
C388   C     0.78235   0.00314   0.80885   0.00000  Uiso   1.00
C389   C     0.55987   0.70951   0.81396   0.00000  Uiso   1.00
C390   C     0.44987   0.70772   0.81208   0.00000  Uiso   1.00
C391   C     0.39140   0.67651   0.82767   0.00000  Uiso   1.00
H392   H     0.76958   0.66679   0.84285   0.00000  Uiso   1.00
H393   H     0.87447   0.51244   0.82729   0.00000  Uiso   1.00
H394   H     0.85822   0.85209   0.84653   0.00000  Uiso   1.00
H395   H     0.59001   0.62799   0.85944   0.00000  Uiso   1.00
H396   H     0.96881   0.35385   0.80262   0.00000  Uiso   1.00
H397   H     0.93451   0.07002   0.84318   0.00000  Uiso   1.00
H398   H     0.36893   0.59747   0.87040   0.00000  Uiso   1.00
H399   H     0.60019   0.76321   0.78559   0.00000  Uiso   1.00
H400   H     0.69578   0.61414   0.76690   0.00000  Uiso   1.00
H401   H     0.67953   0.95379   0.78613   0.00000  Uiso   1.00
H402   H     0.41132   0.72969   0.79904   0.00000  Uiso   1.00
H403   H     0.82379   0.43640   0.75360   0.00000  Uiso   1.00
H404   H     0.78948   0.15257   0.79416   0.00000  Uiso   1.00
H405   H     0.22390   0.68001   0.82138   0.00000  Uiso   1.00
O406   O     0.96227   0.29535   0.76684   0.00000  Uiso   1.00
O407   O     0.91724   0.23494   0.82005   0.00000  Uiso   1.00
O408   O     0.17523   0.61495   0.85577   0.00000  Uiso   1.00
N409   N     0.92154   0.39372   0.79365   0.00000  Uiso   1.00
N410   N     0.88949   0.06329   0.83157   0.00000  Uiso   1.00
N411   N     0.36072   0.62152   0.85702   0.00000  Uiso   1.00
N412   N     0.84351   0.43814   0.76727   0.00000  Uiso   1.00
N413   N     0.81145   0.10771   0.80519   0.00000  Uiso   1.00
N414   N     0.28268   0.66594   0.83064   0.00000  Uiso   1.00
C415   C     0.23077   0.18888   0.32973   0.00000  Uiso   1.00
C416   C     0.26426   0.11838   0.31334   0.00000  Uiso   1.00
C417   C     0.33591   0.03437   0.31425   0.00000  Uiso   1.00
C418   C     0.35597   0.97967   0.29770   0.00000  Uiso   1.00
C419   C     0.41560   0.86592   0.27481   0.00000  Uiso   1.00
C420   C     0.25544   0.30291   0.32379   0.00000  Uiso   1.00
C421   C     0.31966   0.37406   0.33349   0.00000  Uiso   1.00
C422   C     0.33228   0.47471   0.32573   0.00000  Uiso   1.00
C423   C     0.37816   0.64748   0.31907   0.00000  Uiso   1.00
C424   C     0.10972   0.18114   0.33080   0.00000  Uiso   1.00
C425   C     0.05140   0.14994   0.34640   0.00000  Uiso   1.00
C426   C     0.94133   0.14809   0.34455   0.00000  Uiso   1.00
C427   C     0.76095   0.13179   0.34878   0.00000  Uiso   1.00
C428   C     0.13900   0.24111   0.29871   0.00000  Uiso   1.00
C429   C     0.21442   0.14675   0.29649   0.00000  Uiso   1.00
C430   C     0.23437   0.09216   0.27994   0.00000  Uiso   1.00
C431   C     0.30603   0.00809   0.28082   0.00000  Uiso   1.00
C432   C     0.20560   0.33129   0.30694   0.00000  Uiso   1.00
C433   C     0.21812   0.43186   0.29917   0.00000  Uiso   1.00
C434   C     0.28235   0.50314   0.30885   0.00000  Uiso   1.00
C435   C     0.05987   0.20951   0.31396   0.00000  Uiso   1.00
C436   C     0.94987   0.20772   0.31208   0.00000  Uiso   1.00
C437   C     0.89140   0.17651   0.32767   0.00000  Uiso   1.00
H438   H     0.26958   0.16679   0.34285   0.00000  Uiso   1.00
H439   H     0.37447   0.01244   0.32729   0.00000  Uiso   1.00
H440   H     0.35822   0.35209   0.34653   0.00000  Uiso   1.00
H441   H     0.09001   0.12799   0.35944   0.00000  Uiso   1.00
H442   H     0.46881   0.85385   0.30262   0.00000  Uiso   1.00
H443   H     0.43451   0.57002   0.34318   0.00000  Uiso   1.00
H444   H     0.86893   0.09747   0.37040   0.00000  Uiso   1.00
H445   H     0.10019   0.26321   0.28559   0.00000  Uiso   1.00
H446   H     0.19578   0.11414   0.26690   0.00000  Uiso   1.00
H447   H     0.17953   0.45379   0.28613   0.00000  Uiso   1.00
H448   H     0.91132   0.22969   0.29904   0.00000  Uiso   1.00
H449   H     0.32379   0.93640   0.25360   0.00000  Uiso   1.00
H450   H     0.28948   0.65257   0.29416   0.00000  Uiso   1.00
H451   H     0.72390   0.18001   0.32138   0.00000  Uiso   1.00
O452   O     0.46227   0.79535   0.26684   0.00000  Uiso   1.00
O453   O     0.41724   0.73494   0.32005   0.00000  Uiso   1.00
O454   O     0.67523   0.11495   0.35577   0.00000  Uiso   1.00
N455   N     0.42154   0.89372   0.29365   0.00000  Uiso   1.00
N456   N     0.38949   0.56329   0.33157   0.00000  Uiso   1.00
N457   N     0.86072   0.12152   0.35702   0.00000  Uiso   1.00
N458   N     0.34351   0.93814   0.26727   0.00000  Uiso   1.00
N459   N     0.31145   0.60771   0.30519   0.00000  Uiso   1.00
N460   N     0.78268   0.16594   0.33064   0.00000  Uiso   1.00
C461   C     0.26923   0.31112   0.82973   0.00000  Uiso   1.00
C462   C     0.23574   0.38162   0.81334   0.00000  Uiso   1.00
C463   C     0.16409   0.46563   0.81425   0.00000  Uiso   1.00
C464   C     0.14403   0.52033   0.79770   0.00000  Uiso   1.00
C465   C     0.08440   0.63408   0.77481   0.00000  Uiso   1.00
C466   C     0.24456   0.19709   0.82379   0.00000  Uiso   1.00
C467   C     0.18034   0.12594   0.83349   0.00000  Uiso   1.00
C468   C     0.16772   0.02529   0.82573   0.00000  Uiso   1.00
C469   C     0.12184   0.85252   0.81907   0.00000  Uiso   1.00
C470   C     0.39028   0.31886   0.83080   0.00000  Uiso   1.00
C471   C     0.44860   0.35006   0.84640   0.00000  Uiso   1.00
C472   C     0.55867   0.35191   0.84455   0.00000  Uiso   1.00
C473   C     0.73905   0.36821   0.84878   0.00000  Uiso   1.00
C474   C     0.36100   0.25889   0.79871   0.00000  Uiso   1.00
C475   C     0.28558   0.35325   0.79649   0.00000  Uiso   1.00
C476   C     0.26563   0.40784   0.77994   0.00000  Uiso   1.00
C477   C     0.19397   0.49191   0.78082   0.00000  Uiso   1.00
C478   C     0.29440   0.16871   0.80694   0.00000  Uiso   1.00
C479   C     0.28188   0.06814   0.79917   0.00000  Uiso   1.00
C480   C     0.21765   0.99686   0.80885   0.00000  Uiso   1.00
C481   C     0.44013   0.29049   0.81396   0.00000  Uiso   1.00
C482   C     0.55013   0.29228   0.81208   0.00000  Uiso   1.00
C483   C     0.60860   0.32349   0.82767   0.00000  Uiso   1.00
H484   H     0.23042   0.33321   0.84285   0.00000  Uiso   1.00
H485   H     0.12553   0.48756   0.82729   0.00000  Uiso   1.00
H486   H     0.14178   0.14791   0.84653   0.00000  Uiso   1.00
H487   H     0.40999   0.37201   0.85944   0.00000  Uiso   1.00
H488   H     0.03119   0.64615   0.80262   0.00000  Uiso   1.00
H489   H     0.06549   0.92998   0.84318   0.00000  Uiso   1.00
H490   H     0.63107   0.40253   0.87040   0.00000  Uiso   1.00
H491   H     0.39981   0.23679   0.78559   0.00000  Uiso   1.00
H492   H     0.30422   0.38586   0.76690   0.00000  Uiso   1.00
H493   H     0.32047   0.04621   0.78613   0.00000  Uiso   1.00
H494   H     0.58868   0.27031   0.79904   0.00000  Uiso   1.00
H495   H     0.17621   0.56360   0.75360   0.00000  Uiso   1.00
H496   H     0.21052   0.84743   0.79416   0.00000  Uiso   1.00
H497   H     0.77610   0.31999   0.82138   0.00000  Uiso   1.00
O498   O     0.03773   0.70465   0.76684   0.00000  Uiso   1.00
O499   O     0.08276   0.76506   0.82005   0.00000  Uiso   1.00
O500   O     0.82477   0.38505   0.85577   0.00000  Uiso   1.00
N501   N     0.07846   0.60628   0.79365   0.00000  Uiso   1.00
N502   N     0.11051   0.93671   0.83157   0.00000  Uiso   1.00
N503   N     0.63928   0.37848   0.85702   0.00000  Uiso   1.00
N504   N     0.15649   0.56186   0.76727   0.00000  Uiso   1.00
N505   N     0.18855   0.89229   0.80519   0.00000  Uiso   1.00
N506   N     0.71732   0.33406   0.83064   0.00000  Uiso   1.00
C507   C     0.76923   0.81112   0.32973   0.00000  Uiso   1.00
C508   C     0.73574   0.88162   0.31334   0.00000  Uiso   1.00
C509   C     0.66409   0.96563   0.31425   0.00000  Uiso   1.00
C510   C     0.64403   0.02033   0.29770   0.00000  Uiso   1.00
C511   C     0.58440   0.13408   0.27481   0.00000  Uiso   1.00
C512   C     0.74456   0.69709   0.32379   0.00000  Uiso   1.00
C513   C     0.68034   0.62594   0.33349   0.00000  Uiso   1.00
C514   C     0.66772   0.52529   0.32573   0.00000  Uiso   1.00
C515   C     0.62184   0.35252   0.31907   0.00000  Uiso   1.00
C516   C     0.89028   0.81886   0.33080   0.00000  Uiso   1.00
C517   C     0.94860   0.85006   0.34640   0.00000  Uiso   1.00
C518   C     0.05867   0.85191   0.34455   0.00000  Uiso   1.00
C519   C     0.23905   0.86821   0.34878   0.00000  Uiso   1.00
C520   C     0.86100   0.75889   0.29871   0.00000  Uiso   1.00
C521   C     0.78558   0.85325   0.29649   0.00000  Uiso   1.00
C522   C     0.76563   0.90784   0.27994   0.00000  Uiso   1.00
C523   C     0.69397   0.99191   0.28082   0.00000  Uiso   1.00
C524   C     0.79440   0.66871   0.30694   0.00000  Uiso   1.00
C525   C     0.78188   0.56814   0.29917   0.00000  Uiso   1.00
C526   C     0.71765   0.49686   0.30885   0.00000  Uiso   1.00
C527   C     0.94013   0.79049   0.31396   0.00000  Uiso   1.00
C528   C     0.05013   0.79228   0.31208   0.00000  Uiso   1.00
C529   C     0.10860   0.82349   0.32767   0.00000  Uiso   1.00
H530   H     0.73042   0.83321   0.34285   0.00000  Uiso   1.00
H531   H     0.62553   0.98756   0.32729   0.00000  Uiso   1.00
H532   H     0.64178   0.64791   0.34653   0.00000  Uiso   1.00
H533   H     0.90999   0.87201   0.35944   0.00000  Uiso   1.00
H534   H     0.53119   0.14615   0.30262   0.00000  Uiso   1.00
H535   H     0.56549   0.42998   0.34318   0.00000  Uiso   1.00
H536   H     0.13107   0.90253   0.37040   0.00000  Uiso   1.00
H537   H     0.89981   0.73679   0.28559   0.00000  Uiso   1.00
H538   H     0.80422   0.88586   0.26690   0.00000  Uiso   1.00
H539   H     0.82047   0.54621   0.28613   0.00000  Uiso   1.00
H540   H     0.08868   0.77031   0.29904   0.00000  Uiso   1.00
H541   H     0.67621   0.06360   0.25360   0.00000  Uiso   1.00
H542   H     0.71052   0.34743   0.29416   0.00000  Uiso   1.00
H543   H     0.27610   0.81999   0.32138   0.00000  Uiso   1.00
O544   O     0.53773   0.20465   0.26684   0.00000  Uiso   1.00
O545   O     0.58276   0.26506   0.32005   0.00000  Uiso   1.00
O546   O     0.32477   0.88505   0.35577   0.00000  Uiso   1.00
N547   N     0.57846   0.10628   0.29365   0.00000  Uiso   1.00
N548   N     0.61051   0.43671   0.33157   0.00000  Uiso   1.00
N549   N     0.13928   0.87848   0.35702   0.00000  Uiso   1.00
N550   N     0.65649   0.06186   0.26727   0.00000  Uiso   1.00
N551   N     0.68855   0.39229   0.30519   0.00000  Uiso   1.00
N552   N     0.21732   0.83406   0.33064   0.00000  Uiso   1.00
C553   C     0.81112   0.23077   0.67027   0.00000  Uiso   1.00
C554   C     0.88162   0.26426   0.68666   0.00000  Uiso   1.00
C555   C     0.96563   0.33591   0.68575   0.00000  Uiso   1.00
C556   C     0.02033   0.35597   0.70230   0.00000  Uiso   1.00
C557   C     0.13408   0.41560   0.72519   0.00000  Uiso   1.00
C558   C     0.69709   0.25544   0.67621   0.00000  Uiso   1.00
C559   C     0.62594   0.31966   0.66651   0.00000  Uiso   1.00
C560   C     0.52529   0.33228   0.67427   0.00000  Uiso   1.00
C561   C     0.35252   0.37816   0.68093   0.00000  Uiso   1.00
C562   C     0.81886   0.10972   0.66920   0.00000  Uiso   1.00
C563   C     0.85006   0.05140   0.65360   0.00000  Uiso   1.00
C564   C     0.85191   0.94133   0.65545   0.00000  Uiso   1.00
C565   C     0.86821   0.76095   0.65122   0.00000  Uiso   1.00
C566   C     0.75889   0.13900   0.70129   0.00000  Uiso   1.00
C567   C     0.85325   0.21442   0.70351   0.00000  Uiso   1.00
C568   C     0.90784   0.23437   0.72006   0.00000  Uiso   1.00
C569   C     0.99191   0.30603   0.71918   0.00000  Uiso   1.00
C570   C     0.66871   0.20560   0.69306   0.00000  Uiso   1.00
C571   C     0.56814   0.21812   0.70083   0.00000  Uiso   1.00
C572   C     0.49686   0.28235   0.69115   0.00000  Uiso   1.00
C573   C     0.79049   0.05987   0.68604   0.00000  Uiso   1.00
C574   C     0.79228   0.94987   0.68792   0.00000  Uiso   1.00
C575   C     0.82349   0.89140   0.67233   0.00000  Uiso   1.00
H576   H     0.83321   0.26958   0.65715   0.00000  Uiso   1.00
H577   H     0.98756   0.37447   0.67271   0.00000  Uiso   1.00
H578   H     0.64791   0.35822   0.65347   0.00000  Uiso   1.00
H579   H     0.87201   0.09001   0.64056   0.00000  Uiso   1.00
H580   H     0.14615   0.46881   0.69738   0.00000  Uiso   1.00
H581   H     0.42998   0.43451   0.65682   0.00000  Uiso   1.00
H582   H     0.90253   0.86893   0.62960   0.00000  Uiso   1.00
H583   H     0.73679   0.10019   0.71441   0.00000  Uiso   1.00
H584   H     0.88586   0.19578   0.73310   0.00000  Uiso   1.00
H585   H     0.54621   0.17953   0.71387   0.00000  Uiso   1.00
H586   H     0.77031   0.91132   0.70096   0.00000  Uiso   1.00
H587   H     0.06360   0.32379   0.74640   0.00000  Uiso   1.00
H588   H     0.34743   0.28948   0.70584   0.00000  Uiso   1.00
H589   H     0.81999   0.72390   0.67862   0.00000  Uiso   1.00
O590   O     0.20465   0.46227   0.73316   0.00000  Uiso   1.00
O591   O     0.26506   0.41724   0.67995   0.00000  Uiso   1.00
O592   O     0.88505   0.67523   0.64423   0.00000  Uiso   1.00
N593   N     0.10628   0.42154   0.70635   0.00000  Uiso   1.00
N594   N     0.43671   0.38949   0.66843   0.00000  Uiso   1.00
N595   N     0.87848   0.86072   0.64298   0.00000  Uiso   1.00
N596   N     0.06186   0.34351   0.73273   0.00000  Uiso   1.00
N597   N     0.39229   0.31145   0.69481   0.00000  Uiso   1.00
N598   N     0.83406   0.78268   0.66936   0.00000  Uiso   1.00
C599   C     0.31112   0.73077   0.17027   0.00000  Uiso   1.00
C600   C     0.38162   0.76426   0.18666   0.00000  Uiso   1.00
C601   C     0.46563   0.83591   0.18575   0.00000  Uiso   1.00
C602   C     0.52033   0.85597   0.20230   0.00000  Uiso   1.00
C603   C     0.63408   0.91560   0.22519   0.00000  Uiso   1.00
C604   C     0.19709   0.75544   0.17621   0.00000  Uiso   1.00
C605   C     0.12594   0.81966   0.16651   0.00000  Uiso   1.00
C606   C     0.02529   0.83228   0.17427   0.00000  Uiso   1.00
C607   C     0.85252   0.87816   0.18093   0.00000  Uiso   1.00
C608   C     0.31886   0.60972   0.16920   0.00000  Uiso   1.00
C609   C     0.35006   0.55140   0.15360   0.00000  Uiso   1.00
C610   C     0.35191   0.44133   0.15545   0.00000  Uiso   1.00
C611   C     0.36821   0.26095   0.15122   0.00000  Uiso   1.00
C612   C     0.25889   0.63900   0.20129   0.00000  Uiso   1.00
C613   C     0.35325   0.71442   0.20351   0.00000  Uiso   1.00
C614   C     0.40784   0.73437   0.22006   0.00000  Uiso   1.00
C615   C     0.49191   0.80603   0.21918   0.00000  Uiso   1.00
C616   C     0.16871   0.70560   0.19306   0.00000  Uiso   1.00
C617   C     0.06814   0.71812   0.20083   0.00000  Uiso   1.00
C618   C     0.99686   0.78235   0.19115   0.00000  Uiso   1.00
C619   C     0.29049   0.55987   0.18604   0.00000  Uiso   1.00
C620   C     0.29228   0.44987   0.18792   0.00000  Uiso   1.00
C621   C     0.32349   0.39140   0.17233   0.00000  Uiso   1.00
H622   H     0.33321   0.76958   0.15715   0.00000  Uiso   1.00
H623   H     0.48756   0.87447   0.17271   0.00000  Uiso   1.00
H624   H     0.14791   0.85822   0.15347   0.00000  Uiso   1.00
H625   H     0.37201   0.59001   0.14056   0.00000  Uiso   1.00
H626   H     0.64615   0.96881   0.19738   0.00000  Uiso   1.00
H627   H     0.92998   0.93451   0.15682   0.00000  Uiso   1.00
H628   H     0.40253   0.36893   0.12960   0.00000  Uiso   1.00
H629   H     0.23679   0.60019   0.21441   0.00000  Uiso   1.00
H630   H     0.38586   0.69578   0.23310   0.00000  Uiso   1.00
H631   H     0.04621   0.67953   0.21387   0.00000  Uiso   1.00
H632   H     0.27031   0.41132   0.20096   0.00000  Uiso   1.00
H633   H     0.56360   0.82379   0.24640   0.00000  Uiso   1.00
H634   H     0.84743   0.78948   0.20584   0.00000  Uiso   1.00
H635   H     0.31999   0.22390   0.17862   0.00000  Uiso   1.00
O636   O     0.70465   0.96227   0.23316   0.00000  Uiso   1.00
O637   O     0.76506   0.91724   0.17995   0.00000  Uiso   1.00
O638   O     0.38505   0.17523   0.14423   0.00000  Uiso   1.00
N639   N     0.60628   0.92154   0.20635   0.00000  Uiso   1.00
N640   N     0.93671   0.88949   0.16843   0.00000  Uiso   1.00
N641   N     0.37848   0.36072   0.14298   0.00000  Uiso   1.00
N642   N     0.56186   0.84351   0.23273   0.00000  Uiso   1.00
N643   N     0.89229   0.81145   0.19481   0.00000  Uiso   1.00
N644   N     0.33406   0.28268   0.16936   0.00000  Uiso   1.00
C645   C     0.18888   0.76923   0.67027   0.00000  Uiso   1.00
C646   C     0.11838   0.73574   0.68666   0.00000  Uiso   1.00
C647   C     0.03437   0.66409   0.68575   0.00000  Uiso   1.00
C648   C     0.97967   0.64403   0.70230   0.00000  Uiso   1.00
C649   C     0.86592   0.58440   0.72519   0.00000  Uiso   1.00
C650   C     0.30291   0.74456   0.67621   0.00000  Uiso   1.00
C651   C     0.37406   0.68034   0.66651   0.00000  Uiso   1.00
C652   C     0.47471   0.66772   0.67427   0.00000  Uiso   1.00
C653   C     0.64748   0.62184   0.68093   0.00000  Uiso   1.00
C654   C     0.18114   0.89028   0.66920   0.00000  Uiso   1.00
C655   C     0.14994   0.94860   0.65360   0.00000  Uiso   1.00
C656   C     0.14809   0.05867   0.65545   0.00000  Uiso   1.00
C657   C     0.13179   0.23905   0.65122   0.00000  Uiso   1.00
C658   C     0.24111   0.86100   0.70129   0.00000  Uiso   1.00
C659   C     0.14675   0.78558   0.70351   0.00000  Uiso   1.00
C660   C     0.09216   0.76563   0.72006   0.00000  Uiso   1.00
C661   C     0.00809   0.69397   0.71918   0.00000  Uiso   1.00
C662   C     0.33129   0.79440   0.69306   0.00000  Uiso   1.00
C663   C     0.43186   0.78188   0.70083   0.00000  Uiso   1.00
C664   C     0.50314   0.71765   0.69115   0.00000  Uiso   1.00
C665   C     0.20951   0.94013   0.68604   0.00000  Uiso   1.00
C666   C     0.20772   0.05013   0.68792   0.00000  Uiso   1.00
C667   C     0.17651   0.10860   0.67233   0.00000  Uiso   1.00
H668   H     0.16679   0.73042   0.65715   0.00000  Uiso   1.00
H669   H     0.01244   0.62553   0.67271   0.00000  Uiso   1.00
H670   H     0.35209   0.64178   0.65347   0.00000  Uiso   1.00
H671   H     0.12799   0.90999   0.64056   0.00000  Uiso   1.00
H672   H     0.85385   0.53119   0.69738   0.00000  Uiso   1.00
H673   H     0.57002   0.56549   0.65682   0.00000  Uiso   1.00
H674   H     0.09747   0.13107   0.62960   0.00000  Uiso   1.00
H675   H     0.26321   0.89981   0.71441   0.00000  Uiso   1.00
H676   H     0.11414   0.80422   0.73310   0.00000  Uiso   1.00
H677   H     0.45379   0.82047   0.71387   0.00000  Uiso   1.00
H678   H     0.22969   0.08868   0.70096   0.00000  Uiso   1.00
H679   H     0.93640   0.67621   0.74640   0.00000  Uiso   1.00
H680   H     0.65257   0.71052   0.70584   0.00000  Uiso   1.00
H681   H     0.18001   0.27610   0.67862   0.00000  Uiso   1.00
O682   O     0.79535   0.53773   0.73316   0.00000  Uiso   1.00
O683   O     0.73494   0.58276   0.67995   0.00000  Uiso   1.00
O684   O     0.11495   0.32477   0.64423   0.00000  Uiso   1.00
N685   N     0.89372   0.57846   0.70635   0.00000  Uiso   1.00
N686   N     0.56329   0.61051   0.66843   0.00000  Uiso   1.00
N687   N     0.12152   0.13928   0.64298   0.00000  Uiso   1.00
N688   N     0.93814   0.65649   0.73273   0.00000  Uiso   1.00
N689   N     0.60771   0.68855   0.69481   0.00000  Uiso   1.00
N690   N     0.16594   0.21732   0.66936   0.00000  Uiso   1.00
C691   C     0.68888   0.26923   0.17027   0.00000  Uiso   1.00
C692   C     0.61838   0.23574   0.18666   0.00000  Uiso   1.00
C693   C     0.53437   0.16409   0.18575   0.00000  Uiso   1.00
C694   C     0.47967   0.14403   0.20230   0.00000  Uiso   1.00
C695   C     0.36592   0.08440   0.22519   0.00000  Uiso   1.00
C696   C     0.80291   0.24456   0.17621   0.00000  Uiso   1.00
C697   C     0.87406   0.18034   0.16651   0.00000  Uiso   1.00
C698   C     0.97471   0.16772   0.17427   0.00000  Uiso   1.00
C699   C     0.14748   0.12184   0.18093   0.00000  Uiso   1.00
C700   C     0.68114   0.39028   0.16920   0.00000  Uiso   1.00
C701   C     0.64994   0.44860   0.15360   0.00000  Uiso   1.00
C702   C     0.64809   0.55867   0.15545   0.00000  Uiso   1.00
C703   C     0.63179   0.73905   0.15122   0.00000  Uiso   1.00
C704   C     0.74111   0.36100   0.20129   0.00000  Uiso   1.00
C705   C     0.64675   0.28558   0.20351   0.00000  Uiso   1.00
C706   C     0.59216   0.26563   0.22006   0.00000  Uiso   1.00
C707   C     0.50809   0.19397   0.21918   0.00000  Uiso   1.00
C708   C     0.83129   0.29440   0.19306   0.00000  Uiso   1.00
C709   C     0.93186   0.28188   0.20083   0.00000  Uiso   1.00
C710   C     0.00314   0.21765   0.19115   0.00000  Uiso   1.00
C711   C     0.70951   0.44013   0.18604   0.00000  Uiso   1.00
C712   C     0.70772   0.55013   0.18792   0.00000  Uiso   1.00
C713   C     0.67651   0.60860   0.17233   0.00000  Uiso   1.00
H714   H     0.66679   0.23042   0.15715   0.00000  Uiso   1.00
H715   H     0.51244   0.12553   0.17271   0.00000  Uiso   1.00
H716   H     0.85209   0.14178   0.15347   0.00000  Uiso   1.00
H717   H     0.62799   0.40999   0.14056   0.00000  Uiso   1.00
H718   H     0.35385   0.03119   0.19738   0.00000  Uiso   1.00
H719   H     0.07002   0.06549   0.15682   0.00000  Uiso   1.00
H720   H     0.59747   0.63107   0.12960   0.00000  Uiso   1.00
H721   H     0.76321   0.39981   0.21441   0.00000  Uiso   1.00
H722   H     0.61414   0.30422   0.23310   0.00000  Uiso   1.00
H723   H     0.95379   0.32047   0.21387   0.00000  Uiso   1.00
H724   H     0.72969   0.58868   0.20096   0.00000  Uiso   1.00
H725   H     0.43640   0.17621   0.24640   0.00000  Uiso   1.00
H726   H     0.15257   0.21052   0.20584   0.00000  Uiso   1.00
H727   H     0.68001   0.77610   0.17862   0.00000  Uiso   1.00
O728   O     0.29535   0.03773   0.23316   0.00000  Uiso   1.00
O729   O     0.23494   0.08276   0.17995   0.00000  Uiso   1.00
O730   O     0.61495   0.82477   0.14423   0.00000  Uiso   1.00
N731   N     0.39372   0.07846   0.20635   0.00000  Uiso   1.00
N732   N     0.06329   0.11051   0.16843   0.00000  Uiso   1.00
N733   N     0.62152   0.63928   0.14298   0.00000  Uiso   1.00
N734   N     0.43814   0.15649   0.23273   0.00000  Uiso   1.00
N735   N     0.10771   0.18855   0.19481   0.00000  Uiso   1.00
N736   N     0.66594   0.71732   0.16936   0.00000  Uiso   1.00
