data_job_05682
_audit_creation_date              2018-12-19
_audit_creation_method            'Materials Studio'
_symmetry_space_group_name_H-M    'P1'
_symmetry_Int_Tables_number       1
_symmetry_cell_setting            triclinic
loop_
_symmetry_equiv_pos_as_xyz
  x,y,z
_cell_length_a                    16.7996
_cell_length_b                    16.7996
_cell_length_c                    44.1510
_cell_angle_alpha                 90.0000
_cell_angle_beta                  90.0000
_cell_angle_gamma                 90.0000
loop_
_atom_site_label
_atom_site_type_symbol
_atom_site_fract_x
_atom_site_fract_y
_atom_site_fract_z
_atom_site_U_iso_or_equiv
_atom_site_adp_type
_atom_site_occupancy
C1     C     0.25158   0.23153   0.43616   0.00000  Uiso   1.00
C2     C     0.23508   0.23761   0.47005   0.00000  Uiso   1.00
C3     C     0.27232   0.19350   0.49253   0.00000  Uiso   1.00
C4     C     0.24884   0.20784   0.52218   0.00000  Uiso   1.00
C5     C     0.23210   0.20866   0.57375   0.00000  Uiso   1.00
C6     C     0.17178   0.21295   0.42130   0.00000  Uiso   1.00
C7     C     0.15582   0.14812   0.40278   0.00000  Uiso   1.00
C8     C     0.07905   0.14170   0.39139   0.00000  Uiso   1.00
C9     C     0.96407   0.10428   0.36725   0.00000  Uiso   1.00
C10    C     0.27390   0.31522   0.42584   0.00000  Uiso   1.00
C11    C     0.34379   0.33638   0.41113   0.00000  Uiso   1.00
C12    C     0.35299   0.41606   0.40356   0.00000  Uiso   1.00
C13    C     0.39657   0.53743   0.38647   0.00000  Uiso   1.00
C14    C     0.14364   0.33542   0.44884   0.00000  Uiso   1.00
C15    C     0.17645   0.29404   0.47693   0.00000  Uiso   1.00
C16    C     0.15290   0.30845   0.50656   0.00000  Uiso   1.00
C17    C     0.19011   0.26437   0.52908   0.00000  Uiso   1.00
C18    C     0.11316   0.26938   0.42818   0.00000  Uiso   1.00
C19    C     0.03640   0.26306   0.41681   0.00000  Uiso   1.00
C20    C     0.02032   0.19823   0.39829   0.00000  Uiso   1.00
C21    C     0.21528   0.37165   0.43272   0.00000  Uiso   1.00
C22    C     0.22437   0.45132   0.42517   0.00000  Uiso   1.00
C23    C     0.29426   0.47259   0.41046   0.00000  Uiso   1.00
H24    H     0.29722   0.18760   0.43080   0.00000  Uiso   1.00
H25    H     0.31769   0.14983   0.48719   0.00000  Uiso   1.00
H26    H     0.20120   0.10447   0.39746   0.00000  Uiso   1.00
H27    H     0.38915   0.29269   0.40581   0.00000  Uiso   1.00
H28    H     0.31450   0.13283   0.55275   0.00000  Uiso   1.00
H29    H     0.06889   0.03718   0.36353   0.00000  Uiso   1.00
H30    H     0.46521   0.43410   0.38114   0.00000  Uiso   1.00
H31    H     0.09800   0.37936   0.45420   0.00000  Uiso   1.00
H32    H     0.10753   0.35212   0.51188   0.00000  Uiso   1.00
H33    H     0.99104   0.30674   0.42215   0.00000  Uiso   1.00
H34    H     0.17899   0.49497   0.43050   0.00000  Uiso   1.00
H35    H     0.14393   0.29701   0.57279   0.00000  Uiso   1.00
H36    H     0.89832   0.20136   0.38357   0.00000  Uiso   1.00
H37    H     0.29464   0.59827   0.40118   0.00000  Uiso   1.00
O38    O     0.23906   0.19352   0.60029   0.00000  Uiso   1.00
O39    O     0.91684   0.06804   0.35204   0.00000  Uiso   1.00
O40    O     0.43680   0.58878   0.37514   0.00000  Uiso   1.00
N41    N     0.27306   0.17522   0.54955   0.00000  Uiso   1.00
N42    N     0.04343   0.08579   0.37265   0.00000  Uiso   1.00
N43    N     0.41394   0.45686   0.38910   0.00000  Uiso   1.00
N44    N     0.18128   0.26356   0.56033   0.00000  Uiso   1.00
N45    N     0.95164   0.17413   0.38343   0.00000  Uiso   1.00
N46    N     0.32216   0.54521   0.39989   0.00000  Uiso   1.00
C47    C     0.75158   0.73153   0.93616   0.00000  Uiso   1.00
C48    C     0.73508   0.73761   0.97005   0.00000  Uiso   1.00
C49    C     0.77232   0.69350   0.99253   0.00000  Uiso   1.00
C50    C     0.74884   0.70784   0.02218   0.00000  Uiso   1.00
C51    C     0.73210   0.70866   0.07375   0.00000  Uiso   1.00
C52    C     0.67178   0.71295   0.92130   0.00000  Uiso   1.00
C53    C     0.65582   0.64812   0.90278   0.00000  Uiso   1.00
C54    C     0.57905   0.64170   0.89139   0.00000  Uiso   1.00
C55    C     0.46407   0.60428   0.86725   0.00000  Uiso   1.00
C56    C     0.77390   0.81522   0.92584   0.00000  Uiso   1.00
C57    C     0.84379   0.83638   0.91113   0.00000  Uiso   1.00
C58    C     0.85299   0.91606   0.90356   0.00000  Uiso   1.00
C59    C     0.89657   0.03743   0.88647   0.00000  Uiso   1.00
C60    C     0.64364   0.83542   0.94884   0.00000  Uiso   1.00
C61    C     0.67645   0.79404   0.97693   0.00000  Uiso   1.00
C62    C     0.65290   0.80845   0.00656   0.00000  Uiso   1.00
C63    C     0.69011   0.76437   0.02908   0.00000  Uiso   1.00
C64    C     0.61316   0.76938   0.92818   0.00000  Uiso   1.00
C65    C     0.53640   0.76306   0.91681   0.00000  Uiso   1.00
C66    C     0.52032   0.69823   0.89829   0.00000  Uiso   1.00
C67    C     0.71528   0.87165   0.93272   0.00000  Uiso   1.00
C68    C     0.72437   0.95132   0.92517   0.00000  Uiso   1.00
C69    C     0.79426   0.97259   0.91046   0.00000  Uiso   1.00
H70    H     0.79722   0.68760   0.93080   0.00000  Uiso   1.00
H71    H     0.81769   0.64983   0.98719   0.00000  Uiso   1.00
H72    H     0.70120   0.60447   0.89746   0.00000  Uiso   1.00
H73    H     0.88915   0.79269   0.90581   0.00000  Uiso   1.00
H74    H     0.81450   0.63283   0.05275   0.00000  Uiso   1.00
H75    H     0.56889   0.53718   0.86353   0.00000  Uiso   1.00
H76    H     0.96521   0.93410   0.88114   0.00000  Uiso   1.00
H77    H     0.59800   0.87936   0.95420   0.00000  Uiso   1.00
H78    H     0.60753   0.85212   0.01188   0.00000  Uiso   1.00
H79    H     0.49104   0.80674   0.92215   0.00000  Uiso   1.00
H80    H     0.67899   0.99497   0.93050   0.00000  Uiso   1.00
H81    H     0.64393   0.79701   0.07279   0.00000  Uiso   1.00
H82    H     0.39832   0.70136   0.88357   0.00000  Uiso   1.00
H83    H     0.79464   0.09827   0.90118   0.00000  Uiso   1.00
O84    O     0.73906   0.69352   0.10029   0.00000  Uiso   1.00
O85    O     0.41684   0.56804   0.85204   0.00000  Uiso   1.00
O86    O     0.93680   0.08878   0.87514   0.00000  Uiso   1.00
N87    N     0.77306   0.67522   0.04955   0.00000  Uiso   1.00
N88    N     0.54343   0.58579   0.87265   0.00000  Uiso   1.00
N89    N     0.91394   0.95686   0.88910   0.00000  Uiso   1.00
N90    N     0.68128   0.76356   0.06033   0.00000  Uiso   1.00
N91    N     0.45164   0.67413   0.88343   0.00000  Uiso   1.00
N92    N     0.82216   0.04521   0.89989   0.00000  Uiso   1.00
C93    C     0.24842   0.26847   0.93616   0.00000  Uiso   1.00
C94    C     0.26492   0.26239   0.97005   0.00000  Uiso   1.00
C95    C     0.22768   0.30650   0.99253   0.00000  Uiso   1.00
C96    C     0.25116   0.29216   0.02218   0.00000  Uiso   1.00
C97    C     0.26790   0.29134   0.07375   0.00000  Uiso   1.00
C98    C     0.32822   0.28705   0.92130   0.00000  Uiso   1.00
C99    C     0.34418   0.35188   0.90278   0.00000  Uiso   1.00
C100   C     0.42095   0.35830   0.89139   0.00000  Uiso   1.00
C101   C     0.53593   0.39572   0.86725   0.00000  Uiso   1.00
C102   C     0.22610   0.18478   0.92584   0.00000  Uiso   1.00
C103   C     0.15621   0.16362   0.91113   0.00000  Uiso   1.00
C104   C     0.14701   0.08394   0.90356   0.00000  Uiso   1.00
C105   C     0.10343   0.96257   0.88647   0.00000  Uiso   1.00
C106   C     0.35636   0.16458   0.94884   0.00000  Uiso   1.00
C107   C     0.32355   0.20596   0.97693   0.00000  Uiso   1.00
C108   C     0.34710   0.19155   0.00656   0.00000  Uiso   1.00
C109   C     0.30989   0.23563   0.02908   0.00000  Uiso   1.00
C110   C     0.38684   0.23062   0.92818   0.00000  Uiso   1.00
C111   C     0.46360   0.23694   0.91681   0.00000  Uiso   1.00
C112   C     0.47968   0.30177   0.89829   0.00000  Uiso   1.00
C113   C     0.28472   0.12835   0.93272   0.00000  Uiso   1.00
C114   C     0.27563   0.04868   0.92517   0.00000  Uiso   1.00
C115   C     0.20574   0.02741   0.91046   0.00000  Uiso   1.00
H116   H     0.20278   0.31240   0.93080   0.00000  Uiso   1.00
H117   H     0.18231   0.35017   0.98719   0.00000  Uiso   1.00
H118   H     0.29880   0.39553   0.89746   0.00000  Uiso   1.00
H119   H     0.11085   0.20731   0.90581   0.00000  Uiso   1.00
H120   H     0.18550   0.36717   0.05275   0.00000  Uiso   1.00
H121   H     0.43111   0.46282   0.86353   0.00000  Uiso   1.00
H122   H     0.03479   0.06590   0.88114   0.00000  Uiso   1.00
H123   H     0.40200   0.12064   0.95420   0.00000  Uiso   1.00
H124   H     0.39247   0.14788   0.01188   0.00000  Uiso   1.00
H125   H     0.50896   0.19326   0.92215   0.00000  Uiso   1.00
H126   H     0.32101   0.00503   0.93050   0.00000  Uiso   1.00
H127   H     0.35607   0.20299   0.07279   0.00000  Uiso   1.00
H128   H     0.60168   0.29864   0.88357   0.00000  Uiso   1.00
H129   H     0.20536   0.90173   0.90118   0.00000  Uiso   1.00
O130   O     0.26094   0.30648   0.10029   0.00000  Uiso   1.00
O131   O     0.58316   0.43196   0.85204   0.00000  Uiso   1.00
O132   O     0.06320   0.91122   0.87514   0.00000  Uiso   1.00
N133   N     0.22694   0.32478   0.04955   0.00000  Uiso   1.00
N134   N     0.45657   0.41421   0.87265   0.00000  Uiso   1.00
N135   N     0.08606   0.04314   0.88910   0.00000  Uiso   1.00
N136   N     0.31872   0.23644   0.06033   0.00000  Uiso   1.00
N137   N     0.54836   0.32587   0.88343   0.00000  Uiso   1.00
N138   N     0.17784   0.95479   0.89989   0.00000  Uiso   1.00
C139   C     0.74842   0.76847   0.43616   0.00000  Uiso   1.00
C140   C     0.76492   0.76239   0.47005   0.00000  Uiso   1.00
C141   C     0.72768   0.80650   0.49253   0.00000  Uiso   1.00
C142   C     0.75116   0.79216   0.52218   0.00000  Uiso   1.00
C143   C     0.76790   0.79134   0.57375   0.00000  Uiso   1.00
C144   C     0.82822   0.78705   0.42130   0.00000  Uiso   1.00
C145   C     0.84418   0.85188   0.40278   0.00000  Uiso   1.00
C146   C     0.92095   0.85830   0.39139   0.00000  Uiso   1.00
C147   C     0.03593   0.89572   0.36725   0.00000  Uiso   1.00
C148   C     0.72610   0.68478   0.42584   0.00000  Uiso   1.00
C149   C     0.65621   0.66362   0.41113   0.00000  Uiso   1.00
C150   C     0.64701   0.58394   0.40356   0.00000  Uiso   1.00
C151   C     0.60343   0.46257   0.38647   0.00000  Uiso   1.00
C152   C     0.85636   0.66458   0.44884   0.00000  Uiso   1.00
C153   C     0.82355   0.70596   0.47693   0.00000  Uiso   1.00
C154   C     0.84710   0.69155   0.50656   0.00000  Uiso   1.00
C155   C     0.80989   0.73563   0.52908   0.00000  Uiso   1.00
C156   C     0.88684   0.73062   0.42818   0.00000  Uiso   1.00
C157   C     0.96360   0.73694   0.41681   0.00000  Uiso   1.00
C158   C     0.97968   0.80177   0.39829   0.00000  Uiso   1.00
C159   C     0.78472   0.62835   0.43272   0.00000  Uiso   1.00
C160   C     0.77563   0.54868   0.42517   0.00000  Uiso   1.00
C161   C     0.70574   0.52741   0.41046   0.00000  Uiso   1.00
H162   H     0.70278   0.81240   0.43080   0.00000  Uiso   1.00
H163   H     0.68231   0.85017   0.48719   0.00000  Uiso   1.00
H164   H     0.79880   0.89553   0.39746   0.00000  Uiso   1.00
H165   H     0.61085   0.70731   0.40581   0.00000  Uiso   1.00
H166   H     0.68550   0.86717   0.55275   0.00000  Uiso   1.00
H167   H     0.93111   0.96282   0.36353   0.00000  Uiso   1.00
H168   H     0.53479   0.56590   0.38114   0.00000  Uiso   1.00
H169   H     0.90200   0.62064   0.45420   0.00000  Uiso   1.00
H170   H     0.89247   0.64788   0.51188   0.00000  Uiso   1.00
H171   H     0.00896   0.69326   0.42215   0.00000  Uiso   1.00
H172   H     0.82101   0.50503   0.43050   0.00000  Uiso   1.00
H173   H     0.85607   0.70299   0.57279   0.00000  Uiso   1.00
H174   H     0.10168   0.79864   0.38357   0.00000  Uiso   1.00
H175   H     0.70536   0.40173   0.40118   0.00000  Uiso   1.00
O176   O     0.76094   0.80648   0.60029   0.00000  Uiso   1.00
O177   O     0.08316   0.93196   0.35204   0.00000  Uiso   1.00
O178   O     0.56320   0.41122   0.37514   0.00000  Uiso   1.00
N179   N     0.72694   0.82478   0.54955   0.00000  Uiso   1.00
N180   N     0.95657   0.91421   0.37265   0.00000  Uiso   1.00
N181   N     0.58606   0.54314   0.38910   0.00000  Uiso   1.00
N182   N     0.81872   0.73644   0.56033   0.00000  Uiso   1.00
N183   N     0.04836   0.82587   0.38343   0.00000  Uiso   1.00
N184   N     0.67784   0.45479   0.39989   0.00000  Uiso   1.00
C185   C     0.76847   0.75158   0.68616   0.00000  Uiso   1.00
C186   C     0.76239   0.73508   0.72005   0.00000  Uiso   1.00
C187   C     0.80650   0.77232   0.74253   0.00000  Uiso   1.00
C188   C     0.79216   0.74884   0.77218   0.00000  Uiso   1.00
C189   C     0.79134   0.73210   0.82375   0.00000  Uiso   1.00
C190   C     0.78705   0.67178   0.67130   0.00000  Uiso   1.00
C191   C     0.85188   0.65582   0.65278   0.00000  Uiso   1.00
C192   C     0.85830   0.57905   0.64139   0.00000  Uiso   1.00
C193   C     0.89572   0.46407   0.61725   0.00000  Uiso   1.00
C194   C     0.68478   0.77390   0.67584   0.00000  Uiso   1.00
C195   C     0.66362   0.84379   0.66113   0.00000  Uiso   1.00
C196   C     0.58394   0.85299   0.65356   0.00000  Uiso   1.00
C197   C     0.46257   0.89657   0.63647   0.00000  Uiso   1.00
C198   C     0.66458   0.64364   0.69884   0.00000  Uiso   1.00
C199   C     0.70596   0.67645   0.72693   0.00000  Uiso   1.00
C200   C     0.69155   0.65290   0.75656   0.00000  Uiso   1.00
C201   C     0.73563   0.69011   0.77908   0.00000  Uiso   1.00
C202   C     0.73062   0.61316   0.67818   0.00000  Uiso   1.00
C203   C     0.73694   0.53640   0.66681   0.00000  Uiso   1.00
C204   C     0.80177   0.52032   0.64829   0.00000  Uiso   1.00
C205   C     0.62835   0.71528   0.68272   0.00000  Uiso   1.00
C206   C     0.54868   0.72437   0.67517   0.00000  Uiso   1.00
C207   C     0.52741   0.79426   0.66046   0.00000  Uiso   1.00
H208   H     0.81240   0.79722   0.68080   0.00000  Uiso   1.00
H209   H     0.85017   0.81769   0.73719   0.00000  Uiso   1.00
H210   H     0.89553   0.70120   0.64746   0.00000  Uiso   1.00
H211   H     0.70731   0.88915   0.65581   0.00000  Uiso   1.00
H212   H     0.86717   0.81450   0.80275   0.00000  Uiso   1.00
H213   H     0.96282   0.56889   0.61353   0.00000  Uiso   1.00
H214   H     0.56590   0.96521   0.63114   0.00000  Uiso   1.00
H215   H     0.62064   0.59800   0.70420   0.00000  Uiso   1.00
H216   H     0.64788   0.60753   0.76188   0.00000  Uiso   1.00
H217   H     0.69326   0.49104   0.67215   0.00000  Uiso   1.00
H218   H     0.50503   0.67899   0.68050   0.00000  Uiso   1.00
H219   H     0.70299   0.64393   0.82279   0.00000  Uiso   1.00
H220   H     0.79864   0.39832   0.63357   0.00000  Uiso   1.00
H221   H     0.40173   0.79464   0.65118   0.00000  Uiso   1.00
O222   O     0.80648   0.73906   0.85029   0.00000  Uiso   1.00
O223   O     0.93196   0.41684   0.60204   0.00000  Uiso   1.00
O224   O     0.41122   0.93680   0.62514   0.00000  Uiso   1.00
N225   N     0.82478   0.77306   0.79955   0.00000  Uiso   1.00
N226   N     0.91421   0.54343   0.62265   0.00000  Uiso   1.00
N227   N     0.54314   0.91394   0.63910   0.00000  Uiso   1.00
N228   N     0.73644   0.68128   0.81033   0.00000  Uiso   1.00
N229   N     0.82587   0.45164   0.63343   0.00000  Uiso   1.00
N230   N     0.45479   0.82216   0.64989   0.00000  Uiso   1.00
C231   C     0.26847   0.25158   0.18616   0.00000  Uiso   1.00
C232   C     0.26239   0.23508   0.22005   0.00000  Uiso   1.00
C233   C     0.30650   0.27232   0.24253   0.00000  Uiso   1.00
C234   C     0.29216   0.24884   0.27218   0.00000  Uiso   1.00
C235   C     0.29134   0.23210   0.32375   0.00000  Uiso   1.00
C236   C     0.28705   0.17178   0.17130   0.00000  Uiso   1.00
C237   C     0.35188   0.15582   0.15278   0.00000  Uiso   1.00
C238   C     0.35830   0.07905   0.14139   0.00000  Uiso   1.00
C239   C     0.39572   0.96407   0.11725   0.00000  Uiso   1.00
C240   C     0.18478   0.27390   0.17584   0.00000  Uiso   1.00
C241   C     0.16362   0.34379   0.16113   0.00000  Uiso   1.00
C242   C     0.08394   0.35299   0.15356   0.00000  Uiso   1.00
C243   C     0.96257   0.39657   0.13647   0.00000  Uiso   1.00
C244   C     0.16458   0.14364   0.19884   0.00000  Uiso   1.00
C245   C     0.20596   0.17645   0.22693   0.00000  Uiso   1.00
C246   C     0.19155   0.15290   0.25656   0.00000  Uiso   1.00
C247   C     0.23563   0.19011   0.27908   0.00000  Uiso   1.00
C248   C     0.23062   0.11316   0.17818   0.00000  Uiso   1.00
C249   C     0.23694   0.03640   0.16681   0.00000  Uiso   1.00
C250   C     0.30177   0.02032   0.14829   0.00000  Uiso   1.00
C251   C     0.12835   0.21528   0.18272   0.00000  Uiso   1.00
C252   C     0.04868   0.22437   0.17517   0.00000  Uiso   1.00
C253   C     0.02741   0.29426   0.16046   0.00000  Uiso   1.00
H254   H     0.31240   0.29722   0.18080   0.00000  Uiso   1.00
H255   H     0.35017   0.31769   0.23719   0.00000  Uiso   1.00
H256   H     0.39553   0.20120   0.14746   0.00000  Uiso   1.00
H257   H     0.20731   0.38915   0.15581   0.00000  Uiso   1.00
H258   H     0.36717   0.31450   0.30275   0.00000  Uiso   1.00
H259   H     0.46282   0.06889   0.11353   0.00000  Uiso   1.00
H260   H     0.06590   0.46521   0.13114   0.00000  Uiso   1.00
H261   H     0.12064   0.09800   0.20420   0.00000  Uiso   1.00
H262   H     0.14788   0.10753   0.26188   0.00000  Uiso   1.00
H263   H     0.19326   0.99104   0.17215   0.00000  Uiso   1.00
H264   H     0.00503   0.17899   0.18050   0.00000  Uiso   1.00
H265   H     0.20299   0.14393   0.32279   0.00000  Uiso   1.00
H266   H     0.29864   0.89832   0.13357   0.00000  Uiso   1.00
H267   H     0.90173   0.29464   0.15118   0.00000  Uiso   1.00
O268   O     0.30648   0.23906   0.35029   0.00000  Uiso   1.00
O269   O     0.43196   0.91684   0.10204   0.00000  Uiso   1.00
O270   O     0.91122   0.43680   0.12514   0.00000  Uiso   1.00
N271   N     0.32478   0.27306   0.29955   0.00000  Uiso   1.00
N272   N     0.41421   0.04343   0.12265   0.00000  Uiso   1.00
N273   N     0.04314   0.41394   0.13910   0.00000  Uiso   1.00
N274   N     0.23644   0.18128   0.31033   0.00000  Uiso   1.00
N275   N     0.32587   0.95164   0.13343   0.00000  Uiso   1.00
N276   N     0.95479   0.32216   0.14989   0.00000  Uiso   1.00
C277   C     0.73153   0.74842   0.18616   0.00000  Uiso   1.00
C278   C     0.73761   0.76492   0.22005   0.00000  Uiso   1.00
C279   C     0.69350   0.72768   0.24253   0.00000  Uiso   1.00
C280   C     0.70784   0.75116   0.27218   0.00000  Uiso   1.00
C281   C     0.70866   0.76790   0.32375   0.00000  Uiso   1.00
C282   C     0.71295   0.82822   0.17130   0.00000  Uiso   1.00
C283   C     0.64812   0.84418   0.15278   0.00000  Uiso   1.00
C284   C     0.64170   0.92095   0.14139   0.00000  Uiso   1.00
C285   C     0.60428   0.03593   0.11725   0.00000  Uiso   1.00
C286   C     0.81522   0.72610   0.17584   0.00000  Uiso   1.00
C287   C     0.83638   0.65621   0.16113   0.00000  Uiso   1.00
C288   C     0.91606   0.64701   0.15356   0.00000  Uiso   1.00
C289   C     0.03743   0.60343   0.13647   0.00000  Uiso   1.00
C290   C     0.83542   0.85636   0.19884   0.00000  Uiso   1.00
C291   C     0.79404   0.82355   0.22693   0.00000  Uiso   1.00
C292   C     0.80845   0.84710   0.25656   0.00000  Uiso   1.00
C293   C     0.76437   0.80989   0.27908   0.00000  Uiso   1.00
C294   C     0.76938   0.88684   0.17818   0.00000  Uiso   1.00
C295   C     0.76306   0.96360   0.16681   0.00000  Uiso   1.00
C296   C     0.69823   0.97968   0.14829   0.00000  Uiso   1.00
C297   C     0.87165   0.78472   0.18272   0.00000  Uiso   1.00
C298   C     0.95132   0.77563   0.17517   0.00000  Uiso   1.00
C299   C     0.97259   0.70574   0.16046   0.00000  Uiso   1.00
H300   H     0.68760   0.70278   0.18080   0.00000  Uiso   1.00
H301   H     0.64983   0.68231   0.23719   0.00000  Uiso   1.00
H302   H     0.60447   0.79880   0.14746   0.00000  Uiso   1.00
H303   H     0.79269   0.61085   0.15581   0.00000  Uiso   1.00
H304   H     0.63283   0.68550   0.30275   0.00000  Uiso   1.00
H305   H     0.53718   0.93111   0.11353   0.00000  Uiso   1.00
H306   H     0.93410   0.53479   0.13114   0.00000  Uiso   1.00
H307   H     0.87936   0.90200   0.20420   0.00000  Uiso   1.00
H308   H     0.85212   0.89247   0.26188   0.00000  Uiso   1.00
H309   H     0.80674   0.00896   0.17215   0.00000  Uiso   1.00
H310   H     0.99497   0.82101   0.18050   0.00000  Uiso   1.00
H311   H     0.79701   0.85607   0.32279   0.00000  Uiso   1.00
H312   H     0.70136   0.10168   0.13357   0.00000  Uiso   1.00
H313   H     0.09827   0.70536   0.15118   0.00000  Uiso   1.00
O314   O     0.69352   0.76094   0.35029   0.00000  Uiso   1.00
O315   O     0.56804   0.08316   0.10204   0.00000  Uiso   1.00
O316   O     0.08878   0.56320   0.12514   0.00000  Uiso   1.00
N317   N     0.67522   0.72694   0.29955   0.00000  Uiso   1.00
N318   N     0.58579   0.95657   0.12265   0.00000  Uiso   1.00
N319   N     0.95686   0.58606   0.13910   0.00000  Uiso   1.00
N320   N     0.76356   0.81872   0.31033   0.00000  Uiso   1.00
N321   N     0.67413   0.04836   0.13343   0.00000  Uiso   1.00
N322   N     0.04521   0.67784   0.14989   0.00000  Uiso   1.00
C323   C     0.23153   0.24842   0.68616   0.00000  Uiso   1.00
C324   C     0.23761   0.26492   0.72005   0.00000  Uiso   1.00
C325   C     0.19350   0.22768   0.74253   0.00000  Uiso   1.00
C326   C     0.20784   0.25116   0.77218   0.00000  Uiso   1.00
C327   C     0.20866   0.26790   0.82375   0.00000  Uiso   1.00
C328   C     0.21295   0.32822   0.67130   0.00000  Uiso   1.00
C329   C     0.14812   0.34418   0.65278   0.00000  Uiso   1.00
C330   C     0.14170   0.42095   0.64139   0.00000  Uiso   1.00
C331   C     0.10428   0.53593   0.61725   0.00000  Uiso   1.00
C332   C     0.31522   0.22610   0.67584   0.00000  Uiso   1.00
C333   C     0.33638   0.15621   0.66113   0.00000  Uiso   1.00
C334   C     0.41606   0.14701   0.65356   0.00000  Uiso   1.00
C335   C     0.53743   0.10343   0.63647   0.00000  Uiso   1.00
C336   C     0.33542   0.35636   0.69884   0.00000  Uiso   1.00
C337   C     0.29404   0.32355   0.72693   0.00000  Uiso   1.00
C338   C     0.30845   0.34710   0.75656   0.00000  Uiso   1.00
C339   C     0.26437   0.30989   0.77908   0.00000  Uiso   1.00
C340   C     0.26938   0.38684   0.67818   0.00000  Uiso   1.00
C341   C     0.26306   0.46360   0.66681   0.00000  Uiso   1.00
C342   C     0.19823   0.47968   0.64829   0.00000  Uiso   1.00
C343   C     0.37165   0.28472   0.68272   0.00000  Uiso   1.00
C344   C     0.45132   0.27563   0.67517   0.00000  Uiso   1.00
C345   C     0.47259   0.20574   0.66046   0.00000  Uiso   1.00
H346   H     0.18760   0.20278   0.68080   0.00000  Uiso   1.00
H347   H     0.14983   0.18231   0.73719   0.00000  Uiso   1.00
H348   H     0.10447   0.29880   0.64746   0.00000  Uiso   1.00
H349   H     0.29269   0.11085   0.65581   0.00000  Uiso   1.00
H350   H     0.13283   0.18550   0.80275   0.00000  Uiso   1.00
H351   H     0.03718   0.43111   0.61353   0.00000  Uiso   1.00
H352   H     0.43410   0.03479   0.63114   0.00000  Uiso   1.00
H353   H     0.37936   0.40200   0.70420   0.00000  Uiso   1.00
H354   H     0.35212   0.39247   0.76188   0.00000  Uiso   1.00
H355   H     0.30674   0.50896   0.67215   0.00000  Uiso   1.00
H356   H     0.49497   0.32101   0.68050   0.00000  Uiso   1.00
H357   H     0.29701   0.35607   0.82279   0.00000  Uiso   1.00
H358   H     0.20136   0.60168   0.63357   0.00000  Uiso   1.00
H359   H     0.59827   0.20536   0.65118   0.00000  Uiso   1.00
O360   O     0.19352   0.26094   0.85029   0.00000  Uiso   1.00
O361   O     0.06804   0.58316   0.60204   0.00000  Uiso   1.00
O362   O     0.58878   0.06320   0.62514   0.00000  Uiso   1.00
N363   N     0.17522   0.22694   0.79955   0.00000  Uiso   1.00
N364   N     0.08579   0.45657   0.62265   0.00000  Uiso   1.00
N365   N     0.45686   0.08606   0.63910   0.00000  Uiso   1.00
N366   N     0.26356   0.31872   0.81033   0.00000  Uiso   1.00
N367   N     0.17413   0.54836   0.63343   0.00000  Uiso   1.00
N368   N     0.54521   0.17784   0.64989   0.00000  Uiso   1.00
C369   C     0.74842   0.26847   0.81384   0.00000  Uiso   1.00
C370   C     0.76492   0.26239   0.77995   0.00000  Uiso   1.00
C371   C     0.72768   0.30650   0.75747   0.00000  Uiso   1.00
C372   C     0.75116   0.29216   0.72782   0.00000  Uiso   1.00
C373   C     0.76790   0.29134   0.67625   0.00000  Uiso   1.00
C374   C     0.82822   0.28705   0.82870   0.00000  Uiso   1.00
C375   C     0.84418   0.35188   0.84722   0.00000  Uiso   1.00
C376   C     0.92095   0.35830   0.85861   0.00000  Uiso   1.00
C377   C     0.03593   0.39572   0.88275   0.00000  Uiso   1.00
C378   C     0.72610   0.18478   0.82416   0.00000  Uiso   1.00
C379   C     0.65621   0.16362   0.83887   0.00000  Uiso   1.00
C380   C     0.64701   0.08394   0.84644   0.00000  Uiso   1.00
C381   C     0.60343   0.96257   0.86353   0.00000  Uiso   1.00
C382   C     0.85636   0.16458   0.80116   0.00000  Uiso   1.00
C383   C     0.82355   0.20596   0.77307   0.00000  Uiso   1.00
C384   C     0.84710   0.19155   0.74344   0.00000  Uiso   1.00
C385   C     0.80989   0.23563   0.72092   0.00000  Uiso   1.00
C386   C     0.88684   0.23062   0.82182   0.00000  Uiso   1.00
C387   C     0.96360   0.23694   0.83319   0.00000  Uiso   1.00
C388   C     0.97968   0.30177   0.85171   0.00000  Uiso   1.00
C389   C     0.78472   0.12835   0.81728   0.00000  Uiso   1.00
C390   C     0.77563   0.04868   0.82483   0.00000  Uiso   1.00
C391   C     0.70574   0.02741   0.83954   0.00000  Uiso   1.00
H392   H     0.70278   0.31240   0.81920   0.00000  Uiso   1.00
H393   H     0.68231   0.35017   0.76281   0.00000  Uiso   1.00
H394   H     0.79880   0.39553   0.85254   0.00000  Uiso   1.00
H395   H     0.61085   0.20731   0.84419   0.00000  Uiso   1.00
H396   H     0.68550   0.36717   0.69725   0.00000  Uiso   1.00
H397   H     0.93111   0.46282   0.88647   0.00000  Uiso   1.00
H398   H     0.53479   0.06590   0.86886   0.00000  Uiso   1.00
H399   H     0.90200   0.12064   0.79580   0.00000  Uiso   1.00
H400   H     0.89247   0.14788   0.73812   0.00000  Uiso   1.00
H401   H     0.00896   0.19326   0.82785   0.00000  Uiso   1.00
H402   H     0.82101   0.00503   0.81950   0.00000  Uiso   1.00
H403   H     0.85607   0.20299   0.67721   0.00000  Uiso   1.00
H404   H     0.10168   0.29864   0.86643   0.00000  Uiso   1.00
H405   H     0.70536   0.90173   0.84882   0.00000  Uiso   1.00
O406   O     0.76094   0.30648   0.64971   0.00000  Uiso   1.00
O407   O     0.08316   0.43196   0.89796   0.00000  Uiso   1.00
O408   O     0.56320   0.91122   0.87486   0.00000  Uiso   1.00
N409   N     0.72694   0.32478   0.70045   0.00000  Uiso   1.00
N410   N     0.95657   0.41421   0.87735   0.00000  Uiso   1.00
N411   N     0.58606   0.04314   0.86090   0.00000  Uiso   1.00
N412   N     0.81872   0.23644   0.68967   0.00000  Uiso   1.00
N413   N     0.04836   0.32587   0.86657   0.00000  Uiso   1.00
N414   N     0.67784   0.95479   0.85011   0.00000  Uiso   1.00
C415   C     0.24842   0.76847   0.31384   0.00000  Uiso   1.00
C416   C     0.26492   0.76239   0.27995   0.00000  Uiso   1.00
C417   C     0.22768   0.80650   0.25747   0.00000  Uiso   1.00
C418   C     0.25116   0.79216   0.22782   0.00000  Uiso   1.00
C419   C     0.26790   0.79134   0.17625   0.00000  Uiso   1.00
C420   C     0.32822   0.78705   0.32870   0.00000  Uiso   1.00
C421   C     0.34418   0.85188   0.34722   0.00000  Uiso   1.00
C422   C     0.42095   0.85830   0.35861   0.00000  Uiso   1.00
C423   C     0.53593   0.89572   0.38275   0.00000  Uiso   1.00
C424   C     0.22610   0.68478   0.32416   0.00000  Uiso   1.00
C425   C     0.15621   0.66362   0.33887   0.00000  Uiso   1.00
C426   C     0.14701   0.58394   0.34644   0.00000  Uiso   1.00
C427   C     0.10343   0.46257   0.36353   0.00000  Uiso   1.00
C428   C     0.35636   0.66458   0.30116   0.00000  Uiso   1.00
C429   C     0.32355   0.70596   0.27307   0.00000  Uiso   1.00
C430   C     0.34710   0.69155   0.24344   0.00000  Uiso   1.00
C431   C     0.30989   0.73563   0.22092   0.00000  Uiso   1.00
C432   C     0.38684   0.73062   0.32182   0.00000  Uiso   1.00
C433   C     0.46360   0.73694   0.33319   0.00000  Uiso   1.00
C434   C     0.47968   0.80177   0.35171   0.00000  Uiso   1.00
C435   C     0.28472   0.62835   0.31728   0.00000  Uiso   1.00
C436   C     0.27563   0.54868   0.32483   0.00000  Uiso   1.00
C437   C     0.20574   0.52741   0.33954   0.00000  Uiso   1.00
H438   H     0.20278   0.81240   0.31920   0.00000  Uiso   1.00
H439   H     0.18231   0.85017   0.26281   0.00000  Uiso   1.00
H440   H     0.29880   0.89553   0.35254   0.00000  Uiso   1.00
H441   H     0.11085   0.70731   0.34419   0.00000  Uiso   1.00
H442   H     0.18550   0.86717   0.19725   0.00000  Uiso   1.00
H443   H     0.43111   0.96282   0.38647   0.00000  Uiso   1.00
H444   H     0.03479   0.56590   0.36886   0.00000  Uiso   1.00
H445   H     0.40200   0.62064   0.29580   0.00000  Uiso   1.00
H446   H     0.39247   0.64788   0.23812   0.00000  Uiso   1.00
H447   H     0.50896   0.69326   0.32785   0.00000  Uiso   1.00
H448   H     0.32101   0.50503   0.31950   0.00000  Uiso   1.00
H449   H     0.35607   0.70299   0.17721   0.00000  Uiso   1.00
H450   H     0.60168   0.79864   0.36643   0.00000  Uiso   1.00
H451   H     0.20536   0.40173   0.34882   0.00000  Uiso   1.00
O452   O     0.26094   0.80648   0.14971   0.00000  Uiso   1.00
O453   O     0.58316   0.93196   0.39796   0.00000  Uiso   1.00
O454   O     0.06320   0.41122   0.37486   0.00000  Uiso   1.00
N455   N     0.22694   0.82478   0.20045   0.00000  Uiso   1.00
N456   N     0.45657   0.91421   0.37735   0.00000  Uiso   1.00
N457   N     0.08606   0.54314   0.36090   0.00000  Uiso   1.00
N458   N     0.31872   0.73644   0.18967   0.00000  Uiso   1.00
N459   N     0.54836   0.82587   0.36657   0.00000  Uiso   1.00
N460   N     0.17784   0.45479   0.35011   0.00000  Uiso   1.00
C461   C     0.75158   0.23153   0.31384   0.00000  Uiso   1.00
C462   C     0.73508   0.23761   0.27995   0.00000  Uiso   1.00
C463   C     0.77232   0.19350   0.25747   0.00000  Uiso   1.00
C464   C     0.74884   0.20784   0.22782   0.00000  Uiso   1.00
C465   C     0.73210   0.20866   0.17625   0.00000  Uiso   1.00
C466   C     0.67178   0.21295   0.32870   0.00000  Uiso   1.00
C467   C     0.65582   0.14812   0.34722   0.00000  Uiso   1.00
C468   C     0.57905   0.14170   0.35861   0.00000  Uiso   1.00
C469   C     0.46407   0.10428   0.38275   0.00000  Uiso   1.00
C470   C     0.77390   0.31522   0.32416   0.00000  Uiso   1.00
C471   C     0.84379   0.33638   0.33887   0.00000  Uiso   1.00
C472   C     0.85299   0.41606   0.34644   0.00000  Uiso   1.00
C473   C     0.89657   0.53743   0.36353   0.00000  Uiso   1.00
C474   C     0.64364   0.33542   0.30116   0.00000  Uiso   1.00
C475   C     0.67645   0.29404   0.27307   0.00000  Uiso   1.00
C476   C     0.65290   0.30845   0.24344   0.00000  Uiso   1.00
C477   C     0.69011   0.26437   0.22092   0.00000  Uiso   1.00
C478   C     0.61316   0.26938   0.32182   0.00000  Uiso   1.00
C479   C     0.53640   0.26306   0.33319   0.00000  Uiso   1.00
C480   C     0.52032   0.19823   0.35171   0.00000  Uiso   1.00
C481   C     0.71528   0.37165   0.31728   0.00000  Uiso   1.00
C482   C     0.72437   0.45132   0.32483   0.00000  Uiso   1.00
C483   C     0.79426   0.47259   0.33954   0.00000  Uiso   1.00
H484   H     0.79722   0.18760   0.31920   0.00000  Uiso   1.00
H485   H     0.81769   0.14983   0.26281   0.00000  Uiso   1.00
H486   H     0.70120   0.10447   0.35254   0.00000  Uiso   1.00
H487   H     0.88915   0.29269   0.34419   0.00000  Uiso   1.00
H488   H     0.81450   0.13283   0.19725   0.00000  Uiso   1.00
H489   H     0.56889   0.03718   0.38647   0.00000  Uiso   1.00
H490   H     0.96521   0.43410   0.36886   0.00000  Uiso   1.00
H491   H     0.59800   0.37936   0.29580   0.00000  Uiso   1.00
H492   H     0.60753   0.35212   0.23812   0.00000  Uiso   1.00
H493   H     0.49104   0.30674   0.32785   0.00000  Uiso   1.00
H494   H     0.67899   0.49497   0.31950   0.00000  Uiso   1.00
H495   H     0.64393   0.29701   0.17721   0.00000  Uiso   1.00
H496   H     0.39832   0.20136   0.36643   0.00000  Uiso   1.00
H497   H     0.79464   0.59827   0.34882   0.00000  Uiso   1.00
O498   O     0.73906   0.19352   0.14971   0.00000  Uiso   1.00
O499   O     0.41684   0.06804   0.39796   0.00000  Uiso   1.00
O500   O     0.93680   0.58878   0.37486   0.00000  Uiso   1.00
N501   N     0.77306   0.17522   0.20045   0.00000  Uiso   1.00
N502   N     0.54343   0.08579   0.37735   0.00000  Uiso   1.00
N503   N     0.91394   0.45686   0.36090   0.00000  Uiso   1.00
N504   N     0.68128   0.26356   0.18967   0.00000  Uiso   1.00
N505   N     0.45164   0.17413   0.36657   0.00000  Uiso   1.00
N506   N     0.82216   0.54521   0.35011   0.00000  Uiso   1.00
C507   C     0.25158   0.73153   0.81384   0.00000  Uiso   1.00
C508   C     0.23508   0.73761   0.77995   0.00000  Uiso   1.00
C509   C     0.27232   0.69350   0.75747   0.00000  Uiso   1.00
C510   C     0.24884   0.70784   0.72782   0.00000  Uiso   1.00
C511   C     0.23210   0.70866   0.67625   0.00000  Uiso   1.00
C512   C     0.17178   0.71295   0.82870   0.00000  Uiso   1.00
C513   C     0.15582   0.64812   0.84722   0.00000  Uiso   1.00
C514   C     0.07905   0.64170   0.85861   0.00000  Uiso   1.00
C515   C     0.96407   0.60428   0.88275   0.00000  Uiso   1.00
C516   C     0.27390   0.81522   0.82416   0.00000  Uiso   1.00
C517   C     0.34379   0.83638   0.83887   0.00000  Uiso   1.00
C518   C     0.35299   0.91606   0.84644   0.00000  Uiso   1.00
C519   C     0.39657   0.03743   0.86353   0.00000  Uiso   1.00
C520   C     0.14364   0.83542   0.80116   0.00000  Uiso   1.00
C521   C     0.17645   0.79404   0.77307   0.00000  Uiso   1.00
C522   C     0.15290   0.80845   0.74344   0.00000  Uiso   1.00
C523   C     0.19011   0.76437   0.72092   0.00000  Uiso   1.00
C524   C     0.11316   0.76938   0.82182   0.00000  Uiso   1.00
C525   C     0.03640   0.76306   0.83319   0.00000  Uiso   1.00
C526   C     0.02032   0.69823   0.85171   0.00000  Uiso   1.00
C527   C     0.21528   0.87165   0.81728   0.00000  Uiso   1.00
C528   C     0.22437   0.95132   0.82483   0.00000  Uiso   1.00
C529   C     0.29426   0.97259   0.83954   0.00000  Uiso   1.00
H530   H     0.29722   0.68760   0.81920   0.00000  Uiso   1.00
H531   H     0.31769   0.64983   0.76281   0.00000  Uiso   1.00
H532   H     0.20120   0.60447   0.85254   0.00000  Uiso   1.00
H533   H     0.38915   0.79269   0.84419   0.00000  Uiso   1.00
H534   H     0.31450   0.63283   0.69725   0.00000  Uiso   1.00
H535   H     0.06889   0.53718   0.88647   0.00000  Uiso   1.00
H536   H     0.46521   0.93410   0.86886   0.00000  Uiso   1.00
H537   H     0.09800   0.87936   0.79580   0.00000  Uiso   1.00
H538   H     0.10753   0.85212   0.73812   0.00000  Uiso   1.00
H539   H     0.99104   0.80674   0.82785   0.00000  Uiso   1.00
H540   H     0.17899   0.99497   0.81950   0.00000  Uiso   1.00
H541   H     0.14393   0.79701   0.67721   0.00000  Uiso   1.00
H542   H     0.89832   0.70136   0.86643   0.00000  Uiso   1.00
H543   H     0.29464   0.09827   0.84882   0.00000  Uiso   1.00
O544   O     0.23906   0.69352   0.64971   0.00000  Uiso   1.00
O545   O     0.91684   0.56804   0.89796   0.00000  Uiso   1.00
O546   O     0.43680   0.08878   0.87486   0.00000  Uiso   1.00
N547   N     0.27306   0.67522   0.70045   0.00000  Uiso   1.00
N548   N     0.04343   0.58579   0.87735   0.00000  Uiso   1.00
N549   N     0.41394   0.95686   0.86090   0.00000  Uiso   1.00
N550   N     0.18128   0.76356   0.68967   0.00000  Uiso   1.00
N551   N     0.95164   0.67413   0.86657   0.00000  Uiso   1.00
N552   N     0.32216   0.04521   0.85011   0.00000  Uiso   1.00
C553   C     0.23153   0.74842   0.56384   0.00000  Uiso   1.00
C554   C     0.23761   0.76492   0.52995   0.00000  Uiso   1.00
C555   C     0.19350   0.72768   0.50747   0.00000  Uiso   1.00
C556   C     0.20784   0.75116   0.47782   0.00000  Uiso   1.00
C557   C     0.20866   0.76790   0.42625   0.00000  Uiso   1.00
C558   C     0.21295   0.82822   0.57870   0.00000  Uiso   1.00
C559   C     0.14812   0.84418   0.59722   0.00000  Uiso   1.00
C560   C     0.14170   0.92095   0.60861   0.00000  Uiso   1.00
C561   C     0.10428   0.03593   0.63275   0.00000  Uiso   1.00
C562   C     0.31522   0.72610   0.57416   0.00000  Uiso   1.00
C563   C     0.33638   0.65621   0.58887   0.00000  Uiso   1.00
C564   C     0.41606   0.64701   0.59644   0.00000  Uiso   1.00
C565   C     0.53743   0.60343   0.61353   0.00000  Uiso   1.00
C566   C     0.33542   0.85636   0.55116   0.00000  Uiso   1.00
C567   C     0.29404   0.82355   0.52307   0.00000  Uiso   1.00
C568   C     0.30845   0.84710   0.49344   0.00000  Uiso   1.00
C569   C     0.26437   0.80989   0.47092   0.00000  Uiso   1.00
C570   C     0.26938   0.88684   0.57182   0.00000  Uiso   1.00
C571   C     0.26306   0.96360   0.58319   0.00000  Uiso   1.00
C572   C     0.19823   0.97968   0.60171   0.00000  Uiso   1.00
C573   C     0.37165   0.78472   0.56728   0.00000  Uiso   1.00
C574   C     0.45132   0.77563   0.57483   0.00000  Uiso   1.00
C575   C     0.47259   0.70574   0.58954   0.00000  Uiso   1.00
H576   H     0.18760   0.70278   0.56920   0.00000  Uiso   1.00
H577   H     0.14983   0.68231   0.51281   0.00000  Uiso   1.00
H578   H     0.10447   0.79880   0.60254   0.00000  Uiso   1.00
H579   H     0.29269   0.61085   0.59419   0.00000  Uiso   1.00
H580   H     0.13283   0.68550   0.44725   0.00000  Uiso   1.00
H581   H     0.03718   0.93111   0.63647   0.00000  Uiso   1.00
H582   H     0.43410   0.53479   0.61886   0.00000  Uiso   1.00
H583   H     0.37936   0.90200   0.54580   0.00000  Uiso   1.00
H584   H     0.35212   0.89247   0.48812   0.00000  Uiso   1.00
H585   H     0.30674   0.00896   0.57785   0.00000  Uiso   1.00
H586   H     0.49497   0.82101   0.56950   0.00000  Uiso   1.00
H587   H     0.29701   0.85607   0.42721   0.00000  Uiso   1.00
H588   H     0.20136   0.10168   0.61643   0.00000  Uiso   1.00
H589   H     0.59827   0.70536   0.59882   0.00000  Uiso   1.00
O590   O     0.19352   0.76094   0.39971   0.00000  Uiso   1.00
O591   O     0.06804   0.08316   0.64796   0.00000  Uiso   1.00
O592   O     0.58878   0.56320   0.62486   0.00000  Uiso   1.00
N593   N     0.17522   0.72694   0.45045   0.00000  Uiso   1.00
N594   N     0.08579   0.95657   0.62735   0.00000  Uiso   1.00
N595   N     0.45686   0.58606   0.61090   0.00000  Uiso   1.00
N596   N     0.26356   0.81872   0.43967   0.00000  Uiso   1.00
N597   N     0.17413   0.04836   0.61657   0.00000  Uiso   1.00
N598   N     0.54521   0.67784   0.60011   0.00000  Uiso   1.00
C599   C     0.73153   0.24842   0.06384   0.00000  Uiso   1.00
C600   C     0.73761   0.26492   0.02995   0.00000  Uiso   1.00
C601   C     0.69350   0.22768   0.00747   0.00000  Uiso   1.00
C602   C     0.70784   0.25116   0.97782   0.00000  Uiso   1.00
C603   C     0.70866   0.26790   0.92625   0.00000  Uiso   1.00
C604   C     0.71295   0.32822   0.07870   0.00000  Uiso   1.00
C605   C     0.64812   0.34418   0.09722   0.00000  Uiso   1.00
C606   C     0.64170   0.42095   0.10861   0.00000  Uiso   1.00
C607   C     0.60428   0.53593   0.13275   0.00000  Uiso   1.00
C608   C     0.81522   0.22610   0.07416   0.00000  Uiso   1.00
C609   C     0.83638   0.15621   0.08887   0.00000  Uiso   1.00
C610   C     0.91606   0.14701   0.09644   0.00000  Uiso   1.00
C611   C     0.03743   0.10343   0.11353   0.00000  Uiso   1.00
C612   C     0.83542   0.35636   0.05116   0.00000  Uiso   1.00
C613   C     0.79404   0.32355   0.02307   0.00000  Uiso   1.00
C614   C     0.80845   0.34710   0.99344   0.00000  Uiso   1.00
C615   C     0.76437   0.30989   0.97092   0.00000  Uiso   1.00
C616   C     0.76938   0.38684   0.07182   0.00000  Uiso   1.00
C617   C     0.76306   0.46360   0.08319   0.00000  Uiso   1.00
C618   C     0.69823   0.47968   0.10171   0.00000  Uiso   1.00
C619   C     0.87165   0.28472   0.06728   0.00000  Uiso   1.00
C620   C     0.95132   0.27563   0.07483   0.00000  Uiso   1.00
C621   C     0.97259   0.20574   0.08954   0.00000  Uiso   1.00
H622   H     0.68760   0.20278   0.06920   0.00000  Uiso   1.00
H623   H     0.64983   0.18231   0.01281   0.00000  Uiso   1.00
H624   H     0.60447   0.29880   0.10254   0.00000  Uiso   1.00
H625   H     0.79269   0.11085   0.09419   0.00000  Uiso   1.00
H626   H     0.63283   0.18550   0.94725   0.00000  Uiso   1.00
H627   H     0.53718   0.43111   0.13647   0.00000  Uiso   1.00
H628   H     0.93410   0.03479   0.11886   0.00000  Uiso   1.00
H629   H     0.87936   0.40200   0.04580   0.00000  Uiso   1.00
H630   H     0.85212   0.39247   0.98812   0.00000  Uiso   1.00
H631   H     0.80674   0.50896   0.07785   0.00000  Uiso   1.00
H632   H     0.99497   0.32101   0.06950   0.00000  Uiso   1.00
H633   H     0.79701   0.35607   0.92721   0.00000  Uiso   1.00
H634   H     0.70136   0.60168   0.11643   0.00000  Uiso   1.00
H635   H     0.09827   0.20536   0.09882   0.00000  Uiso   1.00
O636   O     0.69352   0.26094   0.89971   0.00000  Uiso   1.00
O637   O     0.56804   0.58316   0.14796   0.00000  Uiso   1.00
O638   O     0.08878   0.06320   0.12486   0.00000  Uiso   1.00
N639   N     0.67522   0.22694   0.95045   0.00000  Uiso   1.00
N640   N     0.58579   0.45657   0.12735   0.00000  Uiso   1.00
N641   N     0.95686   0.08606   0.11090   0.00000  Uiso   1.00
N642   N     0.76356   0.31872   0.93967   0.00000  Uiso   1.00
N643   N     0.67413   0.54836   0.11657   0.00000  Uiso   1.00
N644   N     0.04521   0.17784   0.10011   0.00000  Uiso   1.00
C645   C     0.26847   0.75158   0.06384   0.00000  Uiso   1.00
C646   C     0.26239   0.73508   0.02995   0.00000  Uiso   1.00
C647   C     0.30650   0.77232   0.00747   0.00000  Uiso   1.00
C648   C     0.29216   0.74884   0.97782   0.00000  Uiso   1.00
C649   C     0.29134   0.73210   0.92625   0.00000  Uiso   1.00
C650   C     0.28705   0.67178   0.07870   0.00000  Uiso   1.00
C651   C     0.35188   0.65582   0.09722   0.00000  Uiso   1.00
C652   C     0.35830   0.57905   0.10861   0.00000  Uiso   1.00
C653   C     0.39572   0.46407   0.13275   0.00000  Uiso   1.00
C654   C     0.18478   0.77390   0.07416   0.00000  Uiso   1.00
C655   C     0.16362   0.84379   0.08887   0.00000  Uiso   1.00
C656   C     0.08394   0.85299   0.09644   0.00000  Uiso   1.00
C657   C     0.96257   0.89657   0.11353   0.00000  Uiso   1.00
C658   C     0.16458   0.64364   0.05116   0.00000  Uiso   1.00
C659   C     0.20596   0.67645   0.02307   0.00000  Uiso   1.00
C660   C     0.19155   0.65290   0.99344   0.00000  Uiso   1.00
C661   C     0.23563   0.69011   0.97092   0.00000  Uiso   1.00
C662   C     0.23062   0.61316   0.07182   0.00000  Uiso   1.00
C663   C     0.23694   0.53640   0.08319   0.00000  Uiso   1.00
C664   C     0.30177   0.52032   0.10171   0.00000  Uiso   1.00
C665   C     0.12835   0.71528   0.06728   0.00000  Uiso   1.00
C666   C     0.04868   0.72437   0.07483   0.00000  Uiso   1.00
C667   C     0.02741   0.79426   0.08954   0.00000  Uiso   1.00
H668   H     0.31240   0.79722   0.06920   0.00000  Uiso   1.00
H669   H     0.35017   0.81769   0.01281   0.00000  Uiso   1.00
H670   H     0.39553   0.70120   0.10254   0.00000  Uiso   1.00
H671   H     0.20731   0.88915   0.09419   0.00000  Uiso   1.00
H672   H     0.36717   0.81450   0.94725   0.00000  Uiso   1.00
H673   H     0.46282   0.56889   0.13647   0.00000  Uiso   1.00
H674   H     0.06590   0.96521   0.11886   0.00000  Uiso   1.00
H675   H     0.12064   0.59800   0.04580   0.00000  Uiso   1.00
H676   H     0.14788   0.60753   0.98812   0.00000  Uiso   1.00
H677   H     0.19326   0.49104   0.07785   0.00000  Uiso   1.00
H678   H     0.00503   0.67899   0.06950   0.00000  Uiso   1.00
H679   H     0.20299   0.64393   0.92721   0.00000  Uiso   1.00
H680   H     0.29864   0.39832   0.11643   0.00000  Uiso   1.00
H681   H     0.90173   0.79464   0.09882   0.00000  Uiso   1.00
O682   O     0.30648   0.73906   0.89971   0.00000  Uiso   1.00
O683   O     0.43196   0.41684   0.14796   0.00000  Uiso   1.00
O684   O     0.91122   0.93680   0.12486   0.00000  Uiso   1.00
N685   N     0.32478   0.77306   0.95045   0.00000  Uiso   1.00
N686   N     0.41421   0.54343   0.12735   0.00000  Uiso   1.00
N687   N     0.04314   0.91394   0.11090   0.00000  Uiso   1.00
N688   N     0.23644   0.68128   0.93967   0.00000  Uiso   1.00
N689   N     0.32587   0.45164   0.11657   0.00000  Uiso   1.00
N690   N     0.95479   0.82216   0.10011   0.00000  Uiso   1.00
C691   C     0.76847   0.25158   0.56384   0.00000  Uiso   1.00
C692   C     0.76239   0.23508   0.52995   0.00000  Uiso   1.00
C693   C     0.80650   0.27232   0.50747   0.00000  Uiso   1.00
C694   C     0.79216   0.24884   0.47782   0.00000  Uiso   1.00
C695   C     0.79134   0.23210   0.42625   0.00000  Uiso   1.00
C696   C     0.78705   0.17178   0.57870   0.00000  Uiso   1.00
C697   C     0.85188   0.15582   0.59722   0.00000  Uiso   1.00
C698   C     0.85830   0.07905   0.60861   0.00000  Uiso   1.00
C699   C     0.89572   0.96407   0.63275   0.00000  Uiso   1.00
C700   C     0.68478   0.27390   0.57416   0.00000  Uiso   1.00
C701   C     0.66362   0.34379   0.58887   0.00000  Uiso   1.00
C702   C     0.58394   0.35299   0.59644   0.00000  Uiso   1.00
C703   C     0.46257   0.39657   0.61353   0.00000  Uiso   1.00
C704   C     0.66458   0.14364   0.55116   0.00000  Uiso   1.00
C705   C     0.70596   0.17645   0.52307   0.00000  Uiso   1.00
C706   C     0.69155   0.15290   0.49344   0.00000  Uiso   1.00
C707   C     0.73563   0.19011   0.47092   0.00000  Uiso   1.00
C708   C     0.73062   0.11316   0.57182   0.00000  Uiso   1.00
C709   C     0.73694   0.03640   0.58319   0.00000  Uiso   1.00
C710   C     0.80177   0.02032   0.60171   0.00000  Uiso   1.00
C711   C     0.62835   0.21528   0.56728   0.00000  Uiso   1.00
C712   C     0.54868   0.22437   0.57483   0.00000  Uiso   1.00
C713   C     0.52741   0.29426   0.58954   0.00000  Uiso   1.00
H714   H     0.81240   0.29722   0.56920   0.00000  Uiso   1.00
H715   H     0.85017   0.31769   0.51281   0.00000  Uiso   1.00
H716   H     0.89553   0.20120   0.60254   0.00000  Uiso   1.00
H717   H     0.70731   0.38915   0.59419   0.00000  Uiso   1.00
H718   H     0.86717   0.31450   0.44725   0.00000  Uiso   1.00
H719   H     0.96282   0.06889   0.63647   0.00000  Uiso   1.00
H720   H     0.56590   0.46521   0.61886   0.00000  Uiso   1.00
H721   H     0.62064   0.09800   0.54580   0.00000  Uiso   1.00
H722   H     0.64788   0.10753   0.48812   0.00000  Uiso   1.00
H723   H     0.69326   0.99104   0.57785   0.00000  Uiso   1.00
H724   H     0.50503   0.17899   0.56950   0.00000  Uiso   1.00
H725   H     0.70299   0.14393   0.42721   0.00000  Uiso   1.00
H726   H     0.79864   0.89832   0.61643   0.00000  Uiso   1.00
H727   H     0.40173   0.29464   0.59882   0.00000  Uiso   1.00
O728   O     0.80648   0.23906   0.39971   0.00000  Uiso   1.00
O729   O     0.93196   0.91684   0.64796   0.00000  Uiso   1.00
O730   O     0.41122   0.43680   0.62486   0.00000  Uiso   1.00
N731   N     0.82478   0.27306   0.45045   0.00000  Uiso   1.00
N732   N     0.91421   0.04343   0.62735   0.00000  Uiso   1.00
N733   N     0.54314   0.41394   0.61090   0.00000  Uiso   1.00
N734   N     0.73644   0.18128   0.43967   0.00000  Uiso   1.00
N735   N     0.82587   0.95164   0.61657   0.00000  Uiso   1.00
N736   N     0.45479   0.32216   0.60011   0.00000  Uiso   1.00
