data_job_04968
_audit_creation_date              2018-12-19
_audit_creation_method            'Materials Studio'
_symmetry_space_group_name_H-M    'P1'
_symmetry_Int_Tables_number       1
_symmetry_cell_setting            triclinic
loop_
_symmetry_equiv_pos_as_xyz
  x,y,z
_cell_length_a                    32.0285
_cell_length_b                    7.1883
_cell_length_c                    50.9657
_cell_angle_alpha                 90.0000
_cell_angle_beta                  129.4205
_cell_angle_gamma                 90.0000
loop_
_atom_site_label
_atom_site_type_symbol
_atom_site_fract_x
_atom_site_fract_y
_atom_site_fract_z
_atom_site_U_iso_or_equiv
_atom_site_adp_type
_atom_site_occupancy
C1     C     0.40360   0.67438   0.01574   0.00000  Uiso   1.00
C2     C     0.36739   0.74059   0.02364   0.00000  Uiso   1.00
C3     C     0.35268   0.63665   0.03957   0.00000  Uiso   1.00
C4     C     0.31925   0.72230   0.04447   0.00000  Uiso   1.00
C5     C     0.26576   0.79723   0.05834   0.00000  Uiso   1.00
C6     C     0.37077   0.69939   0.97756   0.00000  Uiso   1.00
C7     C     0.35890   0.56080   0.95476   0.00000  Uiso   1.00
C8     C     0.32832   0.61178   0.92088   0.00000  Uiso   1.00
C9     C     0.28010   0.62277   0.86322   0.00000  Uiso   1.00
C10    C     0.44985   0.81407   0.03256   0.00000  Uiso   1.00
C11    C     0.50449   0.77191   0.05599   0.00000  Uiso   1.00
C12    C     0.54049   0.91944   0.06841   0.00000  Uiso   1.00
C13    C     0.61507   0.10849   0.09614   0.00000  Uiso   1.00
C14    C     0.37038   0.01133   0.99610   0.00000  Uiso   1.00
C15    C     0.34935   0.92361   0.01297   0.00000  Uiso   1.00
C16    C     0.31593   0.00944   0.01784   0.00000  Uiso   1.00
C17    C     0.30118   0.90565   0.03379   0.00000  Uiso   1.00
C18    C     0.35273   0.88239   0.96690   0.00000  Uiso   1.00
C19    C     0.32215   0.93359   0.93304   0.00000  Uiso   1.00
C20    C     0.31024   0.79512   0.91019   0.00000  Uiso   1.00
C21    C     0.43181   0.99709   0.02189   0.00000  Uiso   1.00
C22    C     0.46774   0.14470   0.03427   0.00000  Uiso   1.00
C23    C     0.52241   0.10278   0.05772   0.00000  Uiso   1.00
H24    H     0.41764   0.53189   0.02404   0.00000  Uiso   1.00
H25    H     0.36665   0.49501   0.04782   0.00000  Uiso   1.00
H26    H     0.37288   0.41919   0.96303   0.00000  Uiso   1.00
H27    H     0.51844   0.63027   0.06424   0.00000  Uiso   1.00
H28    H     0.30215   0.53481   0.06947   0.00000  Uiso   1.00
H29    H     0.31529   0.37494   0.89068   0.00000  Uiso   1.00
H30    H     0.62223   0.82004   0.10411   0.00000  Uiso   1.00
H31    H     0.35633   0.15382   0.98780   0.00000  Uiso   1.00
H32    H     0.30198   0.15107   0.00959   0.00000  Uiso   1.00
H33    H     0.30820   0.07524   0.92479   0.00000  Uiso   1.00
H34    H     0.45376   0.28631   0.02601   0.00000  Uiso   1.00
H35    H     0.24965   0.06729   0.03843   0.00000  Uiso   1.00
H36    H     0.26279   0.90741   0.85964   0.00000  Uiso   1.00
H37    H     0.56974   0.35251   0.07308   0.00000  Uiso   1.00
O38    O     0.24124   0.78800   0.06893   0.00000  Uiso   1.00
O39    O     0.25848   0.57826   0.83437   0.00000  Uiso   1.00
O40    O     0.66118   0.16221   0.11438   0.00000  Uiso   1.00
N41    N     0.29726   0.66052   0.05918   0.00000  Uiso   1.00
N42    N     0.30954   0.51104   0.89202   0.00000  Uiso   1.00
N43    N     0.59651   0.92716   0.09155   0.00000  Uiso   1.00
N44    N     0.26901   0.94704   0.04248   0.00000  Uiso   1.00
N45    N     0.28129   0.79756   0.87532   0.00000  Uiso   1.00
N46    N     0.56826   0.21369   0.07486   0.00000  Uiso   1.00
C47    C     0.59545   0.58754   0.48269   0.00000  Uiso   1.00
C48    C     0.63117   0.65580   0.47454   0.00000  Uiso   1.00
C49    C     0.64549   0.55375   0.45821   0.00000  Uiso   1.00
C50    C     0.67852   0.64109   0.45313   0.00000  Uiso   1.00
C51    C     0.73126   0.71924   0.43884   0.00000  Uiso   1.00
C52    C     0.62877   0.61065   0.52094   0.00000  Uiso   1.00
C53    C     0.64106   0.47064   0.54362   0.00000  Uiso   1.00
C54    C     0.67206   0.52000   0.57761   0.00000  Uiso   1.00
C55    C     0.72104   0.52808   0.63536   0.00000  Uiso   1.00
C56    C     0.54917   0.72681   0.46631   0.00000  Uiso   1.00
C57    C     0.49452   0.68448   0.44306   0.00000  Uiso   1.00
C58    C     0.45850   0.83164   0.43105   0.00000  Uiso   1.00
C59    C     0.38388   0.02008   0.40396   0.00000  Uiso   1.00
C60    C     0.62865   0.92412   0.50271   0.00000  Uiso   1.00
C61    C     0.64920   0.83861   0.48542   0.00000  Uiso   1.00
C62    C     0.68221   0.92614   0.48037   0.00000  Uiso   1.00
C63    C     0.69658   0.82424   0.46403   0.00000  Uiso   1.00
C64    C     0.64680   0.79346   0.53182   0.00000  Uiso   1.00
C65    C     0.67778   0.84303   0.56578   0.00000  Uiso   1.00
C66    C     0.69012   0.70314   0.58851   0.00000  Uiso   1.00
C67    C     0.56719   0.90964   0.47718   0.00000  Uiso   1.00
C68    C     0.53125   0.05688   0.46521   0.00000  Uiso   1.00
C69    C     0.47656   0.01478   0.44195   0.00000  Uiso   1.00
H70    H     0.58142   0.44520   0.47422   0.00000  Uiso   1.00
H71    H     0.63153   0.41226   0.44980   0.00000  Uiso   1.00
H72    H     0.62710   0.32918   0.53520   0.00000  Uiso   1.00
H73    H     0.48058   0.54299   0.43464   0.00000  Uiso   1.00
H74    H     0.69506   0.45635   0.42753   0.00000  Uiso   1.00
H75    H     0.68570   0.28118   0.60760   0.00000  Uiso   1.00
H76    H     0.37674   0.73203   0.39556   0.00000  Uiso   1.00
H77    H     0.64268   0.06646   0.51118   0.00000  Uiso   1.00
H78    H     0.69616   0.06762   0.48879   0.00000  Uiso   1.00
H79    H     0.69173   0.98453   0.57419   0.00000  Uiso   1.00
H80    H     0.54521   0.19833   0.47364   0.00000  Uiso   1.00
H81    H     0.74752   0.98825   0.45917   0.00000  Uiso   1.00
H82    H     0.73815   0.81308   0.63925   0.00000  Uiso   1.00
H83    H     0.42920   0.26394   0.42721   0.00000  Uiso   1.00
O84    O     0.75538   0.71183   0.42796   0.00000  Uiso   1.00
O85    O     0.74308   0.48202   0.66421   0.00000  Uiso   1.00
O86    O     0.33774   0.07353   0.38602   0.00000  Uiso   1.00
N87    N     0.70006   0.58139   0.43804   0.00000  Uiso   1.00
N88    N     0.69131   0.41760   0.60640   0.00000  Uiso   1.00
N89    N     0.40246   0.83911   0.40817   0.00000  Uiso   1.00
N90    N     0.72829   0.86760   0.45507   0.00000  Uiso   1.00
N91    N     0.71954   0.70382   0.62343   0.00000  Uiso   1.00
N92    N     0.43069   0.12532   0.42520   0.00000  Uiso   1.00
C93    C     0.18632   0.88228   0.76582   0.00000  Uiso   1.00
C94    C     0.23820   0.95088   0.77358   0.00000  Uiso   1.00
C95    C     0.28569   0.84978   0.78997   0.00000  Uiso   1.00
C96    C     0.32863   0.93729   0.79464   0.00000  Uiso   1.00
C97    C     0.40984   0.01608   0.80839   0.00000  Uiso   1.00
C98    C     0.14200   0.90289   0.72755   0.00000  Uiso   1.00
C99    C     0.10861   0.76144   0.70523   0.00000  Uiso   1.00
C100   C     0.07057   0.80856   0.67116   0.00000  Uiso   1.00
C101   C     0.00241   0.81287   0.61345   0.00000  Uiso   1.00
C102   C     0.17316   0.02276   0.78206   0.00000  Uiso   1.00
C103   C     0.16595   0.98211   0.80557   0.00000  Uiso   1.00
C104   C     0.15413   0.13015   0.81738   0.00000  Uiso   1.00
C105   C     0.13434   0.32058   0.84430   0.00000  Uiso   1.00
C106   C     0.17813   0.21746   0.74498   0.00000  Uiso   1.00
C107   C     0.23374   0.13293   0.76226   0.00000  Uiso   1.00
C108   C     0.27662   0.22062   0.76691   0.00000  Uiso   1.00
C109   C     0.32417   0.11967   0.78330   0.00000  Uiso   1.00
C110   C     0.13755   0.08494   0.71623   0.00000  Uiso   1.00
C111   C     0.09955   0.13228   0.68218   0.00000  Uiso   1.00
C112   C     0.06611   0.99094   0.65982   0.00000  Uiso   1.00
C113   C     0.16871   0.20482   0.77074   0.00000  Uiso   1.00
C114   C     0.15689   0.35295   0.78251   0.00000  Uiso   1.00
C115   C     0.14967   0.31253   0.80604   0.00000  Uiso   1.00
H116   H     0.18979   0.74054   0.77463   0.00000  Uiso   1.00
H117   H     0.28911   0.70889   0.79872   0.00000  Uiso   1.00
H118   H     0.11206   0.62057   0.71400   0.00000  Uiso   1.00
H119   H     0.16940   0.84121   0.81432   0.00000  Uiso   1.00
H120   H     0.39727   0.75406   0.82042   0.00000  Uiso   1.00
H121   H     0.02393   0.56785   0.64179   0.00000  Uiso   1.00
H122   H     0.14483   0.03310   0.85333   0.00000  Uiso   1.00
H123   H     0.17466   0.35920   0.73617   0.00000  Uiso   1.00
H124   H     0.27317   0.36151   0.75815   0.00000  Uiso   1.00
H125   H     0.09611   0.27318   0.67343   0.00000  Uiso   1.00
H126   H     0.15345   0.49382   0.77375   0.00000  Uiso   1.00
H127   H     0.38432   0.28374   0.78749   0.00000  Uiso   1.00
H128   H     0.01098   0.09753   0.60886   0.00000  Uiso   1.00
H129   H     0.13188   0.56279   0.82041   0.00000  Uiso   1.00
O130   O     0.45586   0.00923   0.81910   0.00000  Uiso   1.00
O131   O     0.96605   0.76494   0.58475   0.00000  Uiso   1.00
O132   O     0.12467   0.37533   0.86228   0.00000  Uiso   1.00
N133   N     0.38071   0.87842   0.80966   0.00000  Uiso   1.00
N134   N     0.03166   0.70432   0.64265   0.00000  Uiso   1.00
N135   N     0.14468   0.13928   0.84042   0.00000  Uiso   1.00
N136   N     0.37374   0.16344   0.79194   0.00000  Uiso   1.00
N137   N     0.02470   0.98934   0.62494   0.00000  Uiso   1.00
N138   N     0.13771   0.42430   0.82270   0.00000  Uiso   1.00
C139   C     0.57160   0.37642   0.26695   0.00000  Uiso   1.00
C140   C     0.62406   0.44116   0.27511   0.00000  Uiso   1.00
C141   C     0.67061   0.33535   0.29082   0.00000  Uiso   1.00
C142   C     0.71431   0.41988   0.29603   0.00000  Uiso   1.00
C143   C     0.79619   0.49241   0.31023   0.00000  Uiso   1.00
C144   C     0.52747   0.40464   0.22884   0.00000  Uiso   1.00
C145   C     0.49280   0.26813   0.20564   0.00000  Uiso   1.00
C146   C     0.45520   0.32193   0.17189   0.00000  Uiso   1.00
C147   C     0.38709   0.33780   0.11425   0.00000  Uiso   1.00
C148   C     0.55974   0.51527   0.28409   0.00000  Uiso   1.00
C149   C     0.55218   0.47179   0.30735   0.00000  Uiso   1.00
C150   C     0.54172   0.61873   0.32012   0.00000  Uiso   1.00
C151   C     0.52370   0.80637   0.34827   0.00000  Uiso   1.00
C152   C     0.56645   0.71468   0.24826   0.00000  Uiso   1.00
C153   C     0.62127   0.62488   0.26495   0.00000  Uiso   1.00
C154   C     0.66491   0.70959   0.27014   0.00000  Uiso   1.00
C155   C     0.71152   0.60394   0.28586   0.00000  Uiso   1.00
C156   C     0.52468   0.58836   0.21868   0.00000  Uiso   1.00
C157   C     0.48711   0.64237   0.18496   0.00000  Uiso   1.00
C158   C     0.45240   0.50598   0.16172   0.00000  Uiso   1.00
C159   C     0.55694   0.69900   0.27394   0.00000  Uiso   1.00
C160   C     0.54649   0.84603   0.28667   0.00000  Uiso   1.00
C161   C     0.53892   0.80278   0.30994   0.00000  Uiso   1.00
H162   H     0.57377   0.23338   0.27486   0.00000  Uiso   1.00
H163   H     0.67275   0.19317   0.29868   0.00000  Uiso   1.00
H164   H     0.49497   0.12597   0.21351   0.00000  Uiso   1.00
H165   H     0.55434   0.32960   0.31520   0.00000  Uiso   1.00
H166   H     0.78125   0.22959   0.32059   0.00000  Uiso   1.00
H167   H     0.40638   0.08790   0.14102   0.00000  Uiso   1.00
H168   H     0.53157   0.51729   0.35546   0.00000  Uiso   1.00
H169   H     0.56428   0.85772   0.24035   0.00000  Uiso   1.00
H170   H     0.66274   0.85177   0.26228   0.00000  Uiso   1.00
H171   H     0.48496   0.78456   0.17711   0.00000  Uiso   1.00
H172   H     0.54433   0.98819   0.27880   0.00000  Uiso   1.00
H173   H     0.77312   0.76413   0.29105   0.00000  Uiso   1.00
H174   H     0.39825   0.62244   0.11147   0.00000  Uiso   1.00
H175   H     0.52344   0.05183   0.32591   0.00000  Uiso   1.00
O176   O     0.84212   0.48166   0.32086   0.00000  Uiso   1.00
O177   O     0.35030   0.29578   0.08526   0.00000  Uiso   1.00
O178   O     0.51455   0.85912   0.36661   0.00000  Uiso   1.00
N179   N     0.76583   0.35622   0.31064   0.00000  Uiso   1.00
N180   N     0.41535   0.22375   0.14274   0.00000  Uiso   1.00
N181   N     0.53238   0.62518   0.34322   0.00000  Uiso   1.00
N182   N     0.76146   0.64386   0.29474   0.00000  Uiso   1.00
N183   N     0.41098   0.51138   0.12685   0.00000  Uiso   1.00
N184   N     0.52800   0.91281   0.32732   0.00000  Uiso   1.00
C185   C     0.90360   0.17438   0.01574   0.00000  Uiso   1.00
C186   C     0.86739   0.24059   0.02364   0.00000  Uiso   1.00
C187   C     0.85268   0.13665   0.03957   0.00000  Uiso   1.00
C188   C     0.81925   0.22230   0.04447   0.00000  Uiso   1.00
C189   C     0.76576   0.29723   0.05834   0.00000  Uiso   1.00
C190   C     0.87077   0.19939   0.97756   0.00000  Uiso   1.00
C191   C     0.85890   0.06080   0.95476   0.00000  Uiso   1.00
C192   C     0.82832   0.11178   0.92088   0.00000  Uiso   1.00
C193   C     0.78010   0.12277   0.86322   0.00000  Uiso   1.00
C194   C     0.94985   0.31407   0.03256   0.00000  Uiso   1.00
C195   C     0.00449   0.27191   0.05599   0.00000  Uiso   1.00
C196   C     0.04049   0.41944   0.06841   0.00000  Uiso   1.00
C197   C     0.11507   0.60849   0.09614   0.00000  Uiso   1.00
C198   C     0.87038   0.51133   0.99610   0.00000  Uiso   1.00
C199   C     0.84935   0.42361   0.01297   0.00000  Uiso   1.00
C200   C     0.81593   0.50944   0.01784   0.00000  Uiso   1.00
C201   C     0.80118   0.40565   0.03379   0.00000  Uiso   1.00
C202   C     0.85273   0.38239   0.96690   0.00000  Uiso   1.00
C203   C     0.82215   0.43359   0.93304   0.00000  Uiso   1.00
C204   C     0.81024   0.29512   0.91019   0.00000  Uiso   1.00
C205   C     0.93181   0.49709   0.02189   0.00000  Uiso   1.00
C206   C     0.96774   0.64470   0.03427   0.00000  Uiso   1.00
C207   C     0.02241   0.60278   0.05772   0.00000  Uiso   1.00
H208   H     0.91764   0.03189   0.02404   0.00000  Uiso   1.00
H209   H     0.86665   0.99501   0.04782   0.00000  Uiso   1.00
H210   H     0.87288   0.91919   0.96303   0.00000  Uiso   1.00
H211   H     0.01844   0.13027   0.06424   0.00000  Uiso   1.00
H212   H     0.80215   0.03481   0.06947   0.00000  Uiso   1.00
H213   H     0.81529   0.87494   0.89068   0.00000  Uiso   1.00
H214   H     0.12223   0.32004   0.10411   0.00000  Uiso   1.00
H215   H     0.85633   0.65382   0.98780   0.00000  Uiso   1.00
H216   H     0.80198   0.65107   0.00959   0.00000  Uiso   1.00
H217   H     0.80820   0.57524   0.92479   0.00000  Uiso   1.00
H218   H     0.95376   0.78631   0.02601   0.00000  Uiso   1.00
H219   H     0.74965   0.56729   0.03843   0.00000  Uiso   1.00
H220   H     0.76279   0.40741   0.85964   0.00000  Uiso   1.00
H221   H     0.06974   0.85251   0.07308   0.00000  Uiso   1.00
O222   O     0.74124   0.28800   0.06893   0.00000  Uiso   1.00
O223   O     0.75848   0.07826   0.83437   0.00000  Uiso   1.00
O224   O     0.16118   0.66221   0.11438   0.00000  Uiso   1.00
N225   N     0.79726   0.16052   0.05918   0.00000  Uiso   1.00
N226   N     0.80954   0.01104   0.89202   0.00000  Uiso   1.00
N227   N     0.09651   0.42716   0.09155   0.00000  Uiso   1.00
N228   N     0.76901   0.44704   0.04248   0.00000  Uiso   1.00
N229   N     0.78129   0.29756   0.87532   0.00000  Uiso   1.00
N230   N     0.06826   0.71369   0.07486   0.00000  Uiso   1.00
C231   C     0.09545   0.08754   0.48269   0.00000  Uiso   1.00
C232   C     0.13117   0.15580   0.47454   0.00000  Uiso   1.00
C233   C     0.14549   0.05375   0.45821   0.00000  Uiso   1.00
C234   C     0.17852   0.14109   0.45313   0.00000  Uiso   1.00
C235   C     0.23126   0.21924   0.43884   0.00000  Uiso   1.00
C236   C     0.12877   0.11065   0.52094   0.00000  Uiso   1.00
C237   C     0.14106   0.97064   0.54362   0.00000  Uiso   1.00
C238   C     0.17206   0.02000   0.57761   0.00000  Uiso   1.00
C239   C     0.22104   0.02808   0.63536   0.00000  Uiso   1.00
C240   C     0.04917   0.22681   0.46631   0.00000  Uiso   1.00
C241   C     0.99452   0.18448   0.44306   0.00000  Uiso   1.00
C242   C     0.95850   0.33164   0.43105   0.00000  Uiso   1.00
C243   C     0.88388   0.52008   0.40396   0.00000  Uiso   1.00
C244   C     0.12865   0.42412   0.50271   0.00000  Uiso   1.00
C245   C     0.14920   0.33861   0.48542   0.00000  Uiso   1.00
C246   C     0.18221   0.42614   0.48037   0.00000  Uiso   1.00
C247   C     0.19658   0.32424   0.46403   0.00000  Uiso   1.00
C248   C     0.14680   0.29346   0.53182   0.00000  Uiso   1.00
C249   C     0.17778   0.34303   0.56578   0.00000  Uiso   1.00
C250   C     0.19012   0.20314   0.58851   0.00000  Uiso   1.00
C251   C     0.06719   0.40964   0.47718   0.00000  Uiso   1.00
C252   C     0.03125   0.55688   0.46521   0.00000  Uiso   1.00
C253   C     0.97656   0.51478   0.44195   0.00000  Uiso   1.00
H254   H     0.08142   0.94520   0.47422   0.00000  Uiso   1.00
H255   H     0.13153   0.91226   0.44980   0.00000  Uiso   1.00
H256   H     0.12710   0.82918   0.53520   0.00000  Uiso   1.00
H257   H     0.98058   0.04299   0.43464   0.00000  Uiso   1.00
H258   H     0.19506   0.95635   0.42753   0.00000  Uiso   1.00
H259   H     0.18570   0.78118   0.60760   0.00000  Uiso   1.00
H260   H     0.87674   0.23203   0.39556   0.00000  Uiso   1.00
H261   H     0.14268   0.56646   0.51118   0.00000  Uiso   1.00
H262   H     0.19616   0.56762   0.48879   0.00000  Uiso   1.00
H263   H     0.19173   0.48453   0.57419   0.00000  Uiso   1.00
H264   H     0.04521   0.69833   0.47364   0.00000  Uiso   1.00
H265   H     0.24752   0.48825   0.45917   0.00000  Uiso   1.00
H266   H     0.23815   0.31308   0.63925   0.00000  Uiso   1.00
H267   H     0.92920   0.76394   0.42721   0.00000  Uiso   1.00
O268   O     0.25538   0.21183   0.42796   0.00000  Uiso   1.00
O269   O     0.24308   0.98202   0.66421   0.00000  Uiso   1.00
O270   O     0.83774   0.57353   0.38602   0.00000  Uiso   1.00
N271   N     0.20006   0.08139   0.43804   0.00000  Uiso   1.00
N272   N     0.19131   0.91760   0.60640   0.00000  Uiso   1.00
N273   N     0.90246   0.33911   0.40817   0.00000  Uiso   1.00
N274   N     0.22829   0.36760   0.45507   0.00000  Uiso   1.00
N275   N     0.21954   0.20382   0.62343   0.00000  Uiso   1.00
N276   N     0.93069   0.62532   0.42520   0.00000  Uiso   1.00
C277   C     0.68632   0.38228   0.76582   0.00000  Uiso   1.00
C278   C     0.73820   0.45088   0.77358   0.00000  Uiso   1.00
C279   C     0.78569   0.34978   0.78997   0.00000  Uiso   1.00
C280   C     0.82863   0.43729   0.79464   0.00000  Uiso   1.00
C281   C     0.90984   0.51608   0.80839   0.00000  Uiso   1.00
C282   C     0.64200   0.40289   0.72755   0.00000  Uiso   1.00
C283   C     0.60861   0.26144   0.70523   0.00000  Uiso   1.00
C284   C     0.57057   0.30856   0.67116   0.00000  Uiso   1.00
C285   C     0.50241   0.31287   0.61345   0.00000  Uiso   1.00
C286   C     0.67316   0.52276   0.78206   0.00000  Uiso   1.00
C287   C     0.66595   0.48211   0.80557   0.00000  Uiso   1.00
C288   C     0.65413   0.63015   0.81738   0.00000  Uiso   1.00
C289   C     0.63434   0.82058   0.84430   0.00000  Uiso   1.00
C290   C     0.67813   0.71746   0.74498   0.00000  Uiso   1.00
C291   C     0.73374   0.63293   0.76226   0.00000  Uiso   1.00
C292   C     0.77662   0.72062   0.76691   0.00000  Uiso   1.00
C293   C     0.82417   0.61967   0.78330   0.00000  Uiso   1.00
C294   C     0.63755   0.58494   0.71623   0.00000  Uiso   1.00
C295   C     0.59955   0.63228   0.68218   0.00000  Uiso   1.00
C296   C     0.56611   0.49094   0.65982   0.00000  Uiso   1.00
C297   C     0.66871   0.70482   0.77074   0.00000  Uiso   1.00
C298   C     0.65689   0.85295   0.78251   0.00000  Uiso   1.00
C299   C     0.64967   0.81253   0.80604   0.00000  Uiso   1.00
H300   H     0.68979   0.24054   0.77463   0.00000  Uiso   1.00
H301   H     0.78911   0.20889   0.79872   0.00000  Uiso   1.00
H302   H     0.61206   0.12057   0.71400   0.00000  Uiso   1.00
H303   H     0.66940   0.34121   0.81432   0.00000  Uiso   1.00
H304   H     0.89727   0.25406   0.82042   0.00000  Uiso   1.00
H305   H     0.52393   0.06785   0.64179   0.00000  Uiso   1.00
H306   H     0.64483   0.53310   0.85333   0.00000  Uiso   1.00
H307   H     0.67466   0.85920   0.73617   0.00000  Uiso   1.00
H308   H     0.77317   0.86151   0.75815   0.00000  Uiso   1.00
H309   H     0.59611   0.77318   0.67343   0.00000  Uiso   1.00
H310   H     0.65345   0.99382   0.77375   0.00000  Uiso   1.00
H311   H     0.88432   0.78374   0.78749   0.00000  Uiso   1.00
H312   H     0.51098   0.59753   0.60886   0.00000  Uiso   1.00
H313   H     0.63188   0.06279   0.82041   0.00000  Uiso   1.00
O314   O     0.95586   0.50923   0.81910   0.00000  Uiso   1.00
O315   O     0.46605   0.26494   0.58475   0.00000  Uiso   1.00
O316   O     0.62467   0.87533   0.86228   0.00000  Uiso   1.00
N317   N     0.88071   0.37842   0.80966   0.00000  Uiso   1.00
N318   N     0.53166   0.20432   0.64265   0.00000  Uiso   1.00
N319   N     0.64468   0.63928   0.84042   0.00000  Uiso   1.00
N320   N     0.87374   0.66344   0.79194   0.00000  Uiso   1.00
N321   N     0.52470   0.48934   0.62494   0.00000  Uiso   1.00
N322   N     0.63771   0.92430   0.82270   0.00000  Uiso   1.00
C323   C     0.07160   0.87642   0.26695   0.00000  Uiso   1.00
C324   C     0.12406   0.94116   0.27511   0.00000  Uiso   1.00
C325   C     0.17061   0.83535   0.29082   0.00000  Uiso   1.00
C326   C     0.21431   0.91988   0.29603   0.00000  Uiso   1.00
C327   C     0.29619   0.99241   0.31023   0.00000  Uiso   1.00
C328   C     0.02747   0.90464   0.22884   0.00000  Uiso   1.00
C329   C     0.99280   0.76813   0.20564   0.00000  Uiso   1.00
C330   C     0.95520   0.82193   0.17189   0.00000  Uiso   1.00
C331   C     0.88709   0.83780   0.11425   0.00000  Uiso   1.00
C332   C     0.05974   0.01527   0.28409   0.00000  Uiso   1.00
C333   C     0.05218   0.97179   0.30735   0.00000  Uiso   1.00
C334   C     0.04172   0.11873   0.32012   0.00000  Uiso   1.00
C335   C     0.02370   0.30637   0.34827   0.00000  Uiso   1.00
C336   C     0.06645   0.21468   0.24826   0.00000  Uiso   1.00
C337   C     0.12127   0.12488   0.26495   0.00000  Uiso   1.00
C338   C     0.16491   0.20959   0.27014   0.00000  Uiso   1.00
C339   C     0.21152   0.10394   0.28586   0.00000  Uiso   1.00
C340   C     0.02468   0.08836   0.21868   0.00000  Uiso   1.00
C341   C     0.98711   0.14237   0.18496   0.00000  Uiso   1.00
C342   C     0.95240   0.00598   0.16172   0.00000  Uiso   1.00
C343   C     0.05694   0.19900   0.27394   0.00000  Uiso   1.00
C344   C     0.04649   0.34603   0.28667   0.00000  Uiso   1.00
C345   C     0.03892   0.30278   0.30994   0.00000  Uiso   1.00
H346   H     0.07377   0.73338   0.27486   0.00000  Uiso   1.00
H347   H     0.17275   0.69317   0.29868   0.00000  Uiso   1.00
H348   H     0.99497   0.62597   0.21351   0.00000  Uiso   1.00
H349   H     0.05434   0.82960   0.31520   0.00000  Uiso   1.00
H350   H     0.28125   0.72959   0.32059   0.00000  Uiso   1.00
H351   H     0.90638   0.58790   0.14102   0.00000  Uiso   1.00
H352   H     0.03157   0.01729   0.35546   0.00000  Uiso   1.00
H353   H     0.06428   0.35772   0.24035   0.00000  Uiso   1.00
H354   H     0.16274   0.35177   0.26228   0.00000  Uiso   1.00
H355   H     0.98496   0.28456   0.17711   0.00000  Uiso   1.00
H356   H     0.04433   0.48819   0.27880   0.00000  Uiso   1.00
H357   H     0.27312   0.26413   0.29105   0.00000  Uiso   1.00
H358   H     0.89825   0.12244   0.11147   0.00000  Uiso   1.00
H359   H     0.02344   0.55183   0.32591   0.00000  Uiso   1.00
O360   O     0.34212   0.98166   0.32086   0.00000  Uiso   1.00
O361   O     0.85030   0.79578   0.08526   0.00000  Uiso   1.00
O362   O     0.01455   0.35912   0.36661   0.00000  Uiso   1.00
N363   N     0.26583   0.85622   0.31064   0.00000  Uiso   1.00
N364   N     0.91535   0.72375   0.14274   0.00000  Uiso   1.00
N365   N     0.03238   0.12518   0.34322   0.00000  Uiso   1.00
N366   N     0.26146   0.14386   0.29474   0.00000  Uiso   1.00
N367   N     0.91098   0.01138   0.12685   0.00000  Uiso   1.00
N368   N     0.02800   0.41281   0.32732   0.00000  Uiso   1.00
C369   C     0.59640   0.67438   0.98426   0.00000  Uiso   1.00
C370   C     0.63261   0.74059   0.97636   0.00000  Uiso   1.00
C371   C     0.64732   0.63665   0.96043   0.00000  Uiso   1.00
C372   C     0.68075   0.72230   0.95553   0.00000  Uiso   1.00
C373   C     0.73424   0.79723   0.94166   0.00000  Uiso   1.00
C374   C     0.62923   0.69939   0.02244   0.00000  Uiso   1.00
C375   C     0.64110   0.56080   0.04524   0.00000  Uiso   1.00
C376   C     0.67168   0.61178   0.07912   0.00000  Uiso   1.00
C377   C     0.71990   0.62277   0.13678   0.00000  Uiso   1.00
C378   C     0.55015   0.81407   0.96744   0.00000  Uiso   1.00
C379   C     0.49551   0.77191   0.94401   0.00000  Uiso   1.00
C380   C     0.45951   0.91944   0.93159   0.00000  Uiso   1.00
C381   C     0.38493   0.10849   0.90386   0.00000  Uiso   1.00
C382   C     0.62962   0.01133   0.00390   0.00000  Uiso   1.00
C383   C     0.65065   0.92361   0.98703   0.00000  Uiso   1.00
C384   C     0.68407   0.00944   0.98216   0.00000  Uiso   1.00
C385   C     0.69882   0.90565   0.96621   0.00000  Uiso   1.00
C386   C     0.64727   0.88239   0.03310   0.00000  Uiso   1.00
C387   C     0.67785   0.93359   0.06696   0.00000  Uiso   1.00
C388   C     0.68976   0.79512   0.08981   0.00000  Uiso   1.00
C389   C     0.56819   0.99709   0.97811   0.00000  Uiso   1.00
C390   C     0.53226   0.14470   0.96573   0.00000  Uiso   1.00
C391   C     0.47759   0.10278   0.94228   0.00000  Uiso   1.00
H392   H     0.58236   0.53189   0.97596   0.00000  Uiso   1.00
H393   H     0.63335   0.49501   0.95218   0.00000  Uiso   1.00
H394   H     0.62712   0.41919   0.03697   0.00000  Uiso   1.00
H395   H     0.48156   0.63027   0.93576   0.00000  Uiso   1.00
H396   H     0.69785   0.53481   0.93053   0.00000  Uiso   1.00
H397   H     0.68471   0.37494   0.10932   0.00000  Uiso   1.00
H398   H     0.37777   0.82004   0.89589   0.00000  Uiso   1.00
H399   H     0.64367   0.15382   0.01220   0.00000  Uiso   1.00
H400   H     0.69802   0.15107   0.99041   0.00000  Uiso   1.00
H401   H     0.69180   0.07524   0.07521   0.00000  Uiso   1.00
H402   H     0.54624   0.28631   0.97399   0.00000  Uiso   1.00
H403   H     0.75035   0.06729   0.96157   0.00000  Uiso   1.00
H404   H     0.73721   0.90741   0.14036   0.00000  Uiso   1.00
H405   H     0.43026   0.35251   0.92692   0.00000  Uiso   1.00
O406   O     0.75876   0.78800   0.93107   0.00000  Uiso   1.00
O407   O     0.74152   0.57826   0.16563   0.00000  Uiso   1.00
O408   O     0.33882   0.16221   0.88562   0.00000  Uiso   1.00
N409   N     0.70274   0.66052   0.94082   0.00000  Uiso   1.00
N410   N     0.69046   0.51104   0.10798   0.00000  Uiso   1.00
N411   N     0.40349   0.92716   0.90845   0.00000  Uiso   1.00
N412   N     0.73099   0.94704   0.95752   0.00000  Uiso   1.00
N413   N     0.71871   0.79756   0.12468   0.00000  Uiso   1.00
N414   N     0.43174   0.21369   0.92514   0.00000  Uiso   1.00
C415   C     0.40455   0.58754   0.51731   0.00000  Uiso   1.00
C416   C     0.36883   0.65580   0.52546   0.00000  Uiso   1.00
C417   C     0.35451   0.55375   0.54179   0.00000  Uiso   1.00
C418   C     0.32148   0.64109   0.54687   0.00000  Uiso   1.00
C419   C     0.26874   0.71924   0.56116   0.00000  Uiso   1.00
C420   C     0.37123   0.61065   0.47906   0.00000  Uiso   1.00
C421   C     0.35894   0.47064   0.45638   0.00000  Uiso   1.00
C422   C     0.32794   0.52000   0.42239   0.00000  Uiso   1.00
C423   C     0.27896   0.52808   0.36464   0.00000  Uiso   1.00
C424   C     0.45083   0.72681   0.53369   0.00000  Uiso   1.00
C425   C     0.50548   0.68448   0.55694   0.00000  Uiso   1.00
C426   C     0.54150   0.83164   0.56895   0.00000  Uiso   1.00
C427   C     0.61612   0.02008   0.59604   0.00000  Uiso   1.00
C428   C     0.37135   0.92412   0.49729   0.00000  Uiso   1.00
C429   C     0.35080   0.83861   0.51458   0.00000  Uiso   1.00
C430   C     0.31779   0.92614   0.51963   0.00000  Uiso   1.00
C431   C     0.30342   0.82424   0.53597   0.00000  Uiso   1.00
C432   C     0.35320   0.79346   0.46818   0.00000  Uiso   1.00
C433   C     0.32222   0.84303   0.43422   0.00000  Uiso   1.00
C434   C     0.30988   0.70314   0.41149   0.00000  Uiso   1.00
C435   C     0.43281   0.90964   0.52282   0.00000  Uiso   1.00
C436   C     0.46875   0.05688   0.53479   0.00000  Uiso   1.00
C437   C     0.52344   0.01478   0.55805   0.00000  Uiso   1.00
H438   H     0.41858   0.44520   0.52578   0.00000  Uiso   1.00
H439   H     0.36847   0.41226   0.55020   0.00000  Uiso   1.00
H440   H     0.37290   0.32918   0.46480   0.00000  Uiso   1.00
H441   H     0.51942   0.54299   0.56536   0.00000  Uiso   1.00
H442   H     0.30494   0.45635   0.57247   0.00000  Uiso   1.00
H443   H     0.31430   0.28118   0.39240   0.00000  Uiso   1.00
H444   H     0.62326   0.73203   0.60444   0.00000  Uiso   1.00
H445   H     0.35732   0.06646   0.48882   0.00000  Uiso   1.00
H446   H     0.30384   0.06762   0.51121   0.00000  Uiso   1.00
H447   H     0.30827   0.98453   0.42581   0.00000  Uiso   1.00
H448   H     0.45479   0.19833   0.52636   0.00000  Uiso   1.00
H449   H     0.25248   0.98825   0.54083   0.00000  Uiso   1.00
H450   H     0.26185   0.81308   0.36075   0.00000  Uiso   1.00
H451   H     0.57080   0.26394   0.57279   0.00000  Uiso   1.00
O452   O     0.24462   0.71183   0.57204   0.00000  Uiso   1.00
O453   O     0.25692   0.48202   0.33579   0.00000  Uiso   1.00
O454   O     0.66226   0.07353   0.61398   0.00000  Uiso   1.00
N455   N     0.29994   0.58139   0.56196   0.00000  Uiso   1.00
N456   N     0.30869   0.41760   0.39360   0.00000  Uiso   1.00
N457   N     0.59754   0.83911   0.59183   0.00000  Uiso   1.00
N458   N     0.27171   0.86760   0.54493   0.00000  Uiso   1.00
N459   N     0.28046   0.70382   0.37657   0.00000  Uiso   1.00
N460   N     0.56931   0.12532   0.57480   0.00000  Uiso   1.00
C461   C     0.81368   0.88228   0.23418   0.00000  Uiso   1.00
C462   C     0.76180   0.95088   0.22642   0.00000  Uiso   1.00
C463   C     0.71431   0.84978   0.21003   0.00000  Uiso   1.00
C464   C     0.67137   0.93729   0.20536   0.00000  Uiso   1.00
C465   C     0.59016   0.01608   0.19161   0.00000  Uiso   1.00
C466   C     0.85800   0.90289   0.27245   0.00000  Uiso   1.00
C467   C     0.89139   0.76144   0.29477   0.00000  Uiso   1.00
C468   C     0.92943   0.80856   0.32884   0.00000  Uiso   1.00
C469   C     0.99759   0.81287   0.38655   0.00000  Uiso   1.00
C470   C     0.82684   0.02276   0.21794   0.00000  Uiso   1.00
C471   C     0.83405   0.98211   0.19443   0.00000  Uiso   1.00
C472   C     0.84587   0.13015   0.18262   0.00000  Uiso   1.00
C473   C     0.86566   0.32058   0.15570   0.00000  Uiso   1.00
C474   C     0.82187   0.21746   0.25502   0.00000  Uiso   1.00
C475   C     0.76626   0.13293   0.23774   0.00000  Uiso   1.00
C476   C     0.72338   0.22062   0.23309   0.00000  Uiso   1.00
C477   C     0.67583   0.11967   0.21670   0.00000  Uiso   1.00
C478   C     0.86245   0.08494   0.28377   0.00000  Uiso   1.00
C479   C     0.90045   0.13228   0.31782   0.00000  Uiso   1.00
C480   C     0.93389   0.99094   0.34018   0.00000  Uiso   1.00
C481   C     0.83129   0.20482   0.22926   0.00000  Uiso   1.00
C482   C     0.84311   0.35295   0.21749   0.00000  Uiso   1.00
C483   C     0.85033   0.31253   0.19396   0.00000  Uiso   1.00
H484   H     0.81021   0.74054   0.22537   0.00000  Uiso   1.00
H485   H     0.71089   0.70889   0.20128   0.00000  Uiso   1.00
H486   H     0.88794   0.62057   0.28600   0.00000  Uiso   1.00
H487   H     0.83060   0.84121   0.18568   0.00000  Uiso   1.00
H488   H     0.60273   0.75406   0.17958   0.00000  Uiso   1.00
H489   H     0.97607   0.56785   0.35821   0.00000  Uiso   1.00
H490   H     0.85517   0.03310   0.14667   0.00000  Uiso   1.00
H491   H     0.82534   0.35920   0.26383   0.00000  Uiso   1.00
H492   H     0.72683   0.36151   0.24185   0.00000  Uiso   1.00
H493   H     0.90389   0.27318   0.32657   0.00000  Uiso   1.00
H494   H     0.84655   0.49382   0.22625   0.00000  Uiso   1.00
H495   H     0.61568   0.28374   0.21251   0.00000  Uiso   1.00
H496   H     0.98902   0.09753   0.39114   0.00000  Uiso   1.00
H497   H     0.86812   0.56279   0.17959   0.00000  Uiso   1.00
O498   O     0.54414   0.00923   0.18090   0.00000  Uiso   1.00
O499   O     0.03395   0.76494   0.41525   0.00000  Uiso   1.00
O500   O     0.87533   0.37533   0.13772   0.00000  Uiso   1.00
N501   N     0.61929   0.87842   0.19034   0.00000  Uiso   1.00
N502   N     0.96834   0.70432   0.35735   0.00000  Uiso   1.00
N503   N     0.85532   0.13928   0.15958   0.00000  Uiso   1.00
N504   N     0.62626   0.16344   0.20806   0.00000  Uiso   1.00
N505   N     0.97530   0.98934   0.37506   0.00000  Uiso   1.00
N506   N     0.86229   0.42430   0.17730   0.00000  Uiso   1.00
C507   C     0.42840   0.37642   0.73305   0.00000  Uiso   1.00
C508   C     0.37594   0.44116   0.72489   0.00000  Uiso   1.00
C509   C     0.32939   0.33535   0.70918   0.00000  Uiso   1.00
C510   C     0.28569   0.41988   0.70397   0.00000  Uiso   1.00
C511   C     0.20381   0.49241   0.68977   0.00000  Uiso   1.00
C512   C     0.47253   0.40464   0.77116   0.00000  Uiso   1.00
C513   C     0.50720   0.26813   0.79436   0.00000  Uiso   1.00
C514   C     0.54480   0.32193   0.82811   0.00000  Uiso   1.00
C515   C     0.61291   0.33780   0.88575   0.00000  Uiso   1.00
C516   C     0.44026   0.51527   0.71591   0.00000  Uiso   1.00
C517   C     0.44782   0.47179   0.69265   0.00000  Uiso   1.00
C518   C     0.45828   0.61873   0.67988   0.00000  Uiso   1.00
C519   C     0.47630   0.80637   0.65173   0.00000  Uiso   1.00
C520   C     0.43355   0.71468   0.75174   0.00000  Uiso   1.00
C521   C     0.37873   0.62488   0.73505   0.00000  Uiso   1.00
C522   C     0.33509   0.70959   0.72986   0.00000  Uiso   1.00
C523   C     0.28848   0.60394   0.71414   0.00000  Uiso   1.00
C524   C     0.47532   0.58836   0.78132   0.00000  Uiso   1.00
C525   C     0.51289   0.64237   0.81504   0.00000  Uiso   1.00
C526   C     0.54760   0.50598   0.83828   0.00000  Uiso   1.00
C527   C     0.44306   0.69900   0.72606   0.00000  Uiso   1.00
C528   C     0.45351   0.84603   0.71333   0.00000  Uiso   1.00
C529   C     0.46108   0.80278   0.69006   0.00000  Uiso   1.00
H530   H     0.42623   0.23338   0.72514   0.00000  Uiso   1.00
H531   H     0.32725   0.19317   0.70132   0.00000  Uiso   1.00
H532   H     0.50503   0.12597   0.78649   0.00000  Uiso   1.00
H533   H     0.44566   0.32960   0.68480   0.00000  Uiso   1.00
H534   H     0.21875   0.22959   0.67941   0.00000  Uiso   1.00
H535   H     0.59362   0.08790   0.85898   0.00000  Uiso   1.00
H536   H     0.46843   0.51729   0.64454   0.00000  Uiso   1.00
H537   H     0.43572   0.85772   0.75965   0.00000  Uiso   1.00
H538   H     0.33726   0.85177   0.73772   0.00000  Uiso   1.00
H539   H     0.51504   0.78456   0.82289   0.00000  Uiso   1.00
H540   H     0.45567   0.98819   0.72120   0.00000  Uiso   1.00
H541   H     0.22688   0.76413   0.70895   0.00000  Uiso   1.00
H542   H     0.60175   0.62244   0.88853   0.00000  Uiso   1.00
H543   H     0.47656   0.05183   0.67409   0.00000  Uiso   1.00
O544   O     0.15788   0.48166   0.67914   0.00000  Uiso   1.00
O545   O     0.64970   0.29578   0.91474   0.00000  Uiso   1.00
O546   O     0.48545   0.85912   0.63339   0.00000  Uiso   1.00
N547   N     0.23417   0.35622   0.68936   0.00000  Uiso   1.00
N548   N     0.58465   0.22375   0.85726   0.00000  Uiso   1.00
N549   N     0.46762   0.62518   0.65678   0.00000  Uiso   1.00
N550   N     0.23854   0.64386   0.70526   0.00000  Uiso   1.00
N551   N     0.58902   0.51138   0.87315   0.00000  Uiso   1.00
N552   N     0.47200   0.91281   0.67268   0.00000  Uiso   1.00
C553   C     0.09640   0.17438   0.98426   0.00000  Uiso   1.00
C554   C     0.13261   0.24059   0.97636   0.00000  Uiso   1.00
C555   C     0.14732   0.13665   0.96043   0.00000  Uiso   1.00
C556   C     0.18075   0.22230   0.95553   0.00000  Uiso   1.00
C557   C     0.23424   0.29723   0.94166   0.00000  Uiso   1.00
C558   C     0.12923   0.19939   0.02244   0.00000  Uiso   1.00
C559   C     0.14110   0.06080   0.04524   0.00000  Uiso   1.00
C560   C     0.17168   0.11178   0.07912   0.00000  Uiso   1.00
C561   C     0.21990   0.12277   0.13678   0.00000  Uiso   1.00
C562   C     0.05015   0.31407   0.96744   0.00000  Uiso   1.00
C563   C     0.99551   0.27191   0.94401   0.00000  Uiso   1.00
C564   C     0.95951   0.41944   0.93159   0.00000  Uiso   1.00
C565   C     0.88493   0.60849   0.90386   0.00000  Uiso   1.00
C566   C     0.12962   0.51133   0.00390   0.00000  Uiso   1.00
C567   C     0.15065   0.42361   0.98703   0.00000  Uiso   1.00
C568   C     0.18407   0.50944   0.98216   0.00000  Uiso   1.00
C569   C     0.19882   0.40565   0.96621   0.00000  Uiso   1.00
C570   C     0.14727   0.38239   0.03310   0.00000  Uiso   1.00
C571   C     0.17785   0.43359   0.06696   0.00000  Uiso   1.00
C572   C     0.18976   0.29512   0.08981   0.00000  Uiso   1.00
C573   C     0.06819   0.49709   0.97811   0.00000  Uiso   1.00
C574   C     0.03226   0.64470   0.96573   0.00000  Uiso   1.00
C575   C     0.97759   0.60278   0.94228   0.00000  Uiso   1.00
H576   H     0.08236   0.03189   0.97596   0.00000  Uiso   1.00
H577   H     0.13335   0.99501   0.95218   0.00000  Uiso   1.00
H578   H     0.12712   0.91919   0.03697   0.00000  Uiso   1.00
H579   H     0.98156   0.13027   0.93576   0.00000  Uiso   1.00
H580   H     0.19785   0.03481   0.93053   0.00000  Uiso   1.00
H581   H     0.18471   0.87494   0.10932   0.00000  Uiso   1.00
H582   H     0.87777   0.32004   0.89589   0.00000  Uiso   1.00
H583   H     0.14367   0.65382   0.01220   0.00000  Uiso   1.00
H584   H     0.19802   0.65107   0.99041   0.00000  Uiso   1.00
H585   H     0.19180   0.57524   0.07521   0.00000  Uiso   1.00
H586   H     0.04624   0.78631   0.97399   0.00000  Uiso   1.00
H587   H     0.25035   0.56729   0.96157   0.00000  Uiso   1.00
H588   H     0.23721   0.40741   0.14036   0.00000  Uiso   1.00
H589   H     0.93026   0.85251   0.92692   0.00000  Uiso   1.00
O590   O     0.25876   0.28800   0.93107   0.00000  Uiso   1.00
O591   O     0.24152   0.07826   0.16563   0.00000  Uiso   1.00
O592   O     0.83882   0.66221   0.88562   0.00000  Uiso   1.00
N593   N     0.20274   0.16052   0.94082   0.00000  Uiso   1.00
N594   N     0.19046   0.01104   0.10798   0.00000  Uiso   1.00
N595   N     0.90349   0.42716   0.90845   0.00000  Uiso   1.00
N596   N     0.23099   0.44704   0.95752   0.00000  Uiso   1.00
N597   N     0.21871   0.29756   0.12468   0.00000  Uiso   1.00
N598   N     0.93174   0.71369   0.92514   0.00000  Uiso   1.00
C599   C     0.90455   0.08754   0.51731   0.00000  Uiso   1.00
C600   C     0.86883   0.15580   0.52546   0.00000  Uiso   1.00
C601   C     0.85451   0.05375   0.54179   0.00000  Uiso   1.00
C602   C     0.82148   0.14109   0.54687   0.00000  Uiso   1.00
C603   C     0.76874   0.21924   0.56116   0.00000  Uiso   1.00
C604   C     0.87123   0.11065   0.47906   0.00000  Uiso   1.00
C605   C     0.85894   0.97064   0.45638   0.00000  Uiso   1.00
C606   C     0.82794   0.02000   0.42239   0.00000  Uiso   1.00
C607   C     0.77896   0.02808   0.36464   0.00000  Uiso   1.00
C608   C     0.95083   0.22681   0.53369   0.00000  Uiso   1.00
C609   C     0.00548   0.18448   0.55694   0.00000  Uiso   1.00
C610   C     0.04150   0.33164   0.56895   0.00000  Uiso   1.00
C611   C     0.11612   0.52008   0.59604   0.00000  Uiso   1.00
C612   C     0.87135   0.42412   0.49729   0.00000  Uiso   1.00
C613   C     0.85080   0.33861   0.51458   0.00000  Uiso   1.00
C614   C     0.81779   0.42614   0.51963   0.00000  Uiso   1.00
C615   C     0.80342   0.32424   0.53597   0.00000  Uiso   1.00
C616   C     0.85320   0.29346   0.46818   0.00000  Uiso   1.00
C617   C     0.82222   0.34303   0.43422   0.00000  Uiso   1.00
C618   C     0.80988   0.20314   0.41149   0.00000  Uiso   1.00
C619   C     0.93281   0.40964   0.52282   0.00000  Uiso   1.00
C620   C     0.96875   0.55688   0.53479   0.00000  Uiso   1.00
C621   C     0.02344   0.51478   0.55805   0.00000  Uiso   1.00
H622   H     0.91858   0.94520   0.52578   0.00000  Uiso   1.00
H623   H     0.86847   0.91226   0.55020   0.00000  Uiso   1.00
H624   H     0.87290   0.82918   0.46480   0.00000  Uiso   1.00
H625   H     0.01942   0.04299   0.56536   0.00000  Uiso   1.00
H626   H     0.80494   0.95635   0.57247   0.00000  Uiso   1.00
H627   H     0.81430   0.78118   0.39240   0.00000  Uiso   1.00
H628   H     0.12326   0.23203   0.60444   0.00000  Uiso   1.00
H629   H     0.85732   0.56646   0.48882   0.00000  Uiso   1.00
H630   H     0.80384   0.56762   0.51121   0.00000  Uiso   1.00
H631   H     0.80827   0.48453   0.42581   0.00000  Uiso   1.00
H632   H     0.95479   0.69833   0.52636   0.00000  Uiso   1.00
H633   H     0.75248   0.48825   0.54083   0.00000  Uiso   1.00
H634   H     0.76185   0.31308   0.36075   0.00000  Uiso   1.00
H635   H     0.07080   0.76394   0.57279   0.00000  Uiso   1.00
O636   O     0.74462   0.21183   0.57204   0.00000  Uiso   1.00
O637   O     0.75692   0.98202   0.33579   0.00000  Uiso   1.00
O638   O     0.16226   0.57353   0.61398   0.00000  Uiso   1.00
N639   N     0.79994   0.08139   0.56196   0.00000  Uiso   1.00
N640   N     0.80869   0.91760   0.39360   0.00000  Uiso   1.00
N641   N     0.09754   0.33911   0.59183   0.00000  Uiso   1.00
N642   N     0.77171   0.36760   0.54493   0.00000  Uiso   1.00
N643   N     0.78046   0.20382   0.37657   0.00000  Uiso   1.00
N644   N     0.06931   0.62532   0.57480   0.00000  Uiso   1.00
C645   C     0.31368   0.38228   0.23418   0.00000  Uiso   1.00
C646   C     0.26180   0.45088   0.22642   0.00000  Uiso   1.00
C647   C     0.21431   0.34978   0.21003   0.00000  Uiso   1.00
C648   C     0.17137   0.43729   0.20536   0.00000  Uiso   1.00
C649   C     0.09016   0.51608   0.19161   0.00000  Uiso   1.00
C650   C     0.35800   0.40289   0.27245   0.00000  Uiso   1.00
C651   C     0.39139   0.26144   0.29477   0.00000  Uiso   1.00
C652   C     0.42943   0.30856   0.32884   0.00000  Uiso   1.00
C653   C     0.49759   0.31287   0.38655   0.00000  Uiso   1.00
C654   C     0.32684   0.52276   0.21794   0.00000  Uiso   1.00
C655   C     0.33405   0.48211   0.19443   0.00000  Uiso   1.00
C656   C     0.34587   0.63015   0.18262   0.00000  Uiso   1.00
C657   C     0.36566   0.82058   0.15570   0.00000  Uiso   1.00
C658   C     0.32187   0.71746   0.25502   0.00000  Uiso   1.00
C659   C     0.26626   0.63293   0.23774   0.00000  Uiso   1.00
C660   C     0.22338   0.72062   0.23309   0.00000  Uiso   1.00
C661   C     0.17583   0.61967   0.21670   0.00000  Uiso   1.00
C662   C     0.36245   0.58494   0.28377   0.00000  Uiso   1.00
C663   C     0.40045   0.63228   0.31782   0.00000  Uiso   1.00
C664   C     0.43389   0.49094   0.34018   0.00000  Uiso   1.00
C665   C     0.33129   0.70482   0.22926   0.00000  Uiso   1.00
C666   C     0.34311   0.85295   0.21749   0.00000  Uiso   1.00
C667   C     0.35033   0.81253   0.19396   0.00000  Uiso   1.00
H668   H     0.31021   0.24054   0.22537   0.00000  Uiso   1.00
H669   H     0.21089   0.20889   0.20128   0.00000  Uiso   1.00
H670   H     0.38794   0.12057   0.28600   0.00000  Uiso   1.00
H671   H     0.33060   0.34121   0.18568   0.00000  Uiso   1.00
H672   H     0.10273   0.25406   0.17958   0.00000  Uiso   1.00
H673   H     0.47607   0.06785   0.35821   0.00000  Uiso   1.00
H674   H     0.35517   0.53310   0.14667   0.00000  Uiso   1.00
H675   H     0.32534   0.85920   0.26383   0.00000  Uiso   1.00
H676   H     0.22683   0.86151   0.24185   0.00000  Uiso   1.00
H677   H     0.40389   0.77318   0.32657   0.00000  Uiso   1.00
H678   H     0.34655   0.99382   0.22625   0.00000  Uiso   1.00
H679   H     0.11568   0.78374   0.21251   0.00000  Uiso   1.00
H680   H     0.48902   0.59753   0.39114   0.00000  Uiso   1.00
H681   H     0.36812   0.06279   0.17959   0.00000  Uiso   1.00
O682   O     0.04414   0.50923   0.18090   0.00000  Uiso   1.00
O683   O     0.53395   0.26494   0.41525   0.00000  Uiso   1.00
O684   O     0.37533   0.87533   0.13772   0.00000  Uiso   1.00
N685   N     0.11929   0.37842   0.19034   0.00000  Uiso   1.00
N686   N     0.46834   0.20432   0.35735   0.00000  Uiso   1.00
N687   N     0.35532   0.63928   0.15958   0.00000  Uiso   1.00
N688   N     0.12626   0.66344   0.20806   0.00000  Uiso   1.00
N689   N     0.47530   0.48934   0.37506   0.00000  Uiso   1.00
N690   N     0.36229   0.92430   0.17730   0.00000  Uiso   1.00
C691   C     0.92840   0.87642   0.73305   0.00000  Uiso   1.00
C692   C     0.87594   0.94116   0.72489   0.00000  Uiso   1.00
C693   C     0.82939   0.83535   0.70918   0.00000  Uiso   1.00
C694   C     0.78569   0.91988   0.70397   0.00000  Uiso   1.00
C695   C     0.70381   0.99241   0.68977   0.00000  Uiso   1.00
C696   C     0.97253   0.90464   0.77116   0.00000  Uiso   1.00
C697   C     0.00720   0.76813   0.79436   0.00000  Uiso   1.00
C698   C     0.04480   0.82193   0.82811   0.00000  Uiso   1.00
C699   C     0.11291   0.83780   0.88575   0.00000  Uiso   1.00
C700   C     0.94026   0.01527   0.71591   0.00000  Uiso   1.00
C701   C     0.94782   0.97179   0.69265   0.00000  Uiso   1.00
C702   C     0.95828   0.11873   0.67988   0.00000  Uiso   1.00
C703   C     0.97630   0.30637   0.65173   0.00000  Uiso   1.00
C704   C     0.93355   0.21468   0.75174   0.00000  Uiso   1.00
C705   C     0.87873   0.12488   0.73505   0.00000  Uiso   1.00
C706   C     0.83509   0.20959   0.72986   0.00000  Uiso   1.00
C707   C     0.78848   0.10394   0.71414   0.00000  Uiso   1.00
C708   C     0.97532   0.08836   0.78132   0.00000  Uiso   1.00
C709   C     0.01289   0.14237   0.81504   0.00000  Uiso   1.00
C710   C     0.04760   0.00598   0.83828   0.00000  Uiso   1.00
C711   C     0.94306   0.19900   0.72606   0.00000  Uiso   1.00
C712   C     0.95351   0.34603   0.71333   0.00000  Uiso   1.00
C713   C     0.96108   0.30278   0.69006   0.00000  Uiso   1.00
H714   H     0.92623   0.73338   0.72514   0.00000  Uiso   1.00
H715   H     0.82725   0.69317   0.70132   0.00000  Uiso   1.00
H716   H     0.00503   0.62597   0.78649   0.00000  Uiso   1.00
H717   H     0.94566   0.82960   0.68480   0.00000  Uiso   1.00
H718   H     0.71875   0.72959   0.67941   0.00000  Uiso   1.00
H719   H     0.09362   0.58790   0.85898   0.00000  Uiso   1.00
H720   H     0.96843   0.01729   0.64454   0.00000  Uiso   1.00
H721   H     0.93572   0.35772   0.75965   0.00000  Uiso   1.00
H722   H     0.83726   0.35177   0.73772   0.00000  Uiso   1.00
H723   H     0.01504   0.28456   0.82289   0.00000  Uiso   1.00
H724   H     0.95567   0.48819   0.72120   0.00000  Uiso   1.00
H725   H     0.72688   0.26413   0.70895   0.00000  Uiso   1.00
H726   H     0.10175   0.12244   0.88853   0.00000  Uiso   1.00
H727   H     0.97656   0.55183   0.67409   0.00000  Uiso   1.00
O728   O     0.65788   0.98166   0.67914   0.00000  Uiso   1.00
O729   O     0.14970   0.79578   0.91474   0.00000  Uiso   1.00
O730   O     0.98545   0.35912   0.63339   0.00000  Uiso   1.00
N731   N     0.73417   0.85622   0.68936   0.00000  Uiso   1.00
N732   N     0.08465   0.72375   0.85726   0.00000  Uiso   1.00
N733   N     0.96762   0.12518   0.65678   0.00000  Uiso   1.00
N734   N     0.73854   0.14386   0.70526   0.00000  Uiso   1.00
N735   N     0.08902   0.01138   0.87315   0.00000  Uiso   1.00
N736   N     0.97200   0.41281   0.67268   0.00000  Uiso   1.00
