data_job_03850
_audit_creation_date              2018-12-19
_audit_creation_method            'Materials Studio'
_symmetry_space_group_name_H-M    'P1'
_symmetry_Int_Tables_number       1
_symmetry_cell_setting            triclinic
loop_
_symmetry_equiv_pos_as_xyz
  x,y,z
_cell_length_a                    18.6517
_cell_length_b                    18.6517
_cell_length_c                    39.1220
_cell_angle_alpha                 90.0000
_cell_angle_beta                  90.0000
_cell_angle_gamma                 90.0000
loop_
_atom_site_label
_atom_site_type_symbol
_atom_site_fract_x
_atom_site_fract_y
_atom_site_fract_z
_atom_site_U_iso_or_equiv
_atom_site_adp_type
_atom_site_occupancy
C1     C     0.70507   0.29955   0.27221   0.00000  Uiso   1.00
C2     C     0.69968   0.31739   0.31016   0.00000  Uiso   1.00
C3     C     0.74875   0.29773   0.33513   0.00000  Uiso   1.00
C4     C     0.73416   0.31924   0.36838   0.00000  Uiso   1.00
C5     C     0.73513   0.34088   0.42610   0.00000  Uiso   1.00
C6     C     0.63593   0.26029   0.26312   0.00000  Uiso   1.00
C7     C     0.63141   0.19262   0.24852   0.00000  Uiso   1.00
C8     C     0.56315   0.16607   0.24217   0.00000  Uiso   1.00
C9     C     0.46515   0.09908   0.22683   0.00000  Uiso   1.00
C10    C     0.70203   0.37109   0.25340   0.00000  Uiso   1.00
C11    C     0.75307   0.39658   0.23063   0.00000  Uiso   1.00
C12    C     0.74045   0.46331   0.21609   0.00000  Uiso   1.00
C13    C     0.74508   0.56834   0.18567   0.00000  Uiso   1.00
C14    C     0.59189   0.37272   0.28688   0.00000  Uiso   1.00
C15    C     0.63821   0.35714   0.31813   0.00000  Uiso   1.00
C16    C     0.62354   0.37869   0.35135   0.00000  Uiso   1.00
C17    C     0.67258   0.35906   0.37636   0.00000  Uiso   1.00
C18    C     0.57446   0.30003   0.27109   0.00000  Uiso   1.00
C19    C     0.50619   0.27358   0.26475   0.00000  Uiso   1.00
C20    C     0.50157   0.20589   0.25015   0.00000  Uiso   1.00
C21    C     0.64056   0.41084   0.26137   0.00000  Uiso   1.00
C22    C     0.62786   0.47753   0.24686   0.00000  Uiso   1.00
C23    C     0.67887   0.50312   0.22407   0.00000  Uiso   1.00
H24    H     0.75292   0.26860   0.26601   0.00000  Uiso   1.00
H25    H     0.79631   0.26697   0.32895   0.00000  Uiso   1.00
H26    H     0.67899   0.16188   0.24236   0.00000  Uiso   1.00
H27    H     0.80063   0.36581   0.22447   0.00000  Uiso   1.00
H28    H     0.81730   0.28267   0.40225   0.00000  Uiso   1.00
H29    H     0.56991   0.06109   0.21965   0.00000  Uiso   1.00
H30    H     0.82642   0.49111   0.18194   0.00000  Uiso   1.00
H31    H     0.54403   0.40366   0.29308   0.00000  Uiso   1.00
H32    H     0.57596   0.40944   0.35751   0.00000  Uiso   1.00
H33    H     0.45864   0.30435   0.27092   0.00000  Uiso   1.00
H34    H     0.58028   0.50827   0.25303   0.00000  Uiso   1.00
H35    H     0.63845   0.39830   0.42543   0.00000  Uiso   1.00
H36    H     0.39107   0.17672   0.24283   0.00000  Uiso   1.00
H37    H     0.64758   0.60674   0.20512   0.00000  Uiso   1.00
O38    O     0.75264   0.34183   0.45574   0.00000  Uiso   1.00
O39    O     0.42808   0.05114   0.21617   0.00000  Uiso   1.00
O40    O     0.76462   0.61531   0.16669   0.00000  Uiso   1.00
N41    N     0.77083   0.30910   0.39886   0.00000  Uiso   1.00
N42    N     0.53954   0.10194   0.22815   0.00000  Uiso   1.00
N43    N     0.77935   0.50395   0.19288   0.00000  Uiso   1.00
N44    N     0.67460   0.37132   0.41134   0.00000  Uiso   1.00
N45    N     0.44330   0.16416   0.24063   0.00000  Uiso   1.00
N46    N     0.68311   0.56617   0.20536   0.00000  Uiso   1.00
C47    C     0.20507   0.79955   0.77221   0.00000  Uiso   1.00
C48    C     0.19968   0.81739   0.81016   0.00000  Uiso   1.00
C49    C     0.24875   0.79773   0.83513   0.00000  Uiso   1.00
C50    C     0.23416   0.81924   0.86838   0.00000  Uiso   1.00
C51    C     0.23513   0.84088   0.92610   0.00000  Uiso   1.00
C52    C     0.13593   0.76029   0.76312   0.00000  Uiso   1.00
C53    C     0.13141   0.69262   0.74852   0.00000  Uiso   1.00
C54    C     0.06315   0.66607   0.74217   0.00000  Uiso   1.00
C55    C     0.96515   0.59908   0.72683   0.00000  Uiso   1.00
C56    C     0.20203   0.87109   0.75340   0.00000  Uiso   1.00
C57    C     0.25307   0.89658   0.73063   0.00000  Uiso   1.00
C58    C     0.24045   0.96331   0.71609   0.00000  Uiso   1.00
C59    C     0.24508   0.06834   0.68567   0.00000  Uiso   1.00
C60    C     0.09189   0.87272   0.78688   0.00000  Uiso   1.00
C61    C     0.13821   0.85714   0.81813   0.00000  Uiso   1.00
C62    C     0.12354   0.87869   0.85135   0.00000  Uiso   1.00
C63    C     0.17258   0.85906   0.87636   0.00000  Uiso   1.00
C64    C     0.07446   0.80003   0.77109   0.00000  Uiso   1.00
C65    C     0.00619   0.77358   0.76475   0.00000  Uiso   1.00
C66    C     0.00157   0.70589   0.75015   0.00000  Uiso   1.00
C67    C     0.14056   0.91084   0.76137   0.00000  Uiso   1.00
C68    C     0.12786   0.97753   0.74686   0.00000  Uiso   1.00
C69    C     0.17887   0.00312   0.72407   0.00000  Uiso   1.00
H70    H     0.25292   0.76860   0.76601   0.00000  Uiso   1.00
H71    H     0.29631   0.76697   0.82895   0.00000  Uiso   1.00
H72    H     0.17899   0.66188   0.74236   0.00000  Uiso   1.00
H73    H     0.30063   0.86581   0.72447   0.00000  Uiso   1.00
H74    H     0.31730   0.78267   0.90225   0.00000  Uiso   1.00
H75    H     0.06991   0.56109   0.71965   0.00000  Uiso   1.00
H76    H     0.32642   0.99111   0.68194   0.00000  Uiso   1.00
H77    H     0.04403   0.90366   0.79308   0.00000  Uiso   1.00
H78    H     0.07596   0.90944   0.85751   0.00000  Uiso   1.00
H79    H     0.95864   0.80435   0.77092   0.00000  Uiso   1.00
H80    H     0.08028   0.00827   0.75303   0.00000  Uiso   1.00
H81    H     0.13845   0.89830   0.92543   0.00000  Uiso   1.00
H82    H     0.89107   0.67672   0.74283   0.00000  Uiso   1.00
H83    H     0.14758   0.10674   0.70512   0.00000  Uiso   1.00
O84    O     0.25264   0.84183   0.95574   0.00000  Uiso   1.00
O85    O     0.92808   0.55114   0.71617   0.00000  Uiso   1.00
O86    O     0.26462   0.11531   0.66669   0.00000  Uiso   1.00
N87    N     0.27083   0.80910   0.89886   0.00000  Uiso   1.00
N88    N     0.03954   0.60194   0.72815   0.00000  Uiso   1.00
N89    N     0.27935   0.00395   0.69288   0.00000  Uiso   1.00
N90    N     0.17460   0.87132   0.91134   0.00000  Uiso   1.00
N91    N     0.94330   0.66416   0.74063   0.00000  Uiso   1.00
N92    N     0.18311   0.06617   0.70536   0.00000  Uiso   1.00
C93    C     0.79493   0.20045   0.77221   0.00000  Uiso   1.00
C94    C     0.80032   0.18261   0.81016   0.00000  Uiso   1.00
C95    C     0.75125   0.20227   0.83513   0.00000  Uiso   1.00
C96    C     0.76584   0.18076   0.86838   0.00000  Uiso   1.00
C97    C     0.76487   0.15912   0.92610   0.00000  Uiso   1.00
C98    C     0.86407   0.23971   0.76312   0.00000  Uiso   1.00
C99    C     0.86859   0.30738   0.74852   0.00000  Uiso   1.00
C100   C     0.93685   0.33393   0.74217   0.00000  Uiso   1.00
C101   C     0.03485   0.40092   0.72683   0.00000  Uiso   1.00
C102   C     0.79797   0.12891   0.75340   0.00000  Uiso   1.00
C103   C     0.74693   0.10342   0.73063   0.00000  Uiso   1.00
C104   C     0.75955   0.03669   0.71609   0.00000  Uiso   1.00
C105   C     0.75492   0.93166   0.68567   0.00000  Uiso   1.00
C106   C     0.90811   0.12728   0.78688   0.00000  Uiso   1.00
C107   C     0.86179   0.14286   0.81813   0.00000  Uiso   1.00
C108   C     0.87646   0.12131   0.85135   0.00000  Uiso   1.00
C109   C     0.82742   0.14094   0.87636   0.00000  Uiso   1.00
C110   C     0.92554   0.19997   0.77109   0.00000  Uiso   1.00
C111   C     0.99381   0.22642   0.76475   0.00000  Uiso   1.00
C112   C     0.99843   0.29411   0.75015   0.00000  Uiso   1.00
C113   C     0.85944   0.08916   0.76137   0.00000  Uiso   1.00
C114   C     0.87214   0.02247   0.74686   0.00000  Uiso   1.00
C115   C     0.82113   0.99688   0.72407   0.00000  Uiso   1.00
H116   H     0.74708   0.23140   0.76601   0.00000  Uiso   1.00
H117   H     0.70369   0.23303   0.82895   0.00000  Uiso   1.00
H118   H     0.82101   0.33812   0.74236   0.00000  Uiso   1.00
H119   H     0.69937   0.13419   0.72447   0.00000  Uiso   1.00
H120   H     0.68270   0.21733   0.90225   0.00000  Uiso   1.00
H121   H     0.93009   0.43891   0.71965   0.00000  Uiso   1.00
H122   H     0.67358   0.00889   0.68194   0.00000  Uiso   1.00
H123   H     0.95597   0.09634   0.79308   0.00000  Uiso   1.00
H124   H     0.92404   0.09056   0.85751   0.00000  Uiso   1.00
H125   H     0.04136   0.19565   0.77092   0.00000  Uiso   1.00
H126   H     0.91972   0.99173   0.75303   0.00000  Uiso   1.00
H127   H     0.86155   0.10170   0.92543   0.00000  Uiso   1.00
H128   H     0.10893   0.32328   0.74283   0.00000  Uiso   1.00
H129   H     0.85242   0.89326   0.70512   0.00000  Uiso   1.00
O130   O     0.74736   0.15817   0.95574   0.00000  Uiso   1.00
O131   O     0.07192   0.44886   0.71617   0.00000  Uiso   1.00
O132   O     0.73538   0.88469   0.66669   0.00000  Uiso   1.00
N133   N     0.72917   0.19090   0.89886   0.00000  Uiso   1.00
N134   N     0.96046   0.39806   0.72815   0.00000  Uiso   1.00
N135   N     0.72065   0.99605   0.69288   0.00000  Uiso   1.00
N136   N     0.82540   0.12868   0.91134   0.00000  Uiso   1.00
N137   N     0.05670   0.33584   0.74063   0.00000  Uiso   1.00
N138   N     0.81689   0.93383   0.70536   0.00000  Uiso   1.00
C139   C     0.29493   0.70045   0.27221   0.00000  Uiso   1.00
C140   C     0.30032   0.68261   0.31016   0.00000  Uiso   1.00
C141   C     0.25125   0.70227   0.33513   0.00000  Uiso   1.00
C142   C     0.26584   0.68076   0.36838   0.00000  Uiso   1.00
C143   C     0.26487   0.65912   0.42610   0.00000  Uiso   1.00
C144   C     0.36407   0.73971   0.26312   0.00000  Uiso   1.00
C145   C     0.36859   0.80738   0.24852   0.00000  Uiso   1.00
C146   C     0.43685   0.83393   0.24217   0.00000  Uiso   1.00
C147   C     0.53485   0.90092   0.22683   0.00000  Uiso   1.00
C148   C     0.29797   0.62891   0.25340   0.00000  Uiso   1.00
C149   C     0.24693   0.60342   0.23063   0.00000  Uiso   1.00
C150   C     0.25955   0.53669   0.21609   0.00000  Uiso   1.00
C151   C     0.25492   0.43166   0.18567   0.00000  Uiso   1.00
C152   C     0.40811   0.62728   0.28688   0.00000  Uiso   1.00
C153   C     0.36179   0.64286   0.31813   0.00000  Uiso   1.00
C154   C     0.37646   0.62131   0.35135   0.00000  Uiso   1.00
C155   C     0.32742   0.64094   0.37636   0.00000  Uiso   1.00
C156   C     0.42554   0.69997   0.27109   0.00000  Uiso   1.00
C157   C     0.49381   0.72642   0.26475   0.00000  Uiso   1.00
C158   C     0.49843   0.79411   0.25015   0.00000  Uiso   1.00
C159   C     0.35944   0.58916   0.26137   0.00000  Uiso   1.00
C160   C     0.37214   0.52247   0.24686   0.00000  Uiso   1.00
C161   C     0.32113   0.49688   0.22407   0.00000  Uiso   1.00
H162   H     0.24708   0.73140   0.26601   0.00000  Uiso   1.00
H163   H     0.20369   0.73303   0.32895   0.00000  Uiso   1.00
H164   H     0.32101   0.83812   0.24236   0.00000  Uiso   1.00
H165   H     0.19937   0.63419   0.22447   0.00000  Uiso   1.00
H166   H     0.18270   0.71733   0.40225   0.00000  Uiso   1.00
H167   H     0.43009   0.93891   0.21965   0.00000  Uiso   1.00
H168   H     0.17358   0.50889   0.18194   0.00000  Uiso   1.00
H169   H     0.45597   0.59634   0.29308   0.00000  Uiso   1.00
H170   H     0.42404   0.59056   0.35751   0.00000  Uiso   1.00
H171   H     0.54136   0.69565   0.27092   0.00000  Uiso   1.00
H172   H     0.41972   0.49173   0.25303   0.00000  Uiso   1.00
H173   H     0.36155   0.60170   0.42543   0.00000  Uiso   1.00
H174   H     0.60893   0.82328   0.24283   0.00000  Uiso   1.00
H175   H     0.35242   0.39326   0.20512   0.00000  Uiso   1.00
O176   O     0.24736   0.65817   0.45574   0.00000  Uiso   1.00
O177   O     0.57192   0.94886   0.21617   0.00000  Uiso   1.00
O178   O     0.23538   0.38469   0.16669   0.00000  Uiso   1.00
N179   N     0.22917   0.69090   0.39886   0.00000  Uiso   1.00
N180   N     0.46046   0.89806   0.22815   0.00000  Uiso   1.00
N181   N     0.22065   0.49605   0.19288   0.00000  Uiso   1.00
N182   N     0.32540   0.62868   0.41134   0.00000  Uiso   1.00
N183   N     0.55670   0.83584   0.24063   0.00000  Uiso   1.00
N184   N     0.31689   0.43383   0.20536   0.00000  Uiso   1.00
C185   C     0.70045   0.20507   0.52221   0.00000  Uiso   1.00
C186   C     0.68261   0.19968   0.56016   0.00000  Uiso   1.00
C187   C     0.70227   0.24875   0.58513   0.00000  Uiso   1.00
C188   C     0.68076   0.23416   0.61838   0.00000  Uiso   1.00
C189   C     0.65912   0.23513   0.67610   0.00000  Uiso   1.00
C190   C     0.73971   0.13593   0.51312   0.00000  Uiso   1.00
C191   C     0.80738   0.13141   0.49852   0.00000  Uiso   1.00
C192   C     0.83393   0.06315   0.49217   0.00000  Uiso   1.00
C193   C     0.90092   0.96515   0.47683   0.00000  Uiso   1.00
C194   C     0.62891   0.20203   0.50340   0.00000  Uiso   1.00
C195   C     0.60342   0.25307   0.48063   0.00000  Uiso   1.00
C196   C     0.53669   0.24045   0.46609   0.00000  Uiso   1.00
C197   C     0.43166   0.24508   0.43567   0.00000  Uiso   1.00
C198   C     0.62728   0.09189   0.53688   0.00000  Uiso   1.00
C199   C     0.64286   0.13821   0.56813   0.00000  Uiso   1.00
C200   C     0.62131   0.12354   0.60135   0.00000  Uiso   1.00
C201   C     0.64094   0.17258   0.62636   0.00000  Uiso   1.00
C202   C     0.69997   0.07446   0.52109   0.00000  Uiso   1.00
C203   C     0.72642   0.00619   0.51475   0.00000  Uiso   1.00
C204   C     0.79411   0.00157   0.50015   0.00000  Uiso   1.00
C205   C     0.58916   0.14056   0.51137   0.00000  Uiso   1.00
C206   C     0.52247   0.12786   0.49686   0.00000  Uiso   1.00
C207   C     0.49688   0.17887   0.47407   0.00000  Uiso   1.00
H208   H     0.73140   0.25292   0.51601   0.00000  Uiso   1.00
H209   H     0.73303   0.29631   0.57895   0.00000  Uiso   1.00
H210   H     0.83812   0.17899   0.49236   0.00000  Uiso   1.00
H211   H     0.63419   0.30063   0.47447   0.00000  Uiso   1.00
H212   H     0.71733   0.31730   0.65225   0.00000  Uiso   1.00
H213   H     0.93891   0.06991   0.46965   0.00000  Uiso   1.00
H214   H     0.50889   0.32642   0.43194   0.00000  Uiso   1.00
H215   H     0.59634   0.04403   0.54308   0.00000  Uiso   1.00
H216   H     0.59056   0.07596   0.60751   0.00000  Uiso   1.00
H217   H     0.69565   0.95864   0.52092   0.00000  Uiso   1.00
H218   H     0.49173   0.08028   0.50303   0.00000  Uiso   1.00
H219   H     0.60170   0.13845   0.67543   0.00000  Uiso   1.00
H220   H     0.82328   0.89107   0.49283   0.00000  Uiso   1.00
H221   H     0.39326   0.14758   0.45512   0.00000  Uiso   1.00
O222   O     0.65817   0.25264   0.70574   0.00000  Uiso   1.00
O223   O     0.94886   0.92808   0.46617   0.00000  Uiso   1.00
O224   O     0.38469   0.26462   0.41669   0.00000  Uiso   1.00
N225   N     0.69090   0.27083   0.64886   0.00000  Uiso   1.00
N226   N     0.89806   0.03954   0.47815   0.00000  Uiso   1.00
N227   N     0.49605   0.27935   0.44288   0.00000  Uiso   1.00
N228   N     0.62868   0.17460   0.66134   0.00000  Uiso   1.00
N229   N     0.83584   0.94330   0.49063   0.00000  Uiso   1.00
N230   N     0.43383   0.18311   0.45536   0.00000  Uiso   1.00
C231   C     0.20045   0.70507   0.02221   0.00000  Uiso   1.00
C232   C     0.18261   0.69968   0.06016   0.00000  Uiso   1.00
C233   C     0.20227   0.74875   0.08513   0.00000  Uiso   1.00
C234   C     0.18076   0.73416   0.11838   0.00000  Uiso   1.00
C235   C     0.15912   0.73513   0.17610   0.00000  Uiso   1.00
C236   C     0.23971   0.63593   0.01312   0.00000  Uiso   1.00
C237   C     0.30738   0.63141   0.99852   0.00000  Uiso   1.00
C238   C     0.33393   0.56315   0.99217   0.00000  Uiso   1.00
C239   C     0.40092   0.46515   0.97683   0.00000  Uiso   1.00
C240   C     0.12891   0.70203   0.00340   0.00000  Uiso   1.00
C241   C     0.10342   0.75307   0.98063   0.00000  Uiso   1.00
C242   C     0.03669   0.74045   0.96609   0.00000  Uiso   1.00
C243   C     0.93166   0.74508   0.93567   0.00000  Uiso   1.00
C244   C     0.12728   0.59189   0.03688   0.00000  Uiso   1.00
C245   C     0.14286   0.63821   0.06813   0.00000  Uiso   1.00
C246   C     0.12131   0.62354   0.10135   0.00000  Uiso   1.00
C247   C     0.14094   0.67258   0.12636   0.00000  Uiso   1.00
C248   C     0.19997   0.57446   0.02109   0.00000  Uiso   1.00
C249   C     0.22642   0.50619   0.01475   0.00000  Uiso   1.00
C250   C     0.29411   0.50157   0.00015   0.00000  Uiso   1.00
C251   C     0.08916   0.64056   0.01137   0.00000  Uiso   1.00
C252   C     0.02247   0.62786   0.99686   0.00000  Uiso   1.00
C253   C     0.99688   0.67887   0.97407   0.00000  Uiso   1.00
H254   H     0.23140   0.75292   0.01601   0.00000  Uiso   1.00
H255   H     0.23303   0.79631   0.07895   0.00000  Uiso   1.00
H256   H     0.33812   0.67899   0.99236   0.00000  Uiso   1.00
H257   H     0.13419   0.80063   0.97447   0.00000  Uiso   1.00
H258   H     0.21733   0.81730   0.15225   0.00000  Uiso   1.00
H259   H     0.43891   0.56991   0.96965   0.00000  Uiso   1.00
H260   H     0.00889   0.82642   0.93194   0.00000  Uiso   1.00
H261   H     0.09634   0.54403   0.04308   0.00000  Uiso   1.00
H262   H     0.09056   0.57596   0.10751   0.00000  Uiso   1.00
H263   H     0.19565   0.45864   0.02092   0.00000  Uiso   1.00
H264   H     0.99173   0.58028   0.00303   0.00000  Uiso   1.00
H265   H     0.10170   0.63845   0.17543   0.00000  Uiso   1.00
H266   H     0.32328   0.39107   0.99283   0.00000  Uiso   1.00
H267   H     0.89326   0.64758   0.95512   0.00000  Uiso   1.00
O268   O     0.15817   0.75264   0.20574   0.00000  Uiso   1.00
O269   O     0.44886   0.42808   0.96617   0.00000  Uiso   1.00
O270   O     0.88469   0.76462   0.91669   0.00000  Uiso   1.00
N271   N     0.19090   0.77083   0.14886   0.00000  Uiso   1.00
N272   N     0.39806   0.53954   0.97815   0.00000  Uiso   1.00
N273   N     0.99605   0.77935   0.94288   0.00000  Uiso   1.00
N274   N     0.12868   0.67460   0.16134   0.00000  Uiso   1.00
N275   N     0.33584   0.44330   0.99063   0.00000  Uiso   1.00
N276   N     0.93383   0.68311   0.95536   0.00000  Uiso   1.00
C277   C     0.79955   0.29493   0.02221   0.00000  Uiso   1.00
C278   C     0.81739   0.30032   0.06016   0.00000  Uiso   1.00
C279   C     0.79773   0.25125   0.08513   0.00000  Uiso   1.00
C280   C     0.81924   0.26584   0.11838   0.00000  Uiso   1.00
C281   C     0.84088   0.26487   0.17610   0.00000  Uiso   1.00
C282   C     0.76029   0.36407   0.01312   0.00000  Uiso   1.00
C283   C     0.69262   0.36859   0.99852   0.00000  Uiso   1.00
C284   C     0.66607   0.43685   0.99217   0.00000  Uiso   1.00
C285   C     0.59908   0.53485   0.97683   0.00000  Uiso   1.00
C286   C     0.87109   0.29797   0.00340   0.00000  Uiso   1.00
C287   C     0.89658   0.24693   0.98063   0.00000  Uiso   1.00
C288   C     0.96331   0.25955   0.96609   0.00000  Uiso   1.00
C289   C     0.06834   0.25492   0.93567   0.00000  Uiso   1.00
C290   C     0.87272   0.40811   0.03688   0.00000  Uiso   1.00
C291   C     0.85714   0.36179   0.06813   0.00000  Uiso   1.00
C292   C     0.87869   0.37646   0.10135   0.00000  Uiso   1.00
C293   C     0.85906   0.32742   0.12636   0.00000  Uiso   1.00
C294   C     0.80003   0.42554   0.02109   0.00000  Uiso   1.00
C295   C     0.77358   0.49381   0.01475   0.00000  Uiso   1.00
C296   C     0.70589   0.49843   0.00015   0.00000  Uiso   1.00
C297   C     0.91084   0.35944   0.01137   0.00000  Uiso   1.00
C298   C     0.97753   0.37214   0.99686   0.00000  Uiso   1.00
C299   C     0.00312   0.32113   0.97407   0.00000  Uiso   1.00
H300   H     0.76860   0.24708   0.01601   0.00000  Uiso   1.00
H301   H     0.76697   0.20369   0.07895   0.00000  Uiso   1.00
H302   H     0.66188   0.32101   0.99236   0.00000  Uiso   1.00
H303   H     0.86581   0.19937   0.97447   0.00000  Uiso   1.00
H304   H     0.78267   0.18270   0.15225   0.00000  Uiso   1.00
H305   H     0.56109   0.43009   0.96965   0.00000  Uiso   1.00
H306   H     0.99111   0.17358   0.93194   0.00000  Uiso   1.00
H307   H     0.90366   0.45597   0.04308   0.00000  Uiso   1.00
H308   H     0.90944   0.42404   0.10751   0.00000  Uiso   1.00
H309   H     0.80435   0.54136   0.02092   0.00000  Uiso   1.00
H310   H     0.00827   0.41972   0.00303   0.00000  Uiso   1.00
H311   H     0.89830   0.36155   0.17543   0.00000  Uiso   1.00
H312   H     0.67672   0.60893   0.99283   0.00000  Uiso   1.00
H313   H     0.10674   0.35242   0.95512   0.00000  Uiso   1.00
O314   O     0.84183   0.24736   0.20574   0.00000  Uiso   1.00
O315   O     0.55114   0.57192   0.96617   0.00000  Uiso   1.00
O316   O     0.11531   0.23538   0.91669   0.00000  Uiso   1.00
N317   N     0.80910   0.22917   0.14886   0.00000  Uiso   1.00
N318   N     0.60194   0.46046   0.97815   0.00000  Uiso   1.00
N319   N     0.00395   0.22065   0.94288   0.00000  Uiso   1.00
N320   N     0.87132   0.32540   0.16134   0.00000  Uiso   1.00
N321   N     0.66416   0.55670   0.99063   0.00000  Uiso   1.00
N322   N     0.06617   0.31689   0.95536   0.00000  Uiso   1.00
C323   C     0.29955   0.79493   0.52221   0.00000  Uiso   1.00
C324   C     0.31739   0.80032   0.56016   0.00000  Uiso   1.00
C325   C     0.29773   0.75125   0.58513   0.00000  Uiso   1.00
C326   C     0.31924   0.76584   0.61838   0.00000  Uiso   1.00
C327   C     0.34088   0.76487   0.67610   0.00000  Uiso   1.00
C328   C     0.26029   0.86407   0.51312   0.00000  Uiso   1.00
C329   C     0.19262   0.86859   0.49852   0.00000  Uiso   1.00
C330   C     0.16607   0.93685   0.49217   0.00000  Uiso   1.00
C331   C     0.09908   0.03485   0.47683   0.00000  Uiso   1.00
C332   C     0.37109   0.79797   0.50340   0.00000  Uiso   1.00
C333   C     0.39658   0.74693   0.48063   0.00000  Uiso   1.00
C334   C     0.46331   0.75955   0.46609   0.00000  Uiso   1.00
C335   C     0.56834   0.75492   0.43567   0.00000  Uiso   1.00
C336   C     0.37272   0.90811   0.53688   0.00000  Uiso   1.00
C337   C     0.35714   0.86179   0.56813   0.00000  Uiso   1.00
C338   C     0.37869   0.87646   0.60135   0.00000  Uiso   1.00
C339   C     0.35906   0.82742   0.62636   0.00000  Uiso   1.00
C340   C     0.30003   0.92554   0.52109   0.00000  Uiso   1.00
C341   C     0.27358   0.99381   0.51475   0.00000  Uiso   1.00
C342   C     0.20589   0.99843   0.50015   0.00000  Uiso   1.00
C343   C     0.41084   0.85944   0.51137   0.00000  Uiso   1.00
C344   C     0.47753   0.87214   0.49686   0.00000  Uiso   1.00
C345   C     0.50312   0.82113   0.47407   0.00000  Uiso   1.00
H346   H     0.26860   0.74708   0.51601   0.00000  Uiso   1.00
H347   H     0.26697   0.70369   0.57895   0.00000  Uiso   1.00
H348   H     0.16188   0.82101   0.49236   0.00000  Uiso   1.00
H349   H     0.36581   0.69937   0.47447   0.00000  Uiso   1.00
H350   H     0.28267   0.68270   0.65225   0.00000  Uiso   1.00
H351   H     0.06109   0.93009   0.46965   0.00000  Uiso   1.00
H352   H     0.49111   0.67358   0.43194   0.00000  Uiso   1.00
H353   H     0.40366   0.95597   0.54308   0.00000  Uiso   1.00
H354   H     0.40944   0.92404   0.60751   0.00000  Uiso   1.00
H355   H     0.30435   0.04136   0.52092   0.00000  Uiso   1.00
H356   H     0.50827   0.91972   0.50303   0.00000  Uiso   1.00
H357   H     0.39830   0.86155   0.67543   0.00000  Uiso   1.00
H358   H     0.17672   0.10893   0.49283   0.00000  Uiso   1.00
H359   H     0.60674   0.85242   0.45512   0.00000  Uiso   1.00
O360   O     0.34183   0.74736   0.70574   0.00000  Uiso   1.00
O361   O     0.05114   0.07192   0.46617   0.00000  Uiso   1.00
O362   O     0.61531   0.73538   0.41669   0.00000  Uiso   1.00
N363   N     0.30910   0.72917   0.64886   0.00000  Uiso   1.00
N364   N     0.10194   0.96046   0.47815   0.00000  Uiso   1.00
N365   N     0.50395   0.72065   0.44288   0.00000  Uiso   1.00
N366   N     0.37132   0.82540   0.66134   0.00000  Uiso   1.00
N367   N     0.16416   0.05670   0.49063   0.00000  Uiso   1.00
N368   N     0.56617   0.81689   0.45536   0.00000  Uiso   1.00
C369   C     0.70507   0.70045   0.77221   0.00000  Uiso   1.00
C370   C     0.69968   0.68261   0.81016   0.00000  Uiso   1.00
C371   C     0.74875   0.70227   0.83513   0.00000  Uiso   1.00
C372   C     0.73416   0.68076   0.86838   0.00000  Uiso   1.00
C373   C     0.73513   0.65912   0.92610   0.00000  Uiso   1.00
C374   C     0.63593   0.73971   0.76312   0.00000  Uiso   1.00
C375   C     0.63141   0.80738   0.74852   0.00000  Uiso   1.00
C376   C     0.56315   0.83393   0.74217   0.00000  Uiso   1.00
C377   C     0.46515   0.90092   0.72683   0.00000  Uiso   1.00
C378   C     0.70203   0.62891   0.75340   0.00000  Uiso   1.00
C379   C     0.75307   0.60342   0.73063   0.00000  Uiso   1.00
C380   C     0.74045   0.53669   0.71609   0.00000  Uiso   1.00
C381   C     0.74508   0.43166   0.68567   0.00000  Uiso   1.00
C382   C     0.59189   0.62728   0.78688   0.00000  Uiso   1.00
C383   C     0.63821   0.64286   0.81813   0.00000  Uiso   1.00
C384   C     0.62354   0.62131   0.85135   0.00000  Uiso   1.00
C385   C     0.67258   0.64094   0.87636   0.00000  Uiso   1.00
C386   C     0.57446   0.69997   0.77109   0.00000  Uiso   1.00
C387   C     0.50619   0.72642   0.76475   0.00000  Uiso   1.00
C388   C     0.50157   0.79411   0.75015   0.00000  Uiso   1.00
C389   C     0.64056   0.58916   0.76137   0.00000  Uiso   1.00
C390   C     0.62786   0.52247   0.74686   0.00000  Uiso   1.00
C391   C     0.67887   0.49688   0.72407   0.00000  Uiso   1.00
H392   H     0.75292   0.73140   0.76601   0.00000  Uiso   1.00
H393   H     0.79631   0.73303   0.82895   0.00000  Uiso   1.00
H394   H     0.67899   0.83812   0.74236   0.00000  Uiso   1.00
H395   H     0.80063   0.63419   0.72447   0.00000  Uiso   1.00
H396   H     0.81730   0.71733   0.90225   0.00000  Uiso   1.00
H397   H     0.56991   0.93891   0.71965   0.00000  Uiso   1.00
H398   H     0.82642   0.50889   0.68194   0.00000  Uiso   1.00
H399   H     0.54403   0.59634   0.79308   0.00000  Uiso   1.00
H400   H     0.57596   0.59056   0.85751   0.00000  Uiso   1.00
H401   H     0.45864   0.69565   0.77092   0.00000  Uiso   1.00
H402   H     0.58028   0.49173   0.75303   0.00000  Uiso   1.00
H403   H     0.63845   0.60170   0.92543   0.00000  Uiso   1.00
H404   H     0.39107   0.82328   0.74283   0.00000  Uiso   1.00
H405   H     0.64758   0.39326   0.70512   0.00000  Uiso   1.00
O406   O     0.75264   0.65817   0.95574   0.00000  Uiso   1.00
O407   O     0.42808   0.94886   0.71617   0.00000  Uiso   1.00
O408   O     0.76462   0.38469   0.66669   0.00000  Uiso   1.00
N409   N     0.77083   0.69090   0.89886   0.00000  Uiso   1.00
N410   N     0.53954   0.89806   0.72815   0.00000  Uiso   1.00
N411   N     0.77935   0.49605   0.69288   0.00000  Uiso   1.00
N412   N     0.67460   0.62868   0.91134   0.00000  Uiso   1.00
N413   N     0.44330   0.83584   0.74063   0.00000  Uiso   1.00
N414   N     0.68311   0.43383   0.70536   0.00000  Uiso   1.00
C415   C     0.20507   0.20045   0.27221   0.00000  Uiso   1.00
C416   C     0.19968   0.18261   0.31016   0.00000  Uiso   1.00
C417   C     0.24875   0.20227   0.33513   0.00000  Uiso   1.00
C418   C     0.23416   0.18076   0.36838   0.00000  Uiso   1.00
C419   C     0.23513   0.15912   0.42610   0.00000  Uiso   1.00
C420   C     0.13593   0.23971   0.26312   0.00000  Uiso   1.00
C421   C     0.13141   0.30738   0.24852   0.00000  Uiso   1.00
C422   C     0.06315   0.33393   0.24217   0.00000  Uiso   1.00
C423   C     0.96515   0.40092   0.22683   0.00000  Uiso   1.00
C424   C     0.20203   0.12891   0.25340   0.00000  Uiso   1.00
C425   C     0.25307   0.10342   0.23063   0.00000  Uiso   1.00
C426   C     0.24045   0.03669   0.21609   0.00000  Uiso   1.00
C427   C     0.24508   0.93166   0.18567   0.00000  Uiso   1.00
C428   C     0.09189   0.12728   0.28688   0.00000  Uiso   1.00
C429   C     0.13821   0.14286   0.31813   0.00000  Uiso   1.00
C430   C     0.12354   0.12131   0.35135   0.00000  Uiso   1.00
C431   C     0.17258   0.14094   0.37636   0.00000  Uiso   1.00
C432   C     0.07446   0.19997   0.27109   0.00000  Uiso   1.00
C433   C     0.00619   0.22642   0.26475   0.00000  Uiso   1.00
C434   C     0.00157   0.29411   0.25015   0.00000  Uiso   1.00
C435   C     0.14056   0.08916   0.26137   0.00000  Uiso   1.00
C436   C     0.12786   0.02247   0.24686   0.00000  Uiso   1.00
C437   C     0.17887   0.99688   0.22407   0.00000  Uiso   1.00
H438   H     0.25292   0.23140   0.26601   0.00000  Uiso   1.00
H439   H     0.29631   0.23303   0.32895   0.00000  Uiso   1.00
H440   H     0.17899   0.33812   0.24236   0.00000  Uiso   1.00
H441   H     0.30063   0.13419   0.22447   0.00000  Uiso   1.00
H442   H     0.31730   0.21733   0.40225   0.00000  Uiso   1.00
H443   H     0.06991   0.43891   0.21965   0.00000  Uiso   1.00
H444   H     0.32642   0.00889   0.18194   0.00000  Uiso   1.00
H445   H     0.04403   0.09634   0.29308   0.00000  Uiso   1.00
H446   H     0.07596   0.09056   0.35751   0.00000  Uiso   1.00
H447   H     0.95864   0.19565   0.27092   0.00000  Uiso   1.00
H448   H     0.08028   0.99173   0.25303   0.00000  Uiso   1.00
H449   H     0.13845   0.10170   0.42543   0.00000  Uiso   1.00
H450   H     0.89107   0.32328   0.24283   0.00000  Uiso   1.00
H451   H     0.14758   0.89326   0.20512   0.00000  Uiso   1.00
O452   O     0.25264   0.15817   0.45574   0.00000  Uiso   1.00
O453   O     0.92808   0.44886   0.21617   0.00000  Uiso   1.00
O454   O     0.26462   0.88469   0.16669   0.00000  Uiso   1.00
N455   N     0.27083   0.19090   0.39886   0.00000  Uiso   1.00
N456   N     0.03954   0.39806   0.22815   0.00000  Uiso   1.00
N457   N     0.27935   0.99605   0.19288   0.00000  Uiso   1.00
N458   N     0.17460   0.12868   0.41134   0.00000  Uiso   1.00
N459   N     0.94330   0.33584   0.24063   0.00000  Uiso   1.00
N460   N     0.18311   0.93383   0.20536   0.00000  Uiso   1.00
C461   C     0.79493   0.79955   0.27221   0.00000  Uiso   1.00
C462   C     0.80032   0.81739   0.31016   0.00000  Uiso   1.00
C463   C     0.75125   0.79773   0.33513   0.00000  Uiso   1.00
C464   C     0.76584   0.81924   0.36838   0.00000  Uiso   1.00
C465   C     0.76487   0.84088   0.42610   0.00000  Uiso   1.00
C466   C     0.86407   0.76029   0.26312   0.00000  Uiso   1.00
C467   C     0.86859   0.69262   0.24852   0.00000  Uiso   1.00
C468   C     0.93685   0.66607   0.24217   0.00000  Uiso   1.00
C469   C     0.03485   0.59908   0.22683   0.00000  Uiso   1.00
C470   C     0.79797   0.87109   0.25340   0.00000  Uiso   1.00
C471   C     0.74693   0.89658   0.23063   0.00000  Uiso   1.00
C472   C     0.75955   0.96331   0.21609   0.00000  Uiso   1.00
C473   C     0.75492   0.06834   0.18567   0.00000  Uiso   1.00
C474   C     0.90811   0.87272   0.28688   0.00000  Uiso   1.00
C475   C     0.86179   0.85714   0.31813   0.00000  Uiso   1.00
C476   C     0.87646   0.87869   0.35135   0.00000  Uiso   1.00
C477   C     0.82742   0.85906   0.37636   0.00000  Uiso   1.00
C478   C     0.92554   0.80003   0.27109   0.00000  Uiso   1.00
C479   C     0.99381   0.77358   0.26475   0.00000  Uiso   1.00
C480   C     0.99843   0.70589   0.25015   0.00000  Uiso   1.00
C481   C     0.85944   0.91084   0.26137   0.00000  Uiso   1.00
C482   C     0.87214   0.97753   0.24686   0.00000  Uiso   1.00
C483   C     0.82113   0.00312   0.22407   0.00000  Uiso   1.00
H484   H     0.74708   0.76860   0.26601   0.00000  Uiso   1.00
H485   H     0.70369   0.76697   0.32895   0.00000  Uiso   1.00
H486   H     0.82101   0.66188   0.24236   0.00000  Uiso   1.00
H487   H     0.69937   0.86581   0.22447   0.00000  Uiso   1.00
H488   H     0.68270   0.78267   0.40225   0.00000  Uiso   1.00
H489   H     0.93009   0.56109   0.21965   0.00000  Uiso   1.00
H490   H     0.67358   0.99111   0.18194   0.00000  Uiso   1.00
H491   H     0.95597   0.90366   0.29308   0.00000  Uiso   1.00
H492   H     0.92404   0.90944   0.35751   0.00000  Uiso   1.00
H493   H     0.04136   0.80435   0.27092   0.00000  Uiso   1.00
H494   H     0.91972   0.00827   0.25303   0.00000  Uiso   1.00
H495   H     0.86155   0.89830   0.42543   0.00000  Uiso   1.00
H496   H     0.10893   0.67672   0.24283   0.00000  Uiso   1.00
H497   H     0.85242   0.10674   0.20512   0.00000  Uiso   1.00
O498   O     0.74736   0.84183   0.45574   0.00000  Uiso   1.00
O499   O     0.07192   0.55114   0.21617   0.00000  Uiso   1.00
O500   O     0.73538   0.11531   0.16669   0.00000  Uiso   1.00
N501   N     0.72917   0.80910   0.39886   0.00000  Uiso   1.00
N502   N     0.96046   0.60194   0.22815   0.00000  Uiso   1.00
N503   N     0.72065   0.00395   0.19288   0.00000  Uiso   1.00
N504   N     0.82540   0.87132   0.41134   0.00000  Uiso   1.00
N505   N     0.05670   0.66416   0.24063   0.00000  Uiso   1.00
N506   N     0.81689   0.06617   0.20536   0.00000  Uiso   1.00
C507   C     0.29493   0.29955   0.77221   0.00000  Uiso   1.00
C508   C     0.30032   0.31739   0.81016   0.00000  Uiso   1.00
C509   C     0.25125   0.29773   0.83513   0.00000  Uiso   1.00
C510   C     0.26584   0.31924   0.86838   0.00000  Uiso   1.00
C511   C     0.26487   0.34088   0.92610   0.00000  Uiso   1.00
C512   C     0.36407   0.26029   0.76312   0.00000  Uiso   1.00
C513   C     0.36859   0.19262   0.74852   0.00000  Uiso   1.00
C514   C     0.43685   0.16607   0.74217   0.00000  Uiso   1.00
C515   C     0.53485   0.09908   0.72683   0.00000  Uiso   1.00
C516   C     0.29797   0.37109   0.75340   0.00000  Uiso   1.00
C517   C     0.24693   0.39658   0.73063   0.00000  Uiso   1.00
C518   C     0.25955   0.46331   0.71609   0.00000  Uiso   1.00
C519   C     0.25492   0.56834   0.68567   0.00000  Uiso   1.00
C520   C     0.40811   0.37272   0.78688   0.00000  Uiso   1.00
C521   C     0.36179   0.35714   0.81813   0.00000  Uiso   1.00
C522   C     0.37646   0.37869   0.85135   0.00000  Uiso   1.00
C523   C     0.32742   0.35906   0.87636   0.00000  Uiso   1.00
C524   C     0.42554   0.30003   0.77109   0.00000  Uiso   1.00
C525   C     0.49381   0.27358   0.76475   0.00000  Uiso   1.00
C526   C     0.49843   0.20589   0.75015   0.00000  Uiso   1.00
C527   C     0.35944   0.41084   0.76137   0.00000  Uiso   1.00
C528   C     0.37214   0.47753   0.74686   0.00000  Uiso   1.00
C529   C     0.32113   0.50312   0.72407   0.00000  Uiso   1.00
H530   H     0.24708   0.26860   0.76601   0.00000  Uiso   1.00
H531   H     0.20369   0.26697   0.82895   0.00000  Uiso   1.00
H532   H     0.32101   0.16188   0.74236   0.00000  Uiso   1.00
H533   H     0.19937   0.36581   0.72447   0.00000  Uiso   1.00
H534   H     0.18270   0.28267   0.90225   0.00000  Uiso   1.00
H535   H     0.43009   0.06109   0.71965   0.00000  Uiso   1.00
H536   H     0.17358   0.49111   0.68194   0.00000  Uiso   1.00
H537   H     0.45597   0.40366   0.79308   0.00000  Uiso   1.00
H538   H     0.42404   0.40944   0.85751   0.00000  Uiso   1.00
H539   H     0.54136   0.30435   0.77092   0.00000  Uiso   1.00
H540   H     0.41972   0.50827   0.75303   0.00000  Uiso   1.00
H541   H     0.36155   0.39830   0.92543   0.00000  Uiso   1.00
H542   H     0.60893   0.17672   0.74283   0.00000  Uiso   1.00
H543   H     0.35242   0.60674   0.70512   0.00000  Uiso   1.00
O544   O     0.24736   0.34183   0.95574   0.00000  Uiso   1.00
O545   O     0.57192   0.05114   0.71617   0.00000  Uiso   1.00
O546   O     0.23538   0.61531   0.66669   0.00000  Uiso   1.00
N547   N     0.22917   0.30910   0.89886   0.00000  Uiso   1.00
N548   N     0.46046   0.10194   0.72815   0.00000  Uiso   1.00
N549   N     0.22065   0.50395   0.69288   0.00000  Uiso   1.00
N550   N     0.32540   0.37132   0.91134   0.00000  Uiso   1.00
N551   N     0.55670   0.16416   0.74063   0.00000  Uiso   1.00
N552   N     0.31689   0.56617   0.70536   0.00000  Uiso   1.00
C553   C     0.70045   0.79493   0.02221   0.00000  Uiso   1.00
C554   C     0.68261   0.80032   0.06016   0.00000  Uiso   1.00
C555   C     0.70227   0.75125   0.08513   0.00000  Uiso   1.00
C556   C     0.68076   0.76584   0.11838   0.00000  Uiso   1.00
C557   C     0.65912   0.76487   0.17610   0.00000  Uiso   1.00
C558   C     0.73971   0.86407   0.01312   0.00000  Uiso   1.00
C559   C     0.80738   0.86859   0.99852   0.00000  Uiso   1.00
C560   C     0.83393   0.93685   0.99217   0.00000  Uiso   1.00
C561   C     0.90092   0.03485   0.97683   0.00000  Uiso   1.00
C562   C     0.62891   0.79797   0.00340   0.00000  Uiso   1.00
C563   C     0.60342   0.74693   0.98063   0.00000  Uiso   1.00
C564   C     0.53669   0.75955   0.96609   0.00000  Uiso   1.00
C565   C     0.43166   0.75492   0.93567   0.00000  Uiso   1.00
C566   C     0.62728   0.90811   0.03688   0.00000  Uiso   1.00
C567   C     0.64286   0.86179   0.06813   0.00000  Uiso   1.00
C568   C     0.62131   0.87646   0.10135   0.00000  Uiso   1.00
C569   C     0.64094   0.82742   0.12636   0.00000  Uiso   1.00
C570   C     0.69997   0.92554   0.02109   0.00000  Uiso   1.00
C571   C     0.72642   0.99381   0.01475   0.00000  Uiso   1.00
C572   C     0.79411   0.99843   0.00015   0.00000  Uiso   1.00
C573   C     0.58916   0.85944   0.01137   0.00000  Uiso   1.00
C574   C     0.52247   0.87214   0.99686   0.00000  Uiso   1.00
C575   C     0.49688   0.82113   0.97407   0.00000  Uiso   1.00
H576   H     0.73140   0.74708   0.01601   0.00000  Uiso   1.00
H577   H     0.73303   0.70369   0.07895   0.00000  Uiso   1.00
H578   H     0.83812   0.82101   0.99236   0.00000  Uiso   1.00
H579   H     0.63419   0.69937   0.97447   0.00000  Uiso   1.00
H580   H     0.71733   0.68270   0.15225   0.00000  Uiso   1.00
H581   H     0.93891   0.93009   0.96965   0.00000  Uiso   1.00
H582   H     0.50889   0.67358   0.93194   0.00000  Uiso   1.00
H583   H     0.59634   0.95597   0.04308   0.00000  Uiso   1.00
H584   H     0.59056   0.92404   0.10751   0.00000  Uiso   1.00
H585   H     0.69565   0.04136   0.02092   0.00000  Uiso   1.00
H586   H     0.49173   0.91972   0.00303   0.00000  Uiso   1.00
H587   H     0.60170   0.86155   0.17543   0.00000  Uiso   1.00
H588   H     0.82328   0.10893   0.99283   0.00000  Uiso   1.00
H589   H     0.39326   0.85242   0.95512   0.00000  Uiso   1.00
O590   O     0.65817   0.74736   0.20574   0.00000  Uiso   1.00
O591   O     0.94886   0.07192   0.96617   0.00000  Uiso   1.00
O592   O     0.38469   0.73538   0.91669   0.00000  Uiso   1.00
N593   N     0.69090   0.72917   0.14886   0.00000  Uiso   1.00
N594   N     0.89806   0.96046   0.97815   0.00000  Uiso   1.00
N595   N     0.49605   0.72065   0.94288   0.00000  Uiso   1.00
N596   N     0.62868   0.82540   0.16134   0.00000  Uiso   1.00
N597   N     0.83584   0.05670   0.99063   0.00000  Uiso   1.00
N598   N     0.43383   0.81689   0.95536   0.00000  Uiso   1.00
C599   C     0.20045   0.29493   0.52221   0.00000  Uiso   1.00
C600   C     0.18261   0.30032   0.56016   0.00000  Uiso   1.00
C601   C     0.20227   0.25125   0.58513   0.00000  Uiso   1.00
C602   C     0.18076   0.26584   0.61838   0.00000  Uiso   1.00
C603   C     0.15912   0.26487   0.67610   0.00000  Uiso   1.00
C604   C     0.23971   0.36407   0.51312   0.00000  Uiso   1.00
C605   C     0.30738   0.36859   0.49852   0.00000  Uiso   1.00
C606   C     0.33393   0.43685   0.49217   0.00000  Uiso   1.00
C607   C     0.40092   0.53485   0.47683   0.00000  Uiso   1.00
C608   C     0.12891   0.29797   0.50340   0.00000  Uiso   1.00
C609   C     0.10342   0.24693   0.48063   0.00000  Uiso   1.00
C610   C     0.03669   0.25955   0.46609   0.00000  Uiso   1.00
C611   C     0.93166   0.25492   0.43567   0.00000  Uiso   1.00
C612   C     0.12728   0.40811   0.53688   0.00000  Uiso   1.00
C613   C     0.14286   0.36179   0.56813   0.00000  Uiso   1.00
C614   C     0.12131   0.37646   0.60135   0.00000  Uiso   1.00
C615   C     0.14094   0.32742   0.62636   0.00000  Uiso   1.00
C616   C     0.19997   0.42554   0.52109   0.00000  Uiso   1.00
C617   C     0.22642   0.49381   0.51475   0.00000  Uiso   1.00
C618   C     0.29411   0.49843   0.50015   0.00000  Uiso   1.00
C619   C     0.08916   0.35944   0.51137   0.00000  Uiso   1.00
C620   C     0.02247   0.37214   0.49686   0.00000  Uiso   1.00
C621   C     0.99688   0.32113   0.47407   0.00000  Uiso   1.00
H622   H     0.23140   0.24708   0.51601   0.00000  Uiso   1.00
H623   H     0.23303   0.20369   0.57895   0.00000  Uiso   1.00
H624   H     0.33812   0.32101   0.49236   0.00000  Uiso   1.00
H625   H     0.13419   0.19937   0.47447   0.00000  Uiso   1.00
H626   H     0.21733   0.18270   0.65225   0.00000  Uiso   1.00
H627   H     0.43891   0.43009   0.46965   0.00000  Uiso   1.00
H628   H     0.00889   0.17358   0.43194   0.00000  Uiso   1.00
H629   H     0.09634   0.45597   0.54308   0.00000  Uiso   1.00
H630   H     0.09056   0.42404   0.60751   0.00000  Uiso   1.00
H631   H     0.19565   0.54136   0.52092   0.00000  Uiso   1.00
H632   H     0.99173   0.41972   0.50303   0.00000  Uiso   1.00
H633   H     0.10170   0.36155   0.67543   0.00000  Uiso   1.00
H634   H     0.32328   0.60893   0.49283   0.00000  Uiso   1.00
H635   H     0.89326   0.35242   0.45512   0.00000  Uiso   1.00
O636   O     0.15817   0.24736   0.70574   0.00000  Uiso   1.00
O637   O     0.44886   0.57192   0.46617   0.00000  Uiso   1.00
O638   O     0.88469   0.23538   0.41669   0.00000  Uiso   1.00
N639   N     0.19090   0.22917   0.64886   0.00000  Uiso   1.00
N640   N     0.39806   0.46046   0.47815   0.00000  Uiso   1.00
N641   N     0.99605   0.22065   0.44288   0.00000  Uiso   1.00
N642   N     0.12868   0.32540   0.66134   0.00000  Uiso   1.00
N643   N     0.33584   0.55670   0.49063   0.00000  Uiso   1.00
N644   N     0.93383   0.31689   0.45536   0.00000  Uiso   1.00
C645   C     0.79955   0.70507   0.52221   0.00000  Uiso   1.00
C646   C     0.81739   0.69968   0.56016   0.00000  Uiso   1.00
C647   C     0.79773   0.74875   0.58513   0.00000  Uiso   1.00
C648   C     0.81924   0.73416   0.61838   0.00000  Uiso   1.00
C649   C     0.84088   0.73513   0.67610   0.00000  Uiso   1.00
C650   C     0.76029   0.63593   0.51312   0.00000  Uiso   1.00
C651   C     0.69262   0.63141   0.49852   0.00000  Uiso   1.00
C652   C     0.66607   0.56315   0.49217   0.00000  Uiso   1.00
C653   C     0.59908   0.46515   0.47683   0.00000  Uiso   1.00
C654   C     0.87109   0.70203   0.50340   0.00000  Uiso   1.00
C655   C     0.89658   0.75307   0.48063   0.00000  Uiso   1.00
C656   C     0.96331   0.74045   0.46609   0.00000  Uiso   1.00
C657   C     0.06834   0.74508   0.43567   0.00000  Uiso   1.00
C658   C     0.87272   0.59189   0.53688   0.00000  Uiso   1.00
C659   C     0.85714   0.63821   0.56813   0.00000  Uiso   1.00
C660   C     0.87869   0.62354   0.60135   0.00000  Uiso   1.00
C661   C     0.85906   0.67258   0.62636   0.00000  Uiso   1.00
C662   C     0.80003   0.57446   0.52109   0.00000  Uiso   1.00
C663   C     0.77358   0.50619   0.51475   0.00000  Uiso   1.00
C664   C     0.70589   0.50157   0.50015   0.00000  Uiso   1.00
C665   C     0.91084   0.64056   0.51137   0.00000  Uiso   1.00
C666   C     0.97753   0.62786   0.49686   0.00000  Uiso   1.00
C667   C     0.00312   0.67887   0.47407   0.00000  Uiso   1.00
H668   H     0.76860   0.75292   0.51601   0.00000  Uiso   1.00
H669   H     0.76697   0.79631   0.57895   0.00000  Uiso   1.00
H670   H     0.66188   0.67899   0.49236   0.00000  Uiso   1.00
H671   H     0.86581   0.80063   0.47447   0.00000  Uiso   1.00
H672   H     0.78267   0.81730   0.65225   0.00000  Uiso   1.00
H673   H     0.56109   0.56991   0.46965   0.00000  Uiso   1.00
H674   H     0.99111   0.82642   0.43194   0.00000  Uiso   1.00
H675   H     0.90366   0.54403   0.54308   0.00000  Uiso   1.00
H676   H     0.90944   0.57596   0.60751   0.00000  Uiso   1.00
H677   H     0.80435   0.45864   0.52092   0.00000  Uiso   1.00
H678   H     0.00827   0.58028   0.50303   0.00000  Uiso   1.00
H679   H     0.89830   0.63845   0.67543   0.00000  Uiso   1.00
H680   H     0.67672   0.39107   0.49283   0.00000  Uiso   1.00
H681   H     0.10674   0.64758   0.45512   0.00000  Uiso   1.00
O682   O     0.84183   0.75264   0.70574   0.00000  Uiso   1.00
O683   O     0.55114   0.42808   0.46617   0.00000  Uiso   1.00
O684   O     0.11531   0.76462   0.41669   0.00000  Uiso   1.00
N685   N     0.80910   0.77083   0.64886   0.00000  Uiso   1.00
N686   N     0.60194   0.53954   0.47815   0.00000  Uiso   1.00
N687   N     0.00395   0.77935   0.44288   0.00000  Uiso   1.00
N688   N     0.87132   0.67460   0.66134   0.00000  Uiso   1.00
N689   N     0.66416   0.44330   0.49063   0.00000  Uiso   1.00
N690   N     0.06617   0.68311   0.45536   0.00000  Uiso   1.00
C691   C     0.29955   0.20507   0.02221   0.00000  Uiso   1.00
C692   C     0.31739   0.19968   0.06016   0.00000  Uiso   1.00
C693   C     0.29773   0.24875   0.08513   0.00000  Uiso   1.00
C694   C     0.31924   0.23416   0.11838   0.00000  Uiso   1.00
C695   C     0.34088   0.23513   0.17610   0.00000  Uiso   1.00
C696   C     0.26029   0.13593   0.01312   0.00000  Uiso   1.00
C697   C     0.19262   0.13141   0.99852   0.00000  Uiso   1.00
C698   C     0.16607   0.06315   0.99217   0.00000  Uiso   1.00
C699   C     0.09908   0.96515   0.97683   0.00000  Uiso   1.00
C700   C     0.37109   0.20203   0.00340   0.00000  Uiso   1.00
C701   C     0.39658   0.25307   0.98063   0.00000  Uiso   1.00
C702   C     0.46331   0.24045   0.96609   0.00000  Uiso   1.00
C703   C     0.56834   0.24508   0.93567   0.00000  Uiso   1.00
C704   C     0.37272   0.09189   0.03688   0.00000  Uiso   1.00
C705   C     0.35714   0.13821   0.06813   0.00000  Uiso   1.00
C706   C     0.37869   0.12354   0.10135   0.00000  Uiso   1.00
C707   C     0.35906   0.17258   0.12636   0.00000  Uiso   1.00
C708   C     0.30003   0.07446   0.02109   0.00000  Uiso   1.00
C709   C     0.27358   0.00619   0.01475   0.00000  Uiso   1.00
C710   C     0.20589   0.00157   0.00015   0.00000  Uiso   1.00
C711   C     0.41084   0.14056   0.01137   0.00000  Uiso   1.00
C712   C     0.47753   0.12786   0.99686   0.00000  Uiso   1.00
C713   C     0.50312   0.17887   0.97407   0.00000  Uiso   1.00
H714   H     0.26860   0.25292   0.01601   0.00000  Uiso   1.00
H715   H     0.26697   0.29631   0.07895   0.00000  Uiso   1.00
H716   H     0.16188   0.17899   0.99236   0.00000  Uiso   1.00
H717   H     0.36581   0.30063   0.97447   0.00000  Uiso   1.00
H718   H     0.28267   0.31730   0.15225   0.00000  Uiso   1.00
H719   H     0.06109   0.06991   0.96965   0.00000  Uiso   1.00
H720   H     0.49111   0.32642   0.93194   0.00000  Uiso   1.00
H721   H     0.40366   0.04403   0.04308   0.00000  Uiso   1.00
H722   H     0.40944   0.07596   0.10751   0.00000  Uiso   1.00
H723   H     0.30435   0.95864   0.02092   0.00000  Uiso   1.00
H724   H     0.50827   0.08028   0.00303   0.00000  Uiso   1.00
H725   H     0.39830   0.13845   0.17543   0.00000  Uiso   1.00
H726   H     0.17672   0.89107   0.99283   0.00000  Uiso   1.00
H727   H     0.60674   0.14758   0.95512   0.00000  Uiso   1.00
O728   O     0.34183   0.25264   0.20574   0.00000  Uiso   1.00
O729   O     0.05114   0.92808   0.96617   0.00000  Uiso   1.00
O730   O     0.61531   0.26462   0.91669   0.00000  Uiso   1.00
N731   N     0.30910   0.27083   0.14886   0.00000  Uiso   1.00
N732   N     0.10194   0.03954   0.97815   0.00000  Uiso   1.00
N733   N     0.50395   0.27935   0.94288   0.00000  Uiso   1.00
N734   N     0.37132   0.17460   0.16134   0.00000  Uiso   1.00
N735   N     0.16416   0.94330   0.99063   0.00000  Uiso   1.00
N736   N     0.56617   0.18311   0.95536   0.00000  Uiso   1.00
