data_job_03781
_audit_creation_date              2018-12-19
_audit_creation_method            'Materials Studio'
_symmetry_space_group_name_H-M    'P1'
_symmetry_Int_Tables_number       1
_symmetry_cell_setting            triclinic
loop_
_symmetry_equiv_pos_as_xyz
  x,y,z
_cell_length_a                    17.5835
_cell_length_b                    17.5835
_cell_length_c                    34.5245
_cell_angle_alpha                 90.0000
_cell_angle_beta                  90.0000
_cell_angle_gamma                 90.0000
loop_
_atom_site_label
_atom_site_type_symbol
_atom_site_fract_x
_atom_site_fract_y
_atom_site_fract_z
_atom_site_U_iso_or_equiv
_atom_site_adp_type
_atom_site_occupancy
C1     C     0.90946   0.87506   0.41520   0.00000  Uiso   1.00
C2     C     0.90229   0.91861   0.37717   0.00000  Uiso   1.00
C3     C     0.86721   0.98870   0.37244   0.00000  Uiso   1.00
C4     C     0.86660   0.01908   0.33532   0.00000  Uiso   1.00
C5     C     0.85036   0.09251   0.28103   0.00000  Uiso   1.00
C6     C     0.87385   0.79726   0.40800   0.00000  Uiso   1.00
C7     C     0.81487   0.76532   0.42919   0.00000  Uiso   1.00
C8     C     0.79033   0.69354   0.41802   0.00000  Uiso   1.00
C9     C     0.72997   0.57856   0.41161   0.00000  Uiso   1.00
C10    C     0.99425   0.86088   0.42101   0.00000  Uiso   1.00
C11    C     0.03651   0.88240   0.45314   0.00000  Uiso   1.00
C12    C     0.11334   0.86417   0.45293   0.00000  Uiso   1.00
C13    C     0.23993   0.84796   0.46671   0.00000  Uiso   1.00
C14    C     0.97076   0.80438   0.35769   0.00000  Uiso   1.00
C15    C     0.93558   0.88021   0.34594   0.00000  Uiso   1.00
C16    C     0.93502   0.91050   0.30882   0.00000  Uiso   1.00
C17    C     0.89995   0.98062   0.30403   0.00000  Uiso   1.00
C18    C     0.90714   0.75887   0.37677   0.00000  Uiso   1.00
C19    C     0.88268   0.68712   0.36557   0.00000  Uiso   1.00
C20    C     0.82368   0.65508   0.38673   0.00000  Uiso   1.00
C21    C     0.02754   0.82248   0.38977   0.00000  Uiso   1.00
C22    C     0.10432   0.80420   0.38952   0.00000  Uiso   1.00
C23    C     0.14669   0.82570   0.42164   0.00000  Uiso   1.00
H24    H     0.88354   0.90495   0.43951   0.00000  Uiso   1.00
H25    H     0.84144   0.01839   0.39662   0.00000  Uiso   1.00
H26    H     0.78912   0.79504   0.45336   0.00000  Uiso   1.00
H27    H     0.01073   0.91211   0.47730   0.00000  Uiso   1.00
H28    H     0.80943   0.12721   0.33529   0.00000  Uiso   1.00
H29    H     0.69912   0.65627   0.45494   0.00000  Uiso   1.00
H30    H     0.16642   0.90313   0.50543   0.00000  Uiso   1.00
H31    H     0.99667   0.77449   0.33337   0.00000  Uiso   1.00
H32    H     0.96079   0.88077   0.28465   0.00000  Uiso   1.00
H33    H     0.90846   0.65742   0.34140   0.00000  Uiso   1.00
H34    H     0.13007   0.77449   0.36534   0.00000  Uiso   1.00
H35    H     0.90629   0.01552   0.24441   0.00000  Uiso   1.00
H36    H     0.79598   0.54457   0.36406   0.00000  Uiso   1.00
H37    H     0.26328   0.79143   0.41456   0.00000  Uiso   1.00
O38    O     0.83219   0.14362   0.25971   0.00000  Uiso   1.00
O39    O     0.68747   0.52576   0.41670   0.00000  Uiso   1.00
O40    O     0.30056   0.84963   0.48294   0.00000  Uiso   1.00
N41    N     0.83717   0.08635   0.32059   0.00000  Uiso   1.00
N42    N     0.73402   0.64604   0.43245   0.00000  Uiso   1.00
N43    N     0.17090   0.87682   0.47966   0.00000  Uiso   1.00
N44    N     0.88929   0.02624   0.27169   0.00000  Uiso   1.00
N45    N     0.78614   0.58594   0.38355   0.00000  Uiso   1.00
N46    N     0.22302   0.81672   0.43076   0.00000  Uiso   1.00
C47    C     0.40946   0.37506   0.91520   0.00000  Uiso   1.00
C48    C     0.40229   0.41861   0.87717   0.00000  Uiso   1.00
C49    C     0.36721   0.48870   0.87244   0.00000  Uiso   1.00
C50    C     0.36660   0.51908   0.83532   0.00000  Uiso   1.00
C51    C     0.35036   0.59251   0.78103   0.00000  Uiso   1.00
C52    C     0.37385   0.29726   0.90800   0.00000  Uiso   1.00
C53    C     0.31487   0.26532   0.92919   0.00000  Uiso   1.00
C54    C     0.29033   0.19354   0.91802   0.00000  Uiso   1.00
C55    C     0.22997   0.07856   0.91161   0.00000  Uiso   1.00
C56    C     0.49425   0.36088   0.92101   0.00000  Uiso   1.00
C57    C     0.53651   0.38240   0.95314   0.00000  Uiso   1.00
C58    C     0.61334   0.36417   0.95293   0.00000  Uiso   1.00
C59    C     0.73993   0.34796   0.96671   0.00000  Uiso   1.00
C60    C     0.47076   0.30438   0.85769   0.00000  Uiso   1.00
C61    C     0.43558   0.38021   0.84594   0.00000  Uiso   1.00
C62    C     0.43502   0.41050   0.80882   0.00000  Uiso   1.00
C63    C     0.39995   0.48062   0.80403   0.00000  Uiso   1.00
C64    C     0.40714   0.25887   0.87677   0.00000  Uiso   1.00
C65    C     0.38268   0.18712   0.86557   0.00000  Uiso   1.00
C66    C     0.32368   0.15508   0.88673   0.00000  Uiso   1.00
C67    C     0.52754   0.32248   0.88977   0.00000  Uiso   1.00
C68    C     0.60432   0.30420   0.88952   0.00000  Uiso   1.00
C69    C     0.64669   0.32570   0.92164   0.00000  Uiso   1.00
H70    H     0.38354   0.40495   0.93951   0.00000  Uiso   1.00
H71    H     0.34144   0.51839   0.89662   0.00000  Uiso   1.00
H72    H     0.28912   0.29504   0.95336   0.00000  Uiso   1.00
H73    H     0.51073   0.41211   0.97730   0.00000  Uiso   1.00
H74    H     0.30943   0.62721   0.83529   0.00000  Uiso   1.00
H75    H     0.19912   0.15627   0.95494   0.00000  Uiso   1.00
H76    H     0.66642   0.40313   0.00543   0.00000  Uiso   1.00
H77    H     0.49667   0.27449   0.83337   0.00000  Uiso   1.00
H78    H     0.46079   0.38077   0.78465   0.00000  Uiso   1.00
H79    H     0.40846   0.15742   0.84140   0.00000  Uiso   1.00
H80    H     0.63007   0.27449   0.86534   0.00000  Uiso   1.00
H81    H     0.40629   0.51552   0.74441   0.00000  Uiso   1.00
H82    H     0.29598   0.04457   0.86406   0.00000  Uiso   1.00
H83    H     0.76328   0.29143   0.91456   0.00000  Uiso   1.00
O84    O     0.33219   0.64362   0.75971   0.00000  Uiso   1.00
O85    O     0.18747   0.02576   0.91670   0.00000  Uiso   1.00
O86    O     0.80056   0.34963   0.98294   0.00000  Uiso   1.00
N87    N     0.33717   0.58635   0.82059   0.00000  Uiso   1.00
N88    N     0.23402   0.14604   0.93245   0.00000  Uiso   1.00
N89    N     0.67090   0.37682   0.97966   0.00000  Uiso   1.00
N90    N     0.38929   0.52624   0.77169   0.00000  Uiso   1.00
N91    N     0.28614   0.08594   0.88355   0.00000  Uiso   1.00
N92    N     0.72302   0.31672   0.93076   0.00000  Uiso   1.00
C93    C     0.59054   0.62494   0.91520   0.00000  Uiso   1.00
C94    C     0.59771   0.58139   0.87717   0.00000  Uiso   1.00
C95    C     0.63279   0.51130   0.87244   0.00000  Uiso   1.00
C96    C     0.63340   0.48092   0.83532   0.00000  Uiso   1.00
C97    C     0.64964   0.40749   0.78103   0.00000  Uiso   1.00
C98    C     0.62615   0.70274   0.90800   0.00000  Uiso   1.00
C99    C     0.68513   0.73468   0.92919   0.00000  Uiso   1.00
C100   C     0.70967   0.80646   0.91802   0.00000  Uiso   1.00
C101   C     0.77003   0.92144   0.91161   0.00000  Uiso   1.00
C102   C     0.50575   0.63912   0.92101   0.00000  Uiso   1.00
C103   C     0.46349   0.61760   0.95314   0.00000  Uiso   1.00
C104   C     0.38666   0.63583   0.95293   0.00000  Uiso   1.00
C105   C     0.26007   0.65204   0.96671   0.00000  Uiso   1.00
C106   C     0.52924   0.69562   0.85769   0.00000  Uiso   1.00
C107   C     0.56442   0.61979   0.84594   0.00000  Uiso   1.00
C108   C     0.56498   0.58950   0.80882   0.00000  Uiso   1.00
C109   C     0.60005   0.51938   0.80403   0.00000  Uiso   1.00
C110   C     0.59286   0.74113   0.87677   0.00000  Uiso   1.00
C111   C     0.61732   0.81288   0.86557   0.00000  Uiso   1.00
C112   C     0.67632   0.84492   0.88673   0.00000  Uiso   1.00
C113   C     0.47246   0.67752   0.88977   0.00000  Uiso   1.00
C114   C     0.39568   0.69580   0.88952   0.00000  Uiso   1.00
C115   C     0.35331   0.67430   0.92164   0.00000  Uiso   1.00
H116   H     0.61646   0.59505   0.93951   0.00000  Uiso   1.00
H117   H     0.65856   0.48161   0.89662   0.00000  Uiso   1.00
H118   H     0.71088   0.70496   0.95336   0.00000  Uiso   1.00
H119   H     0.48927   0.58789   0.97730   0.00000  Uiso   1.00
H120   H     0.69057   0.37279   0.83529   0.00000  Uiso   1.00
H121   H     0.80088   0.84373   0.95494   0.00000  Uiso   1.00
H122   H     0.33358   0.59687   0.00543   0.00000  Uiso   1.00
H123   H     0.50333   0.72551   0.83337   0.00000  Uiso   1.00
H124   H     0.53921   0.61923   0.78465   0.00000  Uiso   1.00
H125   H     0.59154   0.84258   0.84140   0.00000  Uiso   1.00
H126   H     0.36993   0.72551   0.86534   0.00000  Uiso   1.00
H127   H     0.59371   0.48448   0.74441   0.00000  Uiso   1.00
H128   H     0.70402   0.95543   0.86406   0.00000  Uiso   1.00
H129   H     0.23672   0.70857   0.91456   0.00000  Uiso   1.00
O130   O     0.66781   0.35638   0.75971   0.00000  Uiso   1.00
O131   O     0.81253   0.97424   0.91670   0.00000  Uiso   1.00
O132   O     0.19944   0.65037   0.98294   0.00000  Uiso   1.00
N133   N     0.66283   0.41365   0.82059   0.00000  Uiso   1.00
N134   N     0.76598   0.85396   0.93245   0.00000  Uiso   1.00
N135   N     0.32910   0.62318   0.97966   0.00000  Uiso   1.00
N136   N     0.61071   0.47376   0.77169   0.00000  Uiso   1.00
N137   N     0.71386   0.91406   0.88355   0.00000  Uiso   1.00
N138   N     0.27698   0.68328   0.93076   0.00000  Uiso   1.00
C139   C     0.09054   0.12494   0.41520   0.00000  Uiso   1.00
C140   C     0.09771   0.08139   0.37717   0.00000  Uiso   1.00
C141   C     0.13279   0.01130   0.37244   0.00000  Uiso   1.00
C142   C     0.13340   0.98092   0.33532   0.00000  Uiso   1.00
C143   C     0.14964   0.90749   0.28103   0.00000  Uiso   1.00
C144   C     0.12615   0.20274   0.40800   0.00000  Uiso   1.00
C145   C     0.18513   0.23468   0.42919   0.00000  Uiso   1.00
C146   C     0.20967   0.30646   0.41802   0.00000  Uiso   1.00
C147   C     0.27003   0.42144   0.41161   0.00000  Uiso   1.00
C148   C     0.00575   0.13912   0.42101   0.00000  Uiso   1.00
C149   C     0.96349   0.11760   0.45314   0.00000  Uiso   1.00
C150   C     0.88666   0.13583   0.45293   0.00000  Uiso   1.00
C151   C     0.76007   0.15204   0.46671   0.00000  Uiso   1.00
C152   C     0.02924   0.19562   0.35769   0.00000  Uiso   1.00
C153   C     0.06442   0.11979   0.34594   0.00000  Uiso   1.00
C154   C     0.06498   0.08950   0.30882   0.00000  Uiso   1.00
C155   C     0.10005   0.01938   0.30403   0.00000  Uiso   1.00
C156   C     0.09286   0.24113   0.37677   0.00000  Uiso   1.00
C157   C     0.11732   0.31288   0.36557   0.00000  Uiso   1.00
C158   C     0.17632   0.34492   0.38673   0.00000  Uiso   1.00
C159   C     0.97246   0.17752   0.38977   0.00000  Uiso   1.00
C160   C     0.89568   0.19580   0.38952   0.00000  Uiso   1.00
C161   C     0.85331   0.17430   0.42164   0.00000  Uiso   1.00
H162   H     0.11646   0.09505   0.43951   0.00000  Uiso   1.00
H163   H     0.15856   0.98161   0.39662   0.00000  Uiso   1.00
H164   H     0.21088   0.20496   0.45336   0.00000  Uiso   1.00
H165   H     0.98927   0.08789   0.47730   0.00000  Uiso   1.00
H166   H     0.19057   0.87279   0.33529   0.00000  Uiso   1.00
H167   H     0.30088   0.34373   0.45494   0.00000  Uiso   1.00
H168   H     0.83358   0.09687   0.50543   0.00000  Uiso   1.00
H169   H     0.00333   0.22551   0.33337   0.00000  Uiso   1.00
H170   H     0.03921   0.11923   0.28465   0.00000  Uiso   1.00
H171   H     0.09154   0.34258   0.34140   0.00000  Uiso   1.00
H172   H     0.86993   0.22551   0.36534   0.00000  Uiso   1.00
H173   H     0.09371   0.98448   0.24441   0.00000  Uiso   1.00
H174   H     0.20402   0.45543   0.36406   0.00000  Uiso   1.00
H175   H     0.73672   0.20857   0.41456   0.00000  Uiso   1.00
O176   O     0.16781   0.85638   0.25971   0.00000  Uiso   1.00
O177   O     0.31253   0.47424   0.41670   0.00000  Uiso   1.00
O178   O     0.69944   0.15037   0.48294   0.00000  Uiso   1.00
N179   N     0.16283   0.91365   0.32059   0.00000  Uiso   1.00
N180   N     0.26598   0.35396   0.43245   0.00000  Uiso   1.00
N181   N     0.82910   0.12318   0.47966   0.00000  Uiso   1.00
N182   N     0.11071   0.97376   0.27169   0.00000  Uiso   1.00
N183   N     0.21386   0.41406   0.38355   0.00000  Uiso   1.00
N184   N     0.77698   0.18328   0.43076   0.00000  Uiso   1.00
C185   C     0.12494   0.40946   0.66520   0.00000  Uiso   1.00
C186   C     0.08139   0.40229   0.62717   0.00000  Uiso   1.00
C187   C     0.01130   0.36721   0.62244   0.00000  Uiso   1.00
C188   C     0.98092   0.36660   0.58532   0.00000  Uiso   1.00
C189   C     0.90749   0.35036   0.53103   0.00000  Uiso   1.00
C190   C     0.20274   0.37385   0.65800   0.00000  Uiso   1.00
C191   C     0.23468   0.31487   0.67919   0.00000  Uiso   1.00
C192   C     0.30646   0.29033   0.66802   0.00000  Uiso   1.00
C193   C     0.42144   0.22997   0.66161   0.00000  Uiso   1.00
C194   C     0.13912   0.49425   0.67101   0.00000  Uiso   1.00
C195   C     0.11760   0.53651   0.70314   0.00000  Uiso   1.00
C196   C     0.13583   0.61334   0.70293   0.00000  Uiso   1.00
C197   C     0.15204   0.73993   0.71671   0.00000  Uiso   1.00
C198   C     0.19562   0.47076   0.60769   0.00000  Uiso   1.00
C199   C     0.11979   0.43558   0.59594   0.00000  Uiso   1.00
C200   C     0.08950   0.43502   0.55882   0.00000  Uiso   1.00
C201   C     0.01938   0.39995   0.55403   0.00000  Uiso   1.00
C202   C     0.24113   0.40714   0.62677   0.00000  Uiso   1.00
C203   C     0.31288   0.38268   0.61557   0.00000  Uiso   1.00
C204   C     0.34492   0.32368   0.63673   0.00000  Uiso   1.00
C205   C     0.17752   0.52754   0.63977   0.00000  Uiso   1.00
C206   C     0.19580   0.60432   0.63952   0.00000  Uiso   1.00
C207   C     0.17430   0.64669   0.67164   0.00000  Uiso   1.00
H208   H     0.09505   0.38354   0.68951   0.00000  Uiso   1.00
H209   H     0.98161   0.34144   0.64662   0.00000  Uiso   1.00
H210   H     0.20496   0.28912   0.70336   0.00000  Uiso   1.00
H211   H     0.08789   0.51073   0.72730   0.00000  Uiso   1.00
H212   H     0.87279   0.30943   0.58529   0.00000  Uiso   1.00
H213   H     0.34373   0.19912   0.70494   0.00000  Uiso   1.00
H214   H     0.09687   0.66642   0.75543   0.00000  Uiso   1.00
H215   H     0.22551   0.49667   0.58337   0.00000  Uiso   1.00
H216   H     0.11923   0.46079   0.53465   0.00000  Uiso   1.00
H217   H     0.34258   0.40846   0.59140   0.00000  Uiso   1.00
H218   H     0.22551   0.63007   0.61534   0.00000  Uiso   1.00
H219   H     0.98448   0.40629   0.49441   0.00000  Uiso   1.00
H220   H     0.45543   0.29598   0.61406   0.00000  Uiso   1.00
H221   H     0.20857   0.76328   0.66456   0.00000  Uiso   1.00
O222   O     0.85638   0.33219   0.50971   0.00000  Uiso   1.00
O223   O     0.47424   0.18747   0.66670   0.00000  Uiso   1.00
O224   O     0.15037   0.80056   0.73294   0.00000  Uiso   1.00
N225   N     0.91365   0.33717   0.57059   0.00000  Uiso   1.00
N226   N     0.35396   0.23402   0.68245   0.00000  Uiso   1.00
N227   N     0.12318   0.67090   0.72966   0.00000  Uiso   1.00
N228   N     0.97376   0.38929   0.52169   0.00000  Uiso   1.00
N229   N     0.41406   0.28614   0.63355   0.00000  Uiso   1.00
N230   N     0.18328   0.72302   0.68076   0.00000  Uiso   1.00
C231   C     0.62494   0.90946   0.16520   0.00000  Uiso   1.00
C232   C     0.58139   0.90229   0.12717   0.00000  Uiso   1.00
C233   C     0.51130   0.86721   0.12244   0.00000  Uiso   1.00
C234   C     0.48092   0.86660   0.08532   0.00000  Uiso   1.00
C235   C     0.40749   0.85036   0.03103   0.00000  Uiso   1.00
C236   C     0.70274   0.87385   0.15800   0.00000  Uiso   1.00
C237   C     0.73468   0.81487   0.17919   0.00000  Uiso   1.00
C238   C     0.80646   0.79033   0.16802   0.00000  Uiso   1.00
C239   C     0.92144   0.72997   0.16161   0.00000  Uiso   1.00
C240   C     0.63912   0.99425   0.17101   0.00000  Uiso   1.00
C241   C     0.61760   0.03651   0.20314   0.00000  Uiso   1.00
C242   C     0.63583   0.11334   0.20293   0.00000  Uiso   1.00
C243   C     0.65204   0.23993   0.21671   0.00000  Uiso   1.00
C244   C     0.69562   0.97076   0.10769   0.00000  Uiso   1.00
C245   C     0.61979   0.93558   0.09594   0.00000  Uiso   1.00
C246   C     0.58950   0.93502   0.05882   0.00000  Uiso   1.00
C247   C     0.51938   0.89995   0.05403   0.00000  Uiso   1.00
C248   C     0.74113   0.90714   0.12677   0.00000  Uiso   1.00
C249   C     0.81288   0.88268   0.11557   0.00000  Uiso   1.00
C250   C     0.84492   0.82368   0.13673   0.00000  Uiso   1.00
C251   C     0.67752   0.02754   0.13977   0.00000  Uiso   1.00
C252   C     0.69580   0.10432   0.13952   0.00000  Uiso   1.00
C253   C     0.67430   0.14669   0.17164   0.00000  Uiso   1.00
H254   H     0.59505   0.88354   0.18951   0.00000  Uiso   1.00
H255   H     0.48161   0.84144   0.14662   0.00000  Uiso   1.00
H256   H     0.70496   0.78912   0.20336   0.00000  Uiso   1.00
H257   H     0.58789   0.01073   0.22730   0.00000  Uiso   1.00
H258   H     0.37279   0.80943   0.08529   0.00000  Uiso   1.00
H259   H     0.84373   0.69912   0.20494   0.00000  Uiso   1.00
H260   H     0.59687   0.16642   0.25543   0.00000  Uiso   1.00
H261   H     0.72551   0.99667   0.08337   0.00000  Uiso   1.00
H262   H     0.61923   0.96079   0.03465   0.00000  Uiso   1.00
H263   H     0.84258   0.90846   0.09140   0.00000  Uiso   1.00
H264   H     0.72551   0.13007   0.11534   0.00000  Uiso   1.00
H265   H     0.48448   0.90629   0.99441   0.00000  Uiso   1.00
H266   H     0.95543   0.79598   0.11406   0.00000  Uiso   1.00
H267   H     0.70857   0.26328   0.16456   0.00000  Uiso   1.00
O268   O     0.35638   0.83219   0.00971   0.00000  Uiso   1.00
O269   O     0.97424   0.68747   0.16670   0.00000  Uiso   1.00
O270   O     0.65037   0.30056   0.23294   0.00000  Uiso   1.00
N271   N     0.41365   0.83717   0.07059   0.00000  Uiso   1.00
N272   N     0.85396   0.73402   0.18245   0.00000  Uiso   1.00
N273   N     0.62318   0.17090   0.22966   0.00000  Uiso   1.00
N274   N     0.47376   0.88929   0.02169   0.00000  Uiso   1.00
N275   N     0.91406   0.78614   0.13355   0.00000  Uiso   1.00
N276   N     0.68328   0.22302   0.18076   0.00000  Uiso   1.00
C277   C     0.37506   0.09054   0.16520   0.00000  Uiso   1.00
C278   C     0.41861   0.09771   0.12717   0.00000  Uiso   1.00
C279   C     0.48870   0.13279   0.12244   0.00000  Uiso   1.00
C280   C     0.51908   0.13340   0.08532   0.00000  Uiso   1.00
C281   C     0.59251   0.14964   0.03103   0.00000  Uiso   1.00
C282   C     0.29726   0.12615   0.15800   0.00000  Uiso   1.00
C283   C     0.26532   0.18513   0.17919   0.00000  Uiso   1.00
C284   C     0.19354   0.20967   0.16802   0.00000  Uiso   1.00
C285   C     0.07856   0.27003   0.16161   0.00000  Uiso   1.00
C286   C     0.36088   0.00575   0.17101   0.00000  Uiso   1.00
C287   C     0.38240   0.96349   0.20314   0.00000  Uiso   1.00
C288   C     0.36417   0.88666   0.20293   0.00000  Uiso   1.00
C289   C     0.34796   0.76007   0.21671   0.00000  Uiso   1.00
C290   C     0.30438   0.02924   0.10769   0.00000  Uiso   1.00
C291   C     0.38021   0.06442   0.09594   0.00000  Uiso   1.00
C292   C     0.41050   0.06498   0.05882   0.00000  Uiso   1.00
C293   C     0.48062   0.10005   0.05403   0.00000  Uiso   1.00
C294   C     0.25887   0.09286   0.12677   0.00000  Uiso   1.00
C295   C     0.18712   0.11732   0.11557   0.00000  Uiso   1.00
C296   C     0.15508   0.17632   0.13673   0.00000  Uiso   1.00
C297   C     0.32248   0.97246   0.13977   0.00000  Uiso   1.00
C298   C     0.30420   0.89568   0.13952   0.00000  Uiso   1.00
C299   C     0.32570   0.85331   0.17164   0.00000  Uiso   1.00
H300   H     0.40495   0.11646   0.18951   0.00000  Uiso   1.00
H301   H     0.51839   0.15856   0.14662   0.00000  Uiso   1.00
H302   H     0.29504   0.21088   0.20336   0.00000  Uiso   1.00
H303   H     0.41211   0.98927   0.22730   0.00000  Uiso   1.00
H304   H     0.62721   0.19057   0.08529   0.00000  Uiso   1.00
H305   H     0.15627   0.30088   0.20494   0.00000  Uiso   1.00
H306   H     0.40313   0.83358   0.25543   0.00000  Uiso   1.00
H307   H     0.27449   0.00333   0.08337   0.00000  Uiso   1.00
H308   H     0.38077   0.03921   0.03465   0.00000  Uiso   1.00
H309   H     0.15742   0.09154   0.09140   0.00000  Uiso   1.00
H310   H     0.27449   0.86993   0.11534   0.00000  Uiso   1.00
H311   H     0.51552   0.09371   0.99441   0.00000  Uiso   1.00
H312   H     0.04457   0.20402   0.11406   0.00000  Uiso   1.00
H313   H     0.29143   0.73672   0.16456   0.00000  Uiso   1.00
O314   O     0.64362   0.16781   0.00971   0.00000  Uiso   1.00
O315   O     0.02576   0.31253   0.16670   0.00000  Uiso   1.00
O316   O     0.34963   0.69944   0.23294   0.00000  Uiso   1.00
N317   N     0.58635   0.16283   0.07059   0.00000  Uiso   1.00
N318   N     0.14604   0.26598   0.18245   0.00000  Uiso   1.00
N319   N     0.37682   0.82910   0.22966   0.00000  Uiso   1.00
N320   N     0.52624   0.11071   0.02169   0.00000  Uiso   1.00
N321   N     0.08594   0.21386   0.13355   0.00000  Uiso   1.00
N322   N     0.31672   0.77698   0.18076   0.00000  Uiso   1.00
C323   C     0.87506   0.59054   0.66520   0.00000  Uiso   1.00
C324   C     0.91861   0.59771   0.62717   0.00000  Uiso   1.00
C325   C     0.98870   0.63279   0.62244   0.00000  Uiso   1.00
C326   C     0.01908   0.63340   0.58532   0.00000  Uiso   1.00
C327   C     0.09251   0.64964   0.53103   0.00000  Uiso   1.00
C328   C     0.79726   0.62615   0.65800   0.00000  Uiso   1.00
C329   C     0.76532   0.68513   0.67919   0.00000  Uiso   1.00
C330   C     0.69354   0.70967   0.66802   0.00000  Uiso   1.00
C331   C     0.57856   0.77003   0.66161   0.00000  Uiso   1.00
C332   C     0.86088   0.50575   0.67101   0.00000  Uiso   1.00
C333   C     0.88240   0.46349   0.70314   0.00000  Uiso   1.00
C334   C     0.86417   0.38666   0.70293   0.00000  Uiso   1.00
C335   C     0.84796   0.26007   0.71671   0.00000  Uiso   1.00
C336   C     0.80438   0.52924   0.60769   0.00000  Uiso   1.00
C337   C     0.88021   0.56442   0.59594   0.00000  Uiso   1.00
C338   C     0.91050   0.56498   0.55882   0.00000  Uiso   1.00
C339   C     0.98062   0.60005   0.55403   0.00000  Uiso   1.00
C340   C     0.75887   0.59286   0.62677   0.00000  Uiso   1.00
C341   C     0.68712   0.61732   0.61557   0.00000  Uiso   1.00
C342   C     0.65508   0.67632   0.63673   0.00000  Uiso   1.00
C343   C     0.82248   0.47246   0.63977   0.00000  Uiso   1.00
C344   C     0.80420   0.39568   0.63952   0.00000  Uiso   1.00
C345   C     0.82570   0.35331   0.67164   0.00000  Uiso   1.00
H346   H     0.90495   0.61646   0.68951   0.00000  Uiso   1.00
H347   H     0.01839   0.65856   0.64662   0.00000  Uiso   1.00
H348   H     0.79504   0.71088   0.70336   0.00000  Uiso   1.00
H349   H     0.91211   0.48927   0.72730   0.00000  Uiso   1.00
H350   H     0.12721   0.69057   0.58529   0.00000  Uiso   1.00
H351   H     0.65627   0.80088   0.70494   0.00000  Uiso   1.00
H352   H     0.90313   0.33358   0.75543   0.00000  Uiso   1.00
H353   H     0.77449   0.50333   0.58337   0.00000  Uiso   1.00
H354   H     0.88077   0.53921   0.53465   0.00000  Uiso   1.00
H355   H     0.65742   0.59154   0.59140   0.00000  Uiso   1.00
H356   H     0.77449   0.36993   0.61534   0.00000  Uiso   1.00
H357   H     0.01552   0.59371   0.49441   0.00000  Uiso   1.00
H358   H     0.54457   0.70402   0.61406   0.00000  Uiso   1.00
H359   H     0.79143   0.23672   0.66456   0.00000  Uiso   1.00
O360   O     0.14362   0.66781   0.50971   0.00000  Uiso   1.00
O361   O     0.52576   0.81253   0.66670   0.00000  Uiso   1.00
O362   O     0.84963   0.19944   0.73294   0.00000  Uiso   1.00
N363   N     0.08635   0.66283   0.57059   0.00000  Uiso   1.00
N364   N     0.64604   0.76598   0.68245   0.00000  Uiso   1.00
N365   N     0.87682   0.32910   0.72966   0.00000  Uiso   1.00
N366   N     0.02624   0.61071   0.52169   0.00000  Uiso   1.00
N367   N     0.58594   0.71386   0.63355   0.00000  Uiso   1.00
N368   N     0.81672   0.27698   0.68076   0.00000  Uiso   1.00
C369   C     0.09054   0.62494   0.83480   0.00000  Uiso   1.00
C370   C     0.09771   0.58139   0.87283   0.00000  Uiso   1.00
C371   C     0.13279   0.51130   0.87756   0.00000  Uiso   1.00
C372   C     0.13340   0.48092   0.91468   0.00000  Uiso   1.00
C373   C     0.14964   0.40749   0.96897   0.00000  Uiso   1.00
C374   C     0.12615   0.70274   0.84200   0.00000  Uiso   1.00
C375   C     0.18513   0.73468   0.82081   0.00000  Uiso   1.00
C376   C     0.20967   0.80646   0.83198   0.00000  Uiso   1.00
C377   C     0.27003   0.92144   0.83839   0.00000  Uiso   1.00
C378   C     0.00575   0.63912   0.82899   0.00000  Uiso   1.00
C379   C     0.96349   0.61760   0.79686   0.00000  Uiso   1.00
C380   C     0.88666   0.63583   0.79707   0.00000  Uiso   1.00
C381   C     0.76007   0.65204   0.78329   0.00000  Uiso   1.00
C382   C     0.02924   0.69562   0.89231   0.00000  Uiso   1.00
C383   C     0.06442   0.61979   0.90406   0.00000  Uiso   1.00
C384   C     0.06498   0.58950   0.94118   0.00000  Uiso   1.00
C385   C     0.10005   0.51938   0.94597   0.00000  Uiso   1.00
C386   C     0.09286   0.74113   0.87323   0.00000  Uiso   1.00
C387   C     0.11732   0.81288   0.88443   0.00000  Uiso   1.00
C388   C     0.17632   0.84492   0.86327   0.00000  Uiso   1.00
C389   C     0.97246   0.67752   0.86023   0.00000  Uiso   1.00
C390   C     0.89568   0.69580   0.86048   0.00000  Uiso   1.00
C391   C     0.85331   0.67430   0.82836   0.00000  Uiso   1.00
H392   H     0.11646   0.59505   0.81049   0.00000  Uiso   1.00
H393   H     0.15856   0.48161   0.85338   0.00000  Uiso   1.00
H394   H     0.21088   0.70496   0.79664   0.00000  Uiso   1.00
H395   H     0.98927   0.58789   0.77270   0.00000  Uiso   1.00
H396   H     0.19057   0.37279   0.91471   0.00000  Uiso   1.00
H397   H     0.30088   0.84373   0.79506   0.00000  Uiso   1.00
H398   H     0.83358   0.59687   0.74457   0.00000  Uiso   1.00
H399   H     0.00333   0.72551   0.91663   0.00000  Uiso   1.00
H400   H     0.03921   0.61923   0.96535   0.00000  Uiso   1.00
H401   H     0.09154   0.84258   0.90860   0.00000  Uiso   1.00
H402   H     0.86993   0.72551   0.88466   0.00000  Uiso   1.00
H403   H     0.09371   0.48448   0.00559   0.00000  Uiso   1.00
H404   H     0.20402   0.95543   0.88594   0.00000  Uiso   1.00
H405   H     0.73672   0.70857   0.83544   0.00000  Uiso   1.00
O406   O     0.16781   0.35638   0.99029   0.00000  Uiso   1.00
O407   O     0.31253   0.97424   0.83330   0.00000  Uiso   1.00
O408   O     0.69944   0.65037   0.76706   0.00000  Uiso   1.00
N409   N     0.16283   0.41365   0.92941   0.00000  Uiso   1.00
N410   N     0.26598   0.85396   0.81755   0.00000  Uiso   1.00
N411   N     0.82910   0.62318   0.77034   0.00000  Uiso   1.00
N412   N     0.11071   0.47376   0.97831   0.00000  Uiso   1.00
N413   N     0.21386   0.91406   0.86645   0.00000  Uiso   1.00
N414   N     0.77698   0.68328   0.81924   0.00000  Uiso   1.00
C415   C     0.59054   0.12494   0.33480   0.00000  Uiso   1.00
C416   C     0.59771   0.08139   0.37283   0.00000  Uiso   1.00
C417   C     0.63279   0.01130   0.37756   0.00000  Uiso   1.00
C418   C     0.63340   0.98092   0.41468   0.00000  Uiso   1.00
C419   C     0.64964   0.90749   0.46897   0.00000  Uiso   1.00
C420   C     0.62615   0.20274   0.34200   0.00000  Uiso   1.00
C421   C     0.68513   0.23468   0.32081   0.00000  Uiso   1.00
C422   C     0.70967   0.30646   0.33198   0.00000  Uiso   1.00
C423   C     0.77003   0.42144   0.33839   0.00000  Uiso   1.00
C424   C     0.50575   0.13912   0.32899   0.00000  Uiso   1.00
C425   C     0.46349   0.11760   0.29686   0.00000  Uiso   1.00
C426   C     0.38666   0.13583   0.29707   0.00000  Uiso   1.00
C427   C     0.26007   0.15204   0.28329   0.00000  Uiso   1.00
C428   C     0.52924   0.19562   0.39231   0.00000  Uiso   1.00
C429   C     0.56442   0.11979   0.40406   0.00000  Uiso   1.00
C430   C     0.56498   0.08950   0.44118   0.00000  Uiso   1.00
C431   C     0.60005   0.01938   0.44597   0.00000  Uiso   1.00
C432   C     0.59286   0.24113   0.37323   0.00000  Uiso   1.00
C433   C     0.61732   0.31288   0.38443   0.00000  Uiso   1.00
C434   C     0.67632   0.34492   0.36327   0.00000  Uiso   1.00
C435   C     0.47246   0.17752   0.36023   0.00000  Uiso   1.00
C436   C     0.39568   0.19580   0.36048   0.00000  Uiso   1.00
C437   C     0.35331   0.17430   0.32836   0.00000  Uiso   1.00
H438   H     0.61646   0.09505   0.31049   0.00000  Uiso   1.00
H439   H     0.65856   0.98161   0.35338   0.00000  Uiso   1.00
H440   H     0.71088   0.20496   0.29664   0.00000  Uiso   1.00
H441   H     0.48927   0.08789   0.27270   0.00000  Uiso   1.00
H442   H     0.69057   0.87279   0.41471   0.00000  Uiso   1.00
H443   H     0.80088   0.34373   0.29506   0.00000  Uiso   1.00
H444   H     0.33358   0.09687   0.24457   0.00000  Uiso   1.00
H445   H     0.50333   0.22551   0.41663   0.00000  Uiso   1.00
H446   H     0.53921   0.11923   0.46535   0.00000  Uiso   1.00
H447   H     0.59154   0.34258   0.40860   0.00000  Uiso   1.00
H448   H     0.36993   0.22551   0.38466   0.00000  Uiso   1.00
H449   H     0.59371   0.98448   0.50559   0.00000  Uiso   1.00
H450   H     0.70402   0.45543   0.38594   0.00000  Uiso   1.00
H451   H     0.23672   0.20857   0.33544   0.00000  Uiso   1.00
O452   O     0.66781   0.85638   0.49029   0.00000  Uiso   1.00
O453   O     0.81253   0.47424   0.33330   0.00000  Uiso   1.00
O454   O     0.19944   0.15037   0.26706   0.00000  Uiso   1.00
N455   N     0.66283   0.91365   0.42941   0.00000  Uiso   1.00
N456   N     0.76598   0.35396   0.31755   0.00000  Uiso   1.00
N457   N     0.32910   0.12318   0.27034   0.00000  Uiso   1.00
N458   N     0.61071   0.97376   0.47831   0.00000  Uiso   1.00
N459   N     0.71386   0.41406   0.36645   0.00000  Uiso   1.00
N460   N     0.27698   0.18328   0.31924   0.00000  Uiso   1.00
C461   C     0.40946   0.87506   0.33480   0.00000  Uiso   1.00
C462   C     0.40229   0.91861   0.37283   0.00000  Uiso   1.00
C463   C     0.36721   0.98870   0.37756   0.00000  Uiso   1.00
C464   C     0.36660   0.01908   0.41468   0.00000  Uiso   1.00
C465   C     0.35036   0.09251   0.46897   0.00000  Uiso   1.00
C466   C     0.37385   0.79726   0.34200   0.00000  Uiso   1.00
C467   C     0.31487   0.76532   0.32081   0.00000  Uiso   1.00
C468   C     0.29033   0.69354   0.33198   0.00000  Uiso   1.00
C469   C     0.22997   0.57856   0.33839   0.00000  Uiso   1.00
C470   C     0.49425   0.86088   0.32899   0.00000  Uiso   1.00
C471   C     0.53651   0.88240   0.29686   0.00000  Uiso   1.00
C472   C     0.61334   0.86417   0.29707   0.00000  Uiso   1.00
C473   C     0.73993   0.84796   0.28329   0.00000  Uiso   1.00
C474   C     0.47076   0.80438   0.39231   0.00000  Uiso   1.00
C475   C     0.43558   0.88021   0.40406   0.00000  Uiso   1.00
C476   C     0.43502   0.91050   0.44118   0.00000  Uiso   1.00
C477   C     0.39995   0.98062   0.44597   0.00000  Uiso   1.00
C478   C     0.40714   0.75887   0.37323   0.00000  Uiso   1.00
C479   C     0.38268   0.68712   0.38443   0.00000  Uiso   1.00
C480   C     0.32368   0.65508   0.36327   0.00000  Uiso   1.00
C481   C     0.52754   0.82248   0.36023   0.00000  Uiso   1.00
C482   C     0.60432   0.80420   0.36048   0.00000  Uiso   1.00
C483   C     0.64669   0.82570   0.32836   0.00000  Uiso   1.00
H484   H     0.38354   0.90495   0.31049   0.00000  Uiso   1.00
H485   H     0.34144   0.01839   0.35338   0.00000  Uiso   1.00
H486   H     0.28912   0.79504   0.29664   0.00000  Uiso   1.00
H487   H     0.51073   0.91211   0.27270   0.00000  Uiso   1.00
H488   H     0.30943   0.12721   0.41471   0.00000  Uiso   1.00
H489   H     0.19912   0.65627   0.29506   0.00000  Uiso   1.00
H490   H     0.66642   0.90313   0.24457   0.00000  Uiso   1.00
H491   H     0.49667   0.77449   0.41663   0.00000  Uiso   1.00
H492   H     0.46079   0.88077   0.46535   0.00000  Uiso   1.00
H493   H     0.40846   0.65742   0.40860   0.00000  Uiso   1.00
H494   H     0.63007   0.77449   0.38466   0.00000  Uiso   1.00
H495   H     0.40629   0.01552   0.50559   0.00000  Uiso   1.00
H496   H     0.29598   0.54457   0.38594   0.00000  Uiso   1.00
H497   H     0.76328   0.79143   0.33544   0.00000  Uiso   1.00
O498   O     0.33219   0.14362   0.49029   0.00000  Uiso   1.00
O499   O     0.18747   0.52576   0.33330   0.00000  Uiso   1.00
O500   O     0.80056   0.84963   0.26706   0.00000  Uiso   1.00
N501   N     0.33717   0.08635   0.42941   0.00000  Uiso   1.00
N502   N     0.23402   0.64604   0.31755   0.00000  Uiso   1.00
N503   N     0.67090   0.87682   0.27034   0.00000  Uiso   1.00
N504   N     0.38929   0.02624   0.47831   0.00000  Uiso   1.00
N505   N     0.28614   0.58594   0.36645   0.00000  Uiso   1.00
N506   N     0.72302   0.81672   0.31924   0.00000  Uiso   1.00
C507   C     0.90946   0.37506   0.83480   0.00000  Uiso   1.00
C508   C     0.90229   0.41861   0.87283   0.00000  Uiso   1.00
C509   C     0.86721   0.48870   0.87756   0.00000  Uiso   1.00
C510   C     0.86660   0.51908   0.91468   0.00000  Uiso   1.00
C511   C     0.85036   0.59251   0.96897   0.00000  Uiso   1.00
C512   C     0.87385   0.29726   0.84200   0.00000  Uiso   1.00
C513   C     0.81487   0.26532   0.82081   0.00000  Uiso   1.00
C514   C     0.79033   0.19354   0.83198   0.00000  Uiso   1.00
C515   C     0.72997   0.07856   0.83839   0.00000  Uiso   1.00
C516   C     0.99425   0.36088   0.82899   0.00000  Uiso   1.00
C517   C     0.03651   0.38240   0.79686   0.00000  Uiso   1.00
C518   C     0.11334   0.36417   0.79707   0.00000  Uiso   1.00
C519   C     0.23993   0.34796   0.78329   0.00000  Uiso   1.00
C520   C     0.97076   0.30438   0.89231   0.00000  Uiso   1.00
C521   C     0.93558   0.38021   0.90406   0.00000  Uiso   1.00
C522   C     0.93502   0.41050   0.94118   0.00000  Uiso   1.00
C523   C     0.89995   0.48062   0.94597   0.00000  Uiso   1.00
C524   C     0.90714   0.25887   0.87323   0.00000  Uiso   1.00
C525   C     0.88268   0.18712   0.88443   0.00000  Uiso   1.00
C526   C     0.82368   0.15508   0.86327   0.00000  Uiso   1.00
C527   C     0.02754   0.32248   0.86023   0.00000  Uiso   1.00
C528   C     0.10432   0.30420   0.86048   0.00000  Uiso   1.00
C529   C     0.14669   0.32570   0.82836   0.00000  Uiso   1.00
H530   H     0.88354   0.40495   0.81049   0.00000  Uiso   1.00
H531   H     0.84144   0.51839   0.85338   0.00000  Uiso   1.00
H532   H     0.78912   0.29504   0.79664   0.00000  Uiso   1.00
H533   H     0.01073   0.41211   0.77270   0.00000  Uiso   1.00
H534   H     0.80943   0.62721   0.91471   0.00000  Uiso   1.00
H535   H     0.69912   0.15627   0.79506   0.00000  Uiso   1.00
H536   H     0.16642   0.40313   0.74457   0.00000  Uiso   1.00
H537   H     0.99667   0.27449   0.91663   0.00000  Uiso   1.00
H538   H     0.96079   0.38077   0.96535   0.00000  Uiso   1.00
H539   H     0.90846   0.15742   0.90860   0.00000  Uiso   1.00
H540   H     0.13007   0.27449   0.88466   0.00000  Uiso   1.00
H541   H     0.90629   0.51552   0.00559   0.00000  Uiso   1.00
H542   H     0.79598   0.04457   0.88594   0.00000  Uiso   1.00
H543   H     0.26328   0.29143   0.83544   0.00000  Uiso   1.00
O544   O     0.83219   0.64362   0.99029   0.00000  Uiso   1.00
O545   O     0.68747   0.02576   0.83330   0.00000  Uiso   1.00
O546   O     0.30056   0.34963   0.76706   0.00000  Uiso   1.00
N547   N     0.83717   0.58635   0.92941   0.00000  Uiso   1.00
N548   N     0.73402   0.14604   0.81755   0.00000  Uiso   1.00
N549   N     0.17090   0.37682   0.77034   0.00000  Uiso   1.00
N550   N     0.88929   0.52624   0.97831   0.00000  Uiso   1.00
N551   N     0.78614   0.08594   0.86645   0.00000  Uiso   1.00
N552   N     0.22302   0.31672   0.81924   0.00000  Uiso   1.00
C553   C     0.87506   0.09054   0.58480   0.00000  Uiso   1.00
C554   C     0.91861   0.09771   0.62283   0.00000  Uiso   1.00
C555   C     0.98870   0.13279   0.62756   0.00000  Uiso   1.00
C556   C     0.01908   0.13340   0.66468   0.00000  Uiso   1.00
C557   C     0.09251   0.14964   0.71897   0.00000  Uiso   1.00
C558   C     0.79726   0.12615   0.59200   0.00000  Uiso   1.00
C559   C     0.76532   0.18513   0.57081   0.00000  Uiso   1.00
C560   C     0.69354   0.20967   0.58198   0.00000  Uiso   1.00
C561   C     0.57856   0.27003   0.58839   0.00000  Uiso   1.00
C562   C     0.86088   0.00575   0.57899   0.00000  Uiso   1.00
C563   C     0.88240   0.96349   0.54686   0.00000  Uiso   1.00
C564   C     0.86417   0.88666   0.54707   0.00000  Uiso   1.00
C565   C     0.84796   0.76007   0.53329   0.00000  Uiso   1.00
C566   C     0.80438   0.02924   0.64231   0.00000  Uiso   1.00
C567   C     0.88021   0.06442   0.65406   0.00000  Uiso   1.00
C568   C     0.91050   0.06498   0.69118   0.00000  Uiso   1.00
C569   C     0.98062   0.10005   0.69597   0.00000  Uiso   1.00
C570   C     0.75887   0.09286   0.62323   0.00000  Uiso   1.00
C571   C     0.68712   0.11732   0.63443   0.00000  Uiso   1.00
C572   C     0.65508   0.17632   0.61327   0.00000  Uiso   1.00
C573   C     0.82248   0.97246   0.61023   0.00000  Uiso   1.00
C574   C     0.80420   0.89568   0.61048   0.00000  Uiso   1.00
C575   C     0.82570   0.85331   0.57836   0.00000  Uiso   1.00
H576   H     0.90495   0.11646   0.56049   0.00000  Uiso   1.00
H577   H     0.01839   0.15856   0.60338   0.00000  Uiso   1.00
H578   H     0.79504   0.21088   0.54664   0.00000  Uiso   1.00
H579   H     0.91211   0.98927   0.52270   0.00000  Uiso   1.00
H580   H     0.12721   0.19057   0.66471   0.00000  Uiso   1.00
H581   H     0.65627   0.30088   0.54506   0.00000  Uiso   1.00
H582   H     0.90313   0.83358   0.49457   0.00000  Uiso   1.00
H583   H     0.77449   0.00333   0.66663   0.00000  Uiso   1.00
H584   H     0.88077   0.03921   0.71535   0.00000  Uiso   1.00
H585   H     0.65742   0.09154   0.65860   0.00000  Uiso   1.00
H586   H     0.77449   0.86993   0.63466   0.00000  Uiso   1.00
H587   H     0.01552   0.09371   0.75559   0.00000  Uiso   1.00
H588   H     0.54457   0.20402   0.63594   0.00000  Uiso   1.00
H589   H     0.79143   0.73672   0.58544   0.00000  Uiso   1.00
O590   O     0.14362   0.16781   0.74029   0.00000  Uiso   1.00
O591   O     0.52576   0.31253   0.58330   0.00000  Uiso   1.00
O592   O     0.84963   0.69944   0.51706   0.00000  Uiso   1.00
N593   N     0.08635   0.16283   0.67941   0.00000  Uiso   1.00
N594   N     0.64604   0.26598   0.56755   0.00000  Uiso   1.00
N595   N     0.87682   0.82910   0.52034   0.00000  Uiso   1.00
N596   N     0.02624   0.11071   0.72831   0.00000  Uiso   1.00
N597   N     0.58594   0.21386   0.61645   0.00000  Uiso   1.00
N598   N     0.81672   0.77698   0.56924   0.00000  Uiso   1.00
C599   C     0.37506   0.59054   0.08480   0.00000  Uiso   1.00
C600   C     0.41861   0.59771   0.12283   0.00000  Uiso   1.00
C601   C     0.48870   0.63279   0.12756   0.00000  Uiso   1.00
C602   C     0.51908   0.63340   0.16468   0.00000  Uiso   1.00
C603   C     0.59251   0.64964   0.21897   0.00000  Uiso   1.00
C604   C     0.29726   0.62615   0.09200   0.00000  Uiso   1.00
C605   C     0.26532   0.68513   0.07081   0.00000  Uiso   1.00
C606   C     0.19354   0.70967   0.08198   0.00000  Uiso   1.00
C607   C     0.07856   0.77003   0.08839   0.00000  Uiso   1.00
C608   C     0.36088   0.50575   0.07899   0.00000  Uiso   1.00
C609   C     0.38240   0.46349   0.04686   0.00000  Uiso   1.00
C610   C     0.36417   0.38666   0.04707   0.00000  Uiso   1.00
C611   C     0.34796   0.26007   0.03329   0.00000  Uiso   1.00
C612   C     0.30438   0.52924   0.14231   0.00000  Uiso   1.00
C613   C     0.38021   0.56442   0.15406   0.00000  Uiso   1.00
C614   C     0.41050   0.56498   0.19118   0.00000  Uiso   1.00
C615   C     0.48062   0.60005   0.19597   0.00000  Uiso   1.00
C616   C     0.25887   0.59286   0.12323   0.00000  Uiso   1.00
C617   C     0.18712   0.61732   0.13443   0.00000  Uiso   1.00
C618   C     0.15508   0.67632   0.11327   0.00000  Uiso   1.00
C619   C     0.32248   0.47246   0.11023   0.00000  Uiso   1.00
C620   C     0.30420   0.39568   0.11048   0.00000  Uiso   1.00
C621   C     0.32570   0.35331   0.07836   0.00000  Uiso   1.00
H622   H     0.40495   0.61646   0.06049   0.00000  Uiso   1.00
H623   H     0.51839   0.65856   0.10338   0.00000  Uiso   1.00
H624   H     0.29504   0.71088   0.04664   0.00000  Uiso   1.00
H625   H     0.41211   0.48927   0.02270   0.00000  Uiso   1.00
H626   H     0.62721   0.69057   0.16471   0.00000  Uiso   1.00
H627   H     0.15627   0.80088   0.04506   0.00000  Uiso   1.00
H628   H     0.40313   0.33358   0.99457   0.00000  Uiso   1.00
H629   H     0.27449   0.50333   0.16663   0.00000  Uiso   1.00
H630   H     0.38077   0.53921   0.21535   0.00000  Uiso   1.00
H631   H     0.15742   0.59154   0.15860   0.00000  Uiso   1.00
H632   H     0.27449   0.36993   0.13466   0.00000  Uiso   1.00
H633   H     0.51552   0.59371   0.25559   0.00000  Uiso   1.00
H634   H     0.04457   0.70402   0.13594   0.00000  Uiso   1.00
H635   H     0.29143   0.23672   0.08544   0.00000  Uiso   1.00
O636   O     0.64362   0.66781   0.24029   0.00000  Uiso   1.00
O637   O     0.02576   0.81253   0.08330   0.00000  Uiso   1.00
O638   O     0.34963   0.19944   0.01706   0.00000  Uiso   1.00
N639   N     0.58635   0.66283   0.17941   0.00000  Uiso   1.00
N640   N     0.14604   0.76598   0.06755   0.00000  Uiso   1.00
N641   N     0.37682   0.32910   0.02034   0.00000  Uiso   1.00
N642   N     0.52624   0.61071   0.22831   0.00000  Uiso   1.00
N643   N     0.08594   0.71386   0.11645   0.00000  Uiso   1.00
N644   N     0.31672   0.27698   0.06924   0.00000  Uiso   1.00
C645   C     0.62494   0.40946   0.08480   0.00000  Uiso   1.00
C646   C     0.58139   0.40229   0.12283   0.00000  Uiso   1.00
C647   C     0.51130   0.36721   0.12756   0.00000  Uiso   1.00
C648   C     0.48092   0.36660   0.16468   0.00000  Uiso   1.00
C649   C     0.40749   0.35036   0.21897   0.00000  Uiso   1.00
C650   C     0.70274   0.37385   0.09200   0.00000  Uiso   1.00
C651   C     0.73468   0.31487   0.07081   0.00000  Uiso   1.00
C652   C     0.80646   0.29033   0.08198   0.00000  Uiso   1.00
C653   C     0.92144   0.22997   0.08839   0.00000  Uiso   1.00
C654   C     0.63912   0.49425   0.07899   0.00000  Uiso   1.00
C655   C     0.61760   0.53651   0.04686   0.00000  Uiso   1.00
C656   C     0.63583   0.61334   0.04707   0.00000  Uiso   1.00
C657   C     0.65204   0.73993   0.03329   0.00000  Uiso   1.00
C658   C     0.69562   0.47076   0.14231   0.00000  Uiso   1.00
C659   C     0.61979   0.43558   0.15406   0.00000  Uiso   1.00
C660   C     0.58950   0.43502   0.19118   0.00000  Uiso   1.00
C661   C     0.51938   0.39995   0.19597   0.00000  Uiso   1.00
C662   C     0.74113   0.40714   0.12323   0.00000  Uiso   1.00
C663   C     0.81288   0.38268   0.13443   0.00000  Uiso   1.00
C664   C     0.84492   0.32368   0.11327   0.00000  Uiso   1.00
C665   C     0.67752   0.52754   0.11023   0.00000  Uiso   1.00
C666   C     0.69580   0.60432   0.11048   0.00000  Uiso   1.00
C667   C     0.67430   0.64669   0.07836   0.00000  Uiso   1.00
H668   H     0.59505   0.38354   0.06049   0.00000  Uiso   1.00
H669   H     0.48161   0.34144   0.10338   0.00000  Uiso   1.00
H670   H     0.70496   0.28912   0.04664   0.00000  Uiso   1.00
H671   H     0.58789   0.51073   0.02270   0.00000  Uiso   1.00
H672   H     0.37279   0.30943   0.16471   0.00000  Uiso   1.00
H673   H     0.84373   0.19912   0.04506   0.00000  Uiso   1.00
H674   H     0.59687   0.66642   0.99457   0.00000  Uiso   1.00
H675   H     0.72551   0.49667   0.16663   0.00000  Uiso   1.00
H676   H     0.61923   0.46079   0.21535   0.00000  Uiso   1.00
H677   H     0.84258   0.40846   0.15860   0.00000  Uiso   1.00
H678   H     0.72551   0.63007   0.13466   0.00000  Uiso   1.00
H679   H     0.48448   0.40629   0.25559   0.00000  Uiso   1.00
H680   H     0.95543   0.29598   0.13594   0.00000  Uiso   1.00
H681   H     0.70857   0.76328   0.08544   0.00000  Uiso   1.00
O682   O     0.35638   0.33219   0.24029   0.00000  Uiso   1.00
O683   O     0.97424   0.18747   0.08330   0.00000  Uiso   1.00
O684   O     0.65037   0.80056   0.01706   0.00000  Uiso   1.00
N685   N     0.41365   0.33717   0.17941   0.00000  Uiso   1.00
N686   N     0.85396   0.23402   0.06755   0.00000  Uiso   1.00
N687   N     0.62318   0.67090   0.02034   0.00000  Uiso   1.00
N688   N     0.47376   0.38929   0.22831   0.00000  Uiso   1.00
N689   N     0.91406   0.28614   0.11645   0.00000  Uiso   1.00
N690   N     0.68328   0.72302   0.06924   0.00000  Uiso   1.00
C691   C     0.12494   0.90946   0.58480   0.00000  Uiso   1.00
C692   C     0.08139   0.90229   0.62283   0.00000  Uiso   1.00
C693   C     0.01130   0.86721   0.62756   0.00000  Uiso   1.00
C694   C     0.98092   0.86660   0.66468   0.00000  Uiso   1.00
C695   C     0.90749   0.85036   0.71897   0.00000  Uiso   1.00
C696   C     0.20274   0.87385   0.59200   0.00000  Uiso   1.00
C697   C     0.23468   0.81487   0.57081   0.00000  Uiso   1.00
C698   C     0.30646   0.79033   0.58198   0.00000  Uiso   1.00
C699   C     0.42144   0.72997   0.58839   0.00000  Uiso   1.00
C700   C     0.13912   0.99425   0.57899   0.00000  Uiso   1.00
C701   C     0.11760   0.03651   0.54686   0.00000  Uiso   1.00
C702   C     0.13583   0.11334   0.54707   0.00000  Uiso   1.00
C703   C     0.15204   0.23993   0.53329   0.00000  Uiso   1.00
C704   C     0.19562   0.97076   0.64231   0.00000  Uiso   1.00
C705   C     0.11979   0.93558   0.65406   0.00000  Uiso   1.00
C706   C     0.08950   0.93502   0.69118   0.00000  Uiso   1.00
C707   C     0.01938   0.89995   0.69597   0.00000  Uiso   1.00
C708   C     0.24113   0.90714   0.62323   0.00000  Uiso   1.00
C709   C     0.31288   0.88268   0.63443   0.00000  Uiso   1.00
C710   C     0.34492   0.82368   0.61327   0.00000  Uiso   1.00
C711   C     0.17752   0.02754   0.61023   0.00000  Uiso   1.00
C712   C     0.19580   0.10432   0.61048   0.00000  Uiso   1.00
C713   C     0.17430   0.14669   0.57836   0.00000  Uiso   1.00
H714   H     0.09505   0.88354   0.56049   0.00000  Uiso   1.00
H715   H     0.98161   0.84144   0.60338   0.00000  Uiso   1.00
H716   H     0.20496   0.78912   0.54664   0.00000  Uiso   1.00
H717   H     0.08789   0.01073   0.52270   0.00000  Uiso   1.00
H718   H     0.87279   0.80943   0.66471   0.00000  Uiso   1.00
H719   H     0.34373   0.69912   0.54506   0.00000  Uiso   1.00
H720   H     0.09687   0.16642   0.49457   0.00000  Uiso   1.00
H721   H     0.22551   0.99667   0.66663   0.00000  Uiso   1.00
H722   H     0.11923   0.96079   0.71535   0.00000  Uiso   1.00
H723   H     0.34258   0.90846   0.65860   0.00000  Uiso   1.00
H724   H     0.22551   0.13007   0.63466   0.00000  Uiso   1.00
H725   H     0.98448   0.90629   0.75559   0.00000  Uiso   1.00
H726   H     0.45543   0.79598   0.63594   0.00000  Uiso   1.00
H727   H     0.20857   0.26328   0.58544   0.00000  Uiso   1.00
O728   O     0.85638   0.83219   0.74029   0.00000  Uiso   1.00
O729   O     0.47424   0.68747   0.58330   0.00000  Uiso   1.00
O730   O     0.15037   0.30056   0.51706   0.00000  Uiso   1.00
N731   N     0.91365   0.83717   0.67941   0.00000  Uiso   1.00
N732   N     0.35396   0.73402   0.56755   0.00000  Uiso   1.00
N733   N     0.12318   0.17090   0.52034   0.00000  Uiso   1.00
N734   N     0.97376   0.88929   0.72831   0.00000  Uiso   1.00
N735   N     0.41406   0.78614   0.61645   0.00000  Uiso   1.00
N736   N     0.18328   0.22302   0.56924   0.00000  Uiso   1.00
