data_job_02987
_audit_creation_date              2018-12-19
_audit_creation_method            'Materials Studio'
_symmetry_space_group_name_H-M    'P1'
_symmetry_Int_Tables_number       1
_symmetry_cell_setting            triclinic
loop_
_symmetry_equiv_pos_as_xyz
  x,y,z
_cell_length_a                    23.0155
_cell_length_b                    23.0155
_cell_length_c                    35.1293
_cell_angle_alpha                 90.0000
_cell_angle_beta                  90.0000
_cell_angle_gamma                 90.0000
loop_
_atom_site_label
_atom_site_type_symbol
_atom_site_fract_x
_atom_site_fract_y
_atom_site_fract_z
_atom_site_U_iso_or_equiv
_atom_site_adp_type
_atom_site_occupancy
C1     C     0.09328   0.78877   0.87707   0.00000  Uiso   1.00
C2     C     0.14964   0.78233   0.85465   0.00000  Uiso   1.00
C3     C     0.19504   0.74506   0.86356   0.00000  Uiso   1.00
C4     C     0.24287   0.74562   0.83948   0.00000  Uiso   1.00
C5     C     0.33005   0.73008   0.80951   0.00000  Uiso   1.00
C6     C     0.08880   0.85291   0.88754   0.00000  Uiso   1.00
C7     C     0.08303   0.87498   0.92412   0.00000  Uiso   1.00
C8     C     0.07963   0.93496   0.92772   0.00000  Uiso   1.00
C9     C     0.07231   0.02900   0.94882   0.00000  Uiso   1.00
C10    C     0.04428   0.77717   0.84886   0.00000  Uiso   1.00
C11    C     0.00107   0.73556   0.85291   0.00000  Uiso   1.00
C12    C     0.96018   0.73178   0.82396   0.00000  Uiso   1.00
C13    C     0.88374   0.70822   0.78500   0.00000  Uiso   1.00
C14    C     0.09748   0.85604   0.81845   0.00000  Uiso   1.00
C15    C     0.15192   0.81887   0.82281   0.00000  Uiso   1.00
C16    C     0.19969   0.81949   0.79870   0.00000  Uiso   1.00
C17    C     0.24516   0.78222   0.80758   0.00000  Uiso   1.00
C18    C     0.09108   0.88945   0.85571   0.00000  Uiso   1.00
C19    C     0.08768   0.94941   0.85926   0.00000  Uiso   1.00
C20    C     0.08192   0.97157   0.89583   0.00000  Uiso   1.00
C21    C     0.04656   0.81371   0.81702   0.00000  Uiso   1.00
C22    C     0.00573   0.81000   0.78806   0.00000  Uiso   1.00
C23    C     0.96247   0.76839   0.79206   0.00000  Uiso   1.00
H24    H     0.09150   0.76032   0.90186   0.00000  Uiso   1.00
H25    H     0.19326   0.71679   0.88821   0.00000  Uiso   1.00
H26    H     0.08126   0.84669   0.94875   0.00000  Uiso   1.00
H27    H     0.99932   0.70729   0.87756   0.00000  Uiso   1.00
H28    H     0.30710   0.68465   0.85903   0.00000  Uiso   1.00
H29    H     0.07092   0.95856   0.98669   0.00000  Uiso   1.00
H30    H     0.89813   0.66461   0.83657   0.00000  Uiso   1.00
H31    H     0.09926   0.88450   0.79366   0.00000  Uiso   1.00
H32    H     0.20145   0.84777   0.77407   0.00000  Uiso   1.00
H33    H     0.08945   0.97768   0.83461   0.00000  Uiso   1.00
H34    H     0.00750   0.83828   0.76342   0.00000  Uiso   1.00
H35    H     0.31374   0.79097   0.76639   0.00000  Uiso   1.00
H36    H     0.07756   0.06488   0.89405   0.00000  Uiso   1.00
H37    H     0.90477   0.77093   0.74393   0.00000  Uiso   1.00
O38    O     0.37751   0.71143   0.80178   0.00000  Uiso   1.00
O39    O     0.06765   0.07078   0.96926   0.00000  Uiso   1.00
O40    O     0.84095   0.68513   0.77231   0.00000  Uiso   1.00
N41    N     0.29463   0.71470   0.83991   0.00000  Uiso   1.00
N42    N     0.07383   0.97079   0.95927   0.00000  Uiso   1.00
N43    N     0.91227   0.69599   0.81892   0.00000  Uiso   1.00
N44    N     0.29821   0.77191   0.79006   0.00000  Uiso   1.00
N45    N     0.07741   0.02800   0.90942   0.00000  Uiso   1.00
N46    N     0.91585   0.75320   0.76907   0.00000  Uiso   1.00
C47    C     0.90672   0.21123   0.87707   0.00000  Uiso   1.00
C48    C     0.85036   0.21767   0.85465   0.00000  Uiso   1.00
C49    C     0.80496   0.25494   0.86356   0.00000  Uiso   1.00
C50    C     0.75713   0.25438   0.83948   0.00000  Uiso   1.00
C51    C     0.66995   0.26992   0.80951   0.00000  Uiso   1.00
C52    C     0.91120   0.14709   0.88754   0.00000  Uiso   1.00
C53    C     0.91697   0.12502   0.92412   0.00000  Uiso   1.00
C54    C     0.92037   0.06504   0.92772   0.00000  Uiso   1.00
C55    C     0.92769   0.97100   0.94882   0.00000  Uiso   1.00
C56    C     0.95572   0.22283   0.84886   0.00000  Uiso   1.00
C57    C     0.99893   0.26444   0.85291   0.00000  Uiso   1.00
C58    C     0.03982   0.26822   0.82396   0.00000  Uiso   1.00
C59    C     0.11626   0.29178   0.78500   0.00000  Uiso   1.00
C60    C     0.90252   0.14396   0.81845   0.00000  Uiso   1.00
C61    C     0.84808   0.18113   0.82281   0.00000  Uiso   1.00
C62    C     0.80031   0.18051   0.79870   0.00000  Uiso   1.00
C63    C     0.75484   0.21778   0.80758   0.00000  Uiso   1.00
C64    C     0.90892   0.11055   0.85571   0.00000  Uiso   1.00
C65    C     0.91232   0.05059   0.85926   0.00000  Uiso   1.00
C66    C     0.91808   0.02843   0.89583   0.00000  Uiso   1.00
C67    C     0.95344   0.18629   0.81702   0.00000  Uiso   1.00
C68    C     0.99427   0.19000   0.78806   0.00000  Uiso   1.00
C69    C     0.03753   0.23161   0.79206   0.00000  Uiso   1.00
H70    H     0.90850   0.23968   0.90186   0.00000  Uiso   1.00
H71    H     0.80674   0.28321   0.88821   0.00000  Uiso   1.00
H72    H     0.91874   0.15331   0.94875   0.00000  Uiso   1.00
H73    H     0.00068   0.29271   0.87756   0.00000  Uiso   1.00
H74    H     0.69290   0.31535   0.85903   0.00000  Uiso   1.00
H75    H     0.92908   0.04144   0.98669   0.00000  Uiso   1.00
H76    H     0.10187   0.33539   0.83657   0.00000  Uiso   1.00
H77    H     0.90074   0.11550   0.79366   0.00000  Uiso   1.00
H78    H     0.79855   0.15223   0.77407   0.00000  Uiso   1.00
H79    H     0.91055   0.02232   0.83461   0.00000  Uiso   1.00
H80    H     0.99250   0.16172   0.76342   0.00000  Uiso   1.00
H81    H     0.68626   0.20903   0.76639   0.00000  Uiso   1.00
H82    H     0.92244   0.93512   0.89405   0.00000  Uiso   1.00
H83    H     0.09523   0.22907   0.74393   0.00000  Uiso   1.00
O84    O     0.62249   0.28857   0.80178   0.00000  Uiso   1.00
O85    O     0.93235   0.92922   0.96926   0.00000  Uiso   1.00
O86    O     0.15905   0.31487   0.77231   0.00000  Uiso   1.00
N87    N     0.70537   0.28530   0.83991   0.00000  Uiso   1.00
N88    N     0.92617   0.02921   0.95927   0.00000  Uiso   1.00
N89    N     0.08773   0.30401   0.81892   0.00000  Uiso   1.00
N90    N     0.70179   0.22809   0.79006   0.00000  Uiso   1.00
N91    N     0.92259   0.97200   0.90942   0.00000  Uiso   1.00
N92    N     0.08415   0.24680   0.76907   0.00000  Uiso   1.00
C93    C     0.71123   0.59328   0.87707   0.00000  Uiso   1.00
C94    C     0.71767   0.64964   0.85465   0.00000  Uiso   1.00
C95    C     0.75494   0.69504   0.86356   0.00000  Uiso   1.00
C96    C     0.75438   0.74287   0.83948   0.00000  Uiso   1.00
C97    C     0.76992   0.83005   0.80951   0.00000  Uiso   1.00
C98    C     0.64709   0.58880   0.88754   0.00000  Uiso   1.00
C99    C     0.62502   0.58303   0.92412   0.00000  Uiso   1.00
C100   C     0.56504   0.57963   0.92772   0.00000  Uiso   1.00
C101   C     0.47100   0.57231   0.94882   0.00000  Uiso   1.00
C102   C     0.72283   0.54428   0.84886   0.00000  Uiso   1.00
C103   C     0.76444   0.50107   0.85291   0.00000  Uiso   1.00
C104   C     0.76822   0.46018   0.82396   0.00000  Uiso   1.00
C105   C     0.79178   0.38374   0.78500   0.00000  Uiso   1.00
C106   C     0.64396   0.59748   0.81845   0.00000  Uiso   1.00
C107   C     0.68113   0.65192   0.82281   0.00000  Uiso   1.00
C108   C     0.68051   0.69969   0.79870   0.00000  Uiso   1.00
C109   C     0.71778   0.74516   0.80758   0.00000  Uiso   1.00
C110   C     0.61055   0.59108   0.85571   0.00000  Uiso   1.00
C111   C     0.55059   0.58768   0.85926   0.00000  Uiso   1.00
C112   C     0.52843   0.58192   0.89583   0.00000  Uiso   1.00
C113   C     0.68629   0.54656   0.81702   0.00000  Uiso   1.00
C114   C     0.69000   0.50573   0.78806   0.00000  Uiso   1.00
C115   C     0.73161   0.46247   0.79206   0.00000  Uiso   1.00
H116   H     0.73968   0.59150   0.90186   0.00000  Uiso   1.00
H117   H     0.78321   0.69326   0.88821   0.00000  Uiso   1.00
H118   H     0.65331   0.58126   0.94875   0.00000  Uiso   1.00
H119   H     0.79271   0.49932   0.87756   0.00000  Uiso   1.00
H120   H     0.81535   0.80710   0.85903   0.00000  Uiso   1.00
H121   H     0.54144   0.57092   0.98669   0.00000  Uiso   1.00
H122   H     0.83539   0.39813   0.83657   0.00000  Uiso   1.00
H123   H     0.61550   0.59926   0.79366   0.00000  Uiso   1.00
H124   H     0.65223   0.70145   0.77407   0.00000  Uiso   1.00
H125   H     0.52232   0.58945   0.83461   0.00000  Uiso   1.00
H126   H     0.66172   0.50750   0.76342   0.00000  Uiso   1.00
H127   H     0.70903   0.81374   0.76639   0.00000  Uiso   1.00
H128   H     0.43512   0.57756   0.89405   0.00000  Uiso   1.00
H129   H     0.72907   0.40477   0.74393   0.00000  Uiso   1.00
O130   O     0.78857   0.87751   0.80178   0.00000  Uiso   1.00
O131   O     0.42922   0.56765   0.96926   0.00000  Uiso   1.00
O132   O     0.81487   0.34095   0.77231   0.00000  Uiso   1.00
N133   N     0.78530   0.79463   0.83991   0.00000  Uiso   1.00
N134   N     0.52921   0.57383   0.95927   0.00000  Uiso   1.00
N135   N     0.80401   0.41227   0.81892   0.00000  Uiso   1.00
N136   N     0.72809   0.79821   0.79006   0.00000  Uiso   1.00
N137   N     0.47200   0.57741   0.90942   0.00000  Uiso   1.00
N138   N     0.74680   0.41585   0.76907   0.00000  Uiso   1.00
C139   C     0.28877   0.40672   0.87707   0.00000  Uiso   1.00
C140   C     0.28233   0.35036   0.85465   0.00000  Uiso   1.00
C141   C     0.24506   0.30496   0.86356   0.00000  Uiso   1.00
C142   C     0.24562   0.25713   0.83948   0.00000  Uiso   1.00
C143   C     0.23008   0.16995   0.80951   0.00000  Uiso   1.00
C144   C     0.35291   0.41120   0.88754   0.00000  Uiso   1.00
C145   C     0.37498   0.41697   0.92412   0.00000  Uiso   1.00
C146   C     0.43496   0.42037   0.92772   0.00000  Uiso   1.00
C147   C     0.52900   0.42769   0.94882   0.00000  Uiso   1.00
C148   C     0.27717   0.45572   0.84886   0.00000  Uiso   1.00
C149   C     0.23556   0.49893   0.85291   0.00000  Uiso   1.00
C150   C     0.23178   0.53982   0.82396   0.00000  Uiso   1.00
C151   C     0.20822   0.61626   0.78500   0.00000  Uiso   1.00
C152   C     0.35604   0.40252   0.81845   0.00000  Uiso   1.00
C153   C     0.31887   0.34808   0.82281   0.00000  Uiso   1.00
C154   C     0.31949   0.30031   0.79870   0.00000  Uiso   1.00
C155   C     0.28222   0.25484   0.80758   0.00000  Uiso   1.00
C156   C     0.38945   0.40892   0.85571   0.00000  Uiso   1.00
C157   C     0.44941   0.41232   0.85926   0.00000  Uiso   1.00
C158   C     0.47157   0.41808   0.89583   0.00000  Uiso   1.00
C159   C     0.31371   0.45344   0.81702   0.00000  Uiso   1.00
C160   C     0.31000   0.49427   0.78806   0.00000  Uiso   1.00
C161   C     0.26839   0.53753   0.79206   0.00000  Uiso   1.00
H162   H     0.26032   0.40850   0.90186   0.00000  Uiso   1.00
H163   H     0.21679   0.30674   0.88821   0.00000  Uiso   1.00
H164   H     0.34669   0.41874   0.94875   0.00000  Uiso   1.00
H165   H     0.20729   0.50068   0.87756   0.00000  Uiso   1.00
H166   H     0.18465   0.19290   0.85903   0.00000  Uiso   1.00
H167   H     0.45856   0.42908   0.98669   0.00000  Uiso   1.00
H168   H     0.16461   0.60187   0.83657   0.00000  Uiso   1.00
H169   H     0.38450   0.40074   0.79366   0.00000  Uiso   1.00
H170   H     0.34777   0.29855   0.77407   0.00000  Uiso   1.00
H171   H     0.47768   0.41055   0.83461   0.00000  Uiso   1.00
H172   H     0.33828   0.49250   0.76342   0.00000  Uiso   1.00
H173   H     0.29097   0.18626   0.76639   0.00000  Uiso   1.00
H174   H     0.56488   0.42244   0.89405   0.00000  Uiso   1.00
H175   H     0.27093   0.59523   0.74393   0.00000  Uiso   1.00
O176   O     0.21143   0.12249   0.80178   0.00000  Uiso   1.00
O177   O     0.57078   0.43235   0.96926   0.00000  Uiso   1.00
O178   O     0.18513   0.65905   0.77231   0.00000  Uiso   1.00
N179   N     0.21470   0.20537   0.83991   0.00000  Uiso   1.00
N180   N     0.47079   0.42617   0.95927   0.00000  Uiso   1.00
N181   N     0.19599   0.58773   0.81892   0.00000  Uiso   1.00
N182   N     0.27191   0.20179   0.79006   0.00000  Uiso   1.00
N183   N     0.52800   0.42259   0.90942   0.00000  Uiso   1.00
N184   N     0.25320   0.58415   0.76907   0.00000  Uiso   1.00
C185   C     0.40672   0.28877   0.62293   0.00000  Uiso   1.00
C186   C     0.35036   0.28233   0.64535   0.00000  Uiso   1.00
C187   C     0.30496   0.24506   0.63644   0.00000  Uiso   1.00
C188   C     0.25713   0.24562   0.66052   0.00000  Uiso   1.00
C189   C     0.16995   0.23008   0.69049   0.00000  Uiso   1.00
C190   C     0.41120   0.35291   0.61246   0.00000  Uiso   1.00
C191   C     0.41697   0.37498   0.57588   0.00000  Uiso   1.00
C192   C     0.42037   0.43496   0.57228   0.00000  Uiso   1.00
C193   C     0.42769   0.52900   0.55118   0.00000  Uiso   1.00
C194   C     0.45572   0.27717   0.65114   0.00000  Uiso   1.00
C195   C     0.49893   0.23556   0.64709   0.00000  Uiso   1.00
C196   C     0.53982   0.23178   0.67604   0.00000  Uiso   1.00
C197   C     0.61626   0.20822   0.71500   0.00000  Uiso   1.00
C198   C     0.40252   0.35604   0.68155   0.00000  Uiso   1.00
C199   C     0.34808   0.31887   0.67719   0.00000  Uiso   1.00
C200   C     0.30031   0.31949   0.70130   0.00000  Uiso   1.00
C201   C     0.25484   0.28222   0.69242   0.00000  Uiso   1.00
C202   C     0.40892   0.38945   0.64429   0.00000  Uiso   1.00
C203   C     0.41232   0.44941   0.64074   0.00000  Uiso   1.00
C204   C     0.41808   0.47157   0.60417   0.00000  Uiso   1.00
C205   C     0.45344   0.31371   0.68298   0.00000  Uiso   1.00
C206   C     0.49427   0.31000   0.71194   0.00000  Uiso   1.00
C207   C     0.53753   0.26839   0.70794   0.00000  Uiso   1.00
H208   H     0.40850   0.26032   0.59814   0.00000  Uiso   1.00
H209   H     0.30674   0.21679   0.61179   0.00000  Uiso   1.00
H210   H     0.41874   0.34669   0.55125   0.00000  Uiso   1.00
H211   H     0.50068   0.20729   0.62244   0.00000  Uiso   1.00
H212   H     0.19290   0.18465   0.64097   0.00000  Uiso   1.00
H213   H     0.42908   0.45856   0.51331   0.00000  Uiso   1.00
H214   H     0.60187   0.16461   0.66343   0.00000  Uiso   1.00
H215   H     0.40074   0.38450   0.70634   0.00000  Uiso   1.00
H216   H     0.29855   0.34777   0.72593   0.00000  Uiso   1.00
H217   H     0.41055   0.47768   0.66539   0.00000  Uiso   1.00
H218   H     0.49250   0.33828   0.73658   0.00000  Uiso   1.00
H219   H     0.18626   0.29097   0.73361   0.00000  Uiso   1.00
H220   H     0.42244   0.56488   0.60595   0.00000  Uiso   1.00
H221   H     0.59523   0.27093   0.75607   0.00000  Uiso   1.00
O222   O     0.12249   0.21143   0.69822   0.00000  Uiso   1.00
O223   O     0.43235   0.57078   0.53074   0.00000  Uiso   1.00
O224   O     0.65905   0.18513   0.72769   0.00000  Uiso   1.00
N225   N     0.20537   0.21470   0.66009   0.00000  Uiso   1.00
N226   N     0.42617   0.47079   0.54073   0.00000  Uiso   1.00
N227   N     0.58773   0.19599   0.68108   0.00000  Uiso   1.00
N228   N     0.20179   0.27191   0.70994   0.00000  Uiso   1.00
N229   N     0.42259   0.52800   0.59058   0.00000  Uiso   1.00
N230   N     0.58415   0.25320   0.73093   0.00000  Uiso   1.00
C231   C     0.59328   0.71123   0.62293   0.00000  Uiso   1.00
C232   C     0.64964   0.71767   0.64535   0.00000  Uiso   1.00
C233   C     0.69504   0.75494   0.63644   0.00000  Uiso   1.00
C234   C     0.74287   0.75438   0.66052   0.00000  Uiso   1.00
C235   C     0.83005   0.76992   0.69049   0.00000  Uiso   1.00
C236   C     0.58880   0.64709   0.61246   0.00000  Uiso   1.00
C237   C     0.58303   0.62502   0.57588   0.00000  Uiso   1.00
C238   C     0.57963   0.56504   0.57228   0.00000  Uiso   1.00
C239   C     0.57231   0.47100   0.55118   0.00000  Uiso   1.00
C240   C     0.54428   0.72283   0.65114   0.00000  Uiso   1.00
C241   C     0.50107   0.76444   0.64709   0.00000  Uiso   1.00
C242   C     0.46018   0.76822   0.67604   0.00000  Uiso   1.00
C243   C     0.38374   0.79178   0.71500   0.00000  Uiso   1.00
C244   C     0.59748   0.64396   0.68155   0.00000  Uiso   1.00
C245   C     0.65192   0.68113   0.67719   0.00000  Uiso   1.00
C246   C     0.69969   0.68051   0.70130   0.00000  Uiso   1.00
C247   C     0.74516   0.71778   0.69242   0.00000  Uiso   1.00
C248   C     0.59108   0.61055   0.64429   0.00000  Uiso   1.00
C249   C     0.58768   0.55059   0.64074   0.00000  Uiso   1.00
C250   C     0.58192   0.52843   0.60417   0.00000  Uiso   1.00
C251   C     0.54656   0.68629   0.68298   0.00000  Uiso   1.00
C252   C     0.50573   0.69000   0.71194   0.00000  Uiso   1.00
C253   C     0.46247   0.73161   0.70794   0.00000  Uiso   1.00
H254   H     0.59150   0.73968   0.59814   0.00000  Uiso   1.00
H255   H     0.69326   0.78321   0.61179   0.00000  Uiso   1.00
H256   H     0.58126   0.65331   0.55125   0.00000  Uiso   1.00
H257   H     0.49932   0.79271   0.62244   0.00000  Uiso   1.00
H258   H     0.80710   0.81535   0.64097   0.00000  Uiso   1.00
H259   H     0.57092   0.54144   0.51331   0.00000  Uiso   1.00
H260   H     0.39813   0.83539   0.66343   0.00000  Uiso   1.00
H261   H     0.59926   0.61550   0.70634   0.00000  Uiso   1.00
H262   H     0.70145   0.65223   0.72593   0.00000  Uiso   1.00
H263   H     0.58945   0.52232   0.66539   0.00000  Uiso   1.00
H264   H     0.50750   0.66172   0.73658   0.00000  Uiso   1.00
H265   H     0.81374   0.70903   0.73361   0.00000  Uiso   1.00
H266   H     0.57756   0.43512   0.60595   0.00000  Uiso   1.00
H267   H     0.40477   0.72907   0.75607   0.00000  Uiso   1.00
O268   O     0.87751   0.78857   0.69822   0.00000  Uiso   1.00
O269   O     0.56765   0.42922   0.53074   0.00000  Uiso   1.00
O270   O     0.34095   0.81487   0.72769   0.00000  Uiso   1.00
N271   N     0.79463   0.78530   0.66009   0.00000  Uiso   1.00
N272   N     0.57383   0.52921   0.54073   0.00000  Uiso   1.00
N273   N     0.41227   0.80401   0.68108   0.00000  Uiso   1.00
N274   N     0.79821   0.72809   0.70994   0.00000  Uiso   1.00
N275   N     0.57741   0.47200   0.59058   0.00000  Uiso   1.00
N276   N     0.41585   0.74680   0.73093   0.00000  Uiso   1.00
C277   C     0.78877   0.09328   0.62293   0.00000  Uiso   1.00
C278   C     0.78233   0.14964   0.64535   0.00000  Uiso   1.00
C279   C     0.74506   0.19504   0.63644   0.00000  Uiso   1.00
C280   C     0.74562   0.24287   0.66052   0.00000  Uiso   1.00
C281   C     0.73008   0.33005   0.69049   0.00000  Uiso   1.00
C282   C     0.85291   0.08880   0.61246   0.00000  Uiso   1.00
C283   C     0.87498   0.08303   0.57588   0.00000  Uiso   1.00
C284   C     0.93496   0.07963   0.57228   0.00000  Uiso   1.00
C285   C     0.02900   0.07231   0.55118   0.00000  Uiso   1.00
C286   C     0.77717   0.04428   0.65114   0.00000  Uiso   1.00
C287   C     0.73556   0.00107   0.64709   0.00000  Uiso   1.00
C288   C     0.73178   0.96018   0.67604   0.00000  Uiso   1.00
C289   C     0.70822   0.88374   0.71500   0.00000  Uiso   1.00
C290   C     0.85604   0.09748   0.68155   0.00000  Uiso   1.00
C291   C     0.81887   0.15192   0.67719   0.00000  Uiso   1.00
C292   C     0.81949   0.19969   0.70130   0.00000  Uiso   1.00
C293   C     0.78222   0.24516   0.69242   0.00000  Uiso   1.00
C294   C     0.88945   0.09108   0.64429   0.00000  Uiso   1.00
C295   C     0.94941   0.08768   0.64074   0.00000  Uiso   1.00
C296   C     0.97157   0.08192   0.60417   0.00000  Uiso   1.00
C297   C     0.81371   0.04656   0.68298   0.00000  Uiso   1.00
C298   C     0.81000   0.00573   0.71194   0.00000  Uiso   1.00
C299   C     0.76839   0.96247   0.70794   0.00000  Uiso   1.00
H300   H     0.76032   0.09150   0.59814   0.00000  Uiso   1.00
H301   H     0.71679   0.19326   0.61179   0.00000  Uiso   1.00
H302   H     0.84669   0.08126   0.55125   0.00000  Uiso   1.00
H303   H     0.70729   0.99932   0.62244   0.00000  Uiso   1.00
H304   H     0.68465   0.30710   0.64097   0.00000  Uiso   1.00
H305   H     0.95856   0.07092   0.51331   0.00000  Uiso   1.00
H306   H     0.66461   0.89813   0.66343   0.00000  Uiso   1.00
H307   H     0.88450   0.09926   0.70634   0.00000  Uiso   1.00
H308   H     0.84777   0.20145   0.72593   0.00000  Uiso   1.00
H309   H     0.97768   0.08945   0.66539   0.00000  Uiso   1.00
H310   H     0.83828   0.00750   0.73658   0.00000  Uiso   1.00
H311   H     0.79097   0.31374   0.73361   0.00000  Uiso   1.00
H312   H     0.06488   0.07756   0.60595   0.00000  Uiso   1.00
H313   H     0.77093   0.90477   0.75607   0.00000  Uiso   1.00
O314   O     0.71143   0.37751   0.69822   0.00000  Uiso   1.00
O315   O     0.07078   0.06765   0.53074   0.00000  Uiso   1.00
O316   O     0.68513   0.84095   0.72769   0.00000  Uiso   1.00
N317   N     0.71470   0.29463   0.66009   0.00000  Uiso   1.00
N318   N     0.97079   0.07383   0.54073   0.00000  Uiso   1.00
N319   N     0.69599   0.91227   0.68108   0.00000  Uiso   1.00
N320   N     0.77191   0.29821   0.70994   0.00000  Uiso   1.00
N321   N     0.02800   0.07741   0.59058   0.00000  Uiso   1.00
N322   N     0.75320   0.91585   0.73093   0.00000  Uiso   1.00
C323   C     0.21123   0.90672   0.62293   0.00000  Uiso   1.00
C324   C     0.21767   0.85036   0.64535   0.00000  Uiso   1.00
C325   C     0.25494   0.80496   0.63644   0.00000  Uiso   1.00
C326   C     0.25438   0.75713   0.66052   0.00000  Uiso   1.00
C327   C     0.26992   0.66995   0.69049   0.00000  Uiso   1.00
C328   C     0.14709   0.91120   0.61246   0.00000  Uiso   1.00
C329   C     0.12502   0.91697   0.57588   0.00000  Uiso   1.00
C330   C     0.06504   0.92037   0.57228   0.00000  Uiso   1.00
C331   C     0.97100   0.92769   0.55118   0.00000  Uiso   1.00
C332   C     0.22283   0.95572   0.65114   0.00000  Uiso   1.00
C333   C     0.26444   0.99893   0.64709   0.00000  Uiso   1.00
C334   C     0.26822   0.03982   0.67604   0.00000  Uiso   1.00
C335   C     0.29178   0.11626   0.71500   0.00000  Uiso   1.00
C336   C     0.14396   0.90252   0.68155   0.00000  Uiso   1.00
C337   C     0.18113   0.84808   0.67719   0.00000  Uiso   1.00
C338   C     0.18051   0.80031   0.70130   0.00000  Uiso   1.00
C339   C     0.21778   0.75484   0.69242   0.00000  Uiso   1.00
C340   C     0.11055   0.90892   0.64429   0.00000  Uiso   1.00
C341   C     0.05059   0.91232   0.64074   0.00000  Uiso   1.00
C342   C     0.02843   0.91808   0.60417   0.00000  Uiso   1.00
C343   C     0.18629   0.95344   0.68298   0.00000  Uiso   1.00
C344   C     0.19000   0.99427   0.71194   0.00000  Uiso   1.00
C345   C     0.23161   0.03753   0.70794   0.00000  Uiso   1.00
H346   H     0.23968   0.90850   0.59814   0.00000  Uiso   1.00
H347   H     0.28321   0.80674   0.61179   0.00000  Uiso   1.00
H348   H     0.15331   0.91874   0.55125   0.00000  Uiso   1.00
H349   H     0.29271   0.00068   0.62244   0.00000  Uiso   1.00
H350   H     0.31535   0.69290   0.64097   0.00000  Uiso   1.00
H351   H     0.04144   0.92908   0.51331   0.00000  Uiso   1.00
H352   H     0.33539   0.10187   0.66343   0.00000  Uiso   1.00
H353   H     0.11550   0.90074   0.70634   0.00000  Uiso   1.00
H354   H     0.15223   0.79855   0.72593   0.00000  Uiso   1.00
H355   H     0.02232   0.91055   0.66539   0.00000  Uiso   1.00
H356   H     0.16172   0.99250   0.73658   0.00000  Uiso   1.00
H357   H     0.20903   0.68626   0.73361   0.00000  Uiso   1.00
H358   H     0.93512   0.92244   0.60595   0.00000  Uiso   1.00
H359   H     0.22907   0.09523   0.75607   0.00000  Uiso   1.00
O360   O     0.28857   0.62249   0.69822   0.00000  Uiso   1.00
O361   O     0.92922   0.93235   0.53074   0.00000  Uiso   1.00
O362   O     0.31487   0.15905   0.72769   0.00000  Uiso   1.00
N363   N     0.28530   0.70537   0.66009   0.00000  Uiso   1.00
N364   N     0.02921   0.92617   0.54073   0.00000  Uiso   1.00
N365   N     0.30401   0.08773   0.68108   0.00000  Uiso   1.00
N366   N     0.22809   0.70179   0.70994   0.00000  Uiso   1.00
N367   N     0.97200   0.92259   0.59058   0.00000  Uiso   1.00
N368   N     0.24680   0.08415   0.73093   0.00000  Uiso   1.00
C369   C     0.40672   0.71123   0.12293   0.00000  Uiso   1.00
C370   C     0.35036   0.71767   0.14535   0.00000  Uiso   1.00
C371   C     0.30496   0.75494   0.13644   0.00000  Uiso   1.00
C372   C     0.25713   0.75438   0.16052   0.00000  Uiso   1.00
C373   C     0.16995   0.76992   0.19049   0.00000  Uiso   1.00
C374   C     0.41120   0.64709   0.11246   0.00000  Uiso   1.00
C375   C     0.41697   0.62502   0.07588   0.00000  Uiso   1.00
C376   C     0.42037   0.56504   0.07228   0.00000  Uiso   1.00
C377   C     0.42769   0.47100   0.05118   0.00000  Uiso   1.00
C378   C     0.45572   0.72283   0.15114   0.00000  Uiso   1.00
C379   C     0.49893   0.76444   0.14709   0.00000  Uiso   1.00
C380   C     0.53982   0.76822   0.17604   0.00000  Uiso   1.00
C381   C     0.61626   0.79178   0.21500   0.00000  Uiso   1.00
C382   C     0.40252   0.64396   0.18155   0.00000  Uiso   1.00
C383   C     0.34808   0.68113   0.17719   0.00000  Uiso   1.00
C384   C     0.30031   0.68051   0.20130   0.00000  Uiso   1.00
C385   C     0.25484   0.71778   0.19242   0.00000  Uiso   1.00
C386   C     0.40892   0.61055   0.14429   0.00000  Uiso   1.00
C387   C     0.41232   0.55059   0.14074   0.00000  Uiso   1.00
C388   C     0.41808   0.52843   0.10417   0.00000  Uiso   1.00
C389   C     0.45344   0.68629   0.18298   0.00000  Uiso   1.00
C390   C     0.49427   0.69000   0.21194   0.00000  Uiso   1.00
C391   C     0.53753   0.73161   0.20794   0.00000  Uiso   1.00
H392   H     0.40850   0.73968   0.09814   0.00000  Uiso   1.00
H393   H     0.30674   0.78321   0.11179   0.00000  Uiso   1.00
H394   H     0.41874   0.65331   0.05125   0.00000  Uiso   1.00
H395   H     0.50068   0.79271   0.12244   0.00000  Uiso   1.00
H396   H     0.19290   0.81535   0.14097   0.00000  Uiso   1.00
H397   H     0.42908   0.54144   0.01331   0.00000  Uiso   1.00
H398   H     0.60187   0.83539   0.16343   0.00000  Uiso   1.00
H399   H     0.40074   0.61550   0.20634   0.00000  Uiso   1.00
H400   H     0.29855   0.65223   0.22593   0.00000  Uiso   1.00
H401   H     0.41055   0.52232   0.16539   0.00000  Uiso   1.00
H402   H     0.49250   0.66172   0.23658   0.00000  Uiso   1.00
H403   H     0.18626   0.70903   0.23361   0.00000  Uiso   1.00
H404   H     0.42244   0.43512   0.10595   0.00000  Uiso   1.00
H405   H     0.59523   0.72907   0.25607   0.00000  Uiso   1.00
O406   O     0.12249   0.78857   0.19822   0.00000  Uiso   1.00
O407   O     0.43235   0.42922   0.03074   0.00000  Uiso   1.00
O408   O     0.65905   0.81487   0.22769   0.00000  Uiso   1.00
N409   N     0.20537   0.78530   0.16009   0.00000  Uiso   1.00
N410   N     0.42617   0.52921   0.04073   0.00000  Uiso   1.00
N411   N     0.58773   0.80401   0.18108   0.00000  Uiso   1.00
N412   N     0.20179   0.72809   0.20994   0.00000  Uiso   1.00
N413   N     0.42259   0.47200   0.09058   0.00000  Uiso   1.00
N414   N     0.58415   0.74680   0.23093   0.00000  Uiso   1.00
C415   C     0.59328   0.28877   0.12293   0.00000  Uiso   1.00
C416   C     0.64964   0.28233   0.14535   0.00000  Uiso   1.00
C417   C     0.69504   0.24506   0.13644   0.00000  Uiso   1.00
C418   C     0.74287   0.24562   0.16052   0.00000  Uiso   1.00
C419   C     0.83005   0.23008   0.19049   0.00000  Uiso   1.00
C420   C     0.58880   0.35291   0.11246   0.00000  Uiso   1.00
C421   C     0.58303   0.37498   0.07588   0.00000  Uiso   1.00
C422   C     0.57963   0.43496   0.07228   0.00000  Uiso   1.00
C423   C     0.57231   0.52900   0.05118   0.00000  Uiso   1.00
C424   C     0.54428   0.27717   0.15114   0.00000  Uiso   1.00
C425   C     0.50107   0.23556   0.14709   0.00000  Uiso   1.00
C426   C     0.46018   0.23178   0.17604   0.00000  Uiso   1.00
C427   C     0.38374   0.20822   0.21500   0.00000  Uiso   1.00
C428   C     0.59748   0.35604   0.18155   0.00000  Uiso   1.00
C429   C     0.65192   0.31887   0.17719   0.00000  Uiso   1.00
C430   C     0.69969   0.31949   0.20130   0.00000  Uiso   1.00
C431   C     0.74516   0.28222   0.19242   0.00000  Uiso   1.00
C432   C     0.59108   0.38945   0.14429   0.00000  Uiso   1.00
C433   C     0.58768   0.44941   0.14074   0.00000  Uiso   1.00
C434   C     0.58192   0.47157   0.10417   0.00000  Uiso   1.00
C435   C     0.54656   0.31371   0.18298   0.00000  Uiso   1.00
C436   C     0.50573   0.31000   0.21194   0.00000  Uiso   1.00
C437   C     0.46247   0.26839   0.20794   0.00000  Uiso   1.00
H438   H     0.59150   0.26032   0.09814   0.00000  Uiso   1.00
H439   H     0.69326   0.21679   0.11179   0.00000  Uiso   1.00
H440   H     0.58126   0.34669   0.05125   0.00000  Uiso   1.00
H441   H     0.49932   0.20729   0.12244   0.00000  Uiso   1.00
H442   H     0.80710   0.18465   0.14097   0.00000  Uiso   1.00
H443   H     0.57092   0.45856   0.01331   0.00000  Uiso   1.00
H444   H     0.39813   0.16461   0.16343   0.00000  Uiso   1.00
H445   H     0.59926   0.38450   0.20634   0.00000  Uiso   1.00
H446   H     0.70145   0.34777   0.22593   0.00000  Uiso   1.00
H447   H     0.58945   0.47768   0.16539   0.00000  Uiso   1.00
H448   H     0.50750   0.33828   0.23658   0.00000  Uiso   1.00
H449   H     0.81374   0.29097   0.23361   0.00000  Uiso   1.00
H450   H     0.57756   0.56488   0.10595   0.00000  Uiso   1.00
H451   H     0.40477   0.27093   0.25607   0.00000  Uiso   1.00
O452   O     0.87751   0.21143   0.19822   0.00000  Uiso   1.00
O453   O     0.56765   0.57078   0.03074   0.00000  Uiso   1.00
O454   O     0.34095   0.18513   0.22769   0.00000  Uiso   1.00
N455   N     0.79463   0.21470   0.16009   0.00000  Uiso   1.00
N456   N     0.57383   0.47079   0.04073   0.00000  Uiso   1.00
N457   N     0.41227   0.19599   0.18108   0.00000  Uiso   1.00
N458   N     0.79821   0.27191   0.20994   0.00000  Uiso   1.00
N459   N     0.57741   0.52800   0.09058   0.00000  Uiso   1.00
N460   N     0.41585   0.25320   0.23093   0.00000  Uiso   1.00
C461   C     0.78877   0.90672   0.12293   0.00000  Uiso   1.00
C462   C     0.78233   0.85036   0.14535   0.00000  Uiso   1.00
C463   C     0.74506   0.80496   0.13644   0.00000  Uiso   1.00
C464   C     0.74562   0.75713   0.16052   0.00000  Uiso   1.00
C465   C     0.73008   0.66995   0.19049   0.00000  Uiso   1.00
C466   C     0.85291   0.91120   0.11246   0.00000  Uiso   1.00
C467   C     0.87498   0.91697   0.07588   0.00000  Uiso   1.00
C468   C     0.93496   0.92037   0.07228   0.00000  Uiso   1.00
C469   C     0.02900   0.92769   0.05118   0.00000  Uiso   1.00
C470   C     0.77717   0.95572   0.15114   0.00000  Uiso   1.00
C471   C     0.73556   0.99893   0.14709   0.00000  Uiso   1.00
C472   C     0.73178   0.03982   0.17604   0.00000  Uiso   1.00
C473   C     0.70822   0.11626   0.21500   0.00000  Uiso   1.00
C474   C     0.85604   0.90252   0.18155   0.00000  Uiso   1.00
C475   C     0.81887   0.84808   0.17719   0.00000  Uiso   1.00
C476   C     0.81949   0.80031   0.20130   0.00000  Uiso   1.00
C477   C     0.78222   0.75484   0.19242   0.00000  Uiso   1.00
C478   C     0.88945   0.90892   0.14429   0.00000  Uiso   1.00
C479   C     0.94941   0.91232   0.14074   0.00000  Uiso   1.00
C480   C     0.97157   0.91808   0.10417   0.00000  Uiso   1.00
C481   C     0.81371   0.95344   0.18298   0.00000  Uiso   1.00
C482   C     0.81000   0.99427   0.21194   0.00000  Uiso   1.00
C483   C     0.76839   0.03753   0.20794   0.00000  Uiso   1.00
H484   H     0.76032   0.90850   0.09814   0.00000  Uiso   1.00
H485   H     0.71679   0.80674   0.11179   0.00000  Uiso   1.00
H486   H     0.84669   0.91874   0.05125   0.00000  Uiso   1.00
H487   H     0.70729   0.00068   0.12244   0.00000  Uiso   1.00
H488   H     0.68465   0.69290   0.14097   0.00000  Uiso   1.00
H489   H     0.95856   0.92908   0.01331   0.00000  Uiso   1.00
H490   H     0.66461   0.10187   0.16343   0.00000  Uiso   1.00
H491   H     0.88450   0.90074   0.20634   0.00000  Uiso   1.00
H492   H     0.84777   0.79855   0.22593   0.00000  Uiso   1.00
H493   H     0.97768   0.91055   0.16539   0.00000  Uiso   1.00
H494   H     0.83828   0.99250   0.23658   0.00000  Uiso   1.00
H495   H     0.79097   0.68626   0.23361   0.00000  Uiso   1.00
H496   H     0.06488   0.92244   0.10595   0.00000  Uiso   1.00
H497   H     0.77093   0.09523   0.25607   0.00000  Uiso   1.00
O498   O     0.71143   0.62249   0.19822   0.00000  Uiso   1.00
O499   O     0.07078   0.93235   0.03074   0.00000  Uiso   1.00
O500   O     0.68513   0.15905   0.22769   0.00000  Uiso   1.00
N501   N     0.71470   0.70537   0.16009   0.00000  Uiso   1.00
N502   N     0.97079   0.92617   0.04073   0.00000  Uiso   1.00
N503   N     0.69599   0.08773   0.18108   0.00000  Uiso   1.00
N504   N     0.77191   0.70179   0.20994   0.00000  Uiso   1.00
N505   N     0.02800   0.92259   0.09058   0.00000  Uiso   1.00
N506   N     0.75320   0.08415   0.23093   0.00000  Uiso   1.00
C507   C     0.21123   0.09328   0.12293   0.00000  Uiso   1.00
C508   C     0.21767   0.14964   0.14535   0.00000  Uiso   1.00
C509   C     0.25494   0.19504   0.13644   0.00000  Uiso   1.00
C510   C     0.25438   0.24287   0.16052   0.00000  Uiso   1.00
C511   C     0.26992   0.33005   0.19049   0.00000  Uiso   1.00
C512   C     0.14709   0.08880   0.11246   0.00000  Uiso   1.00
C513   C     0.12502   0.08303   0.07588   0.00000  Uiso   1.00
C514   C     0.06504   0.07963   0.07228   0.00000  Uiso   1.00
C515   C     0.97100   0.07231   0.05118   0.00000  Uiso   1.00
C516   C     0.22283   0.04428   0.15114   0.00000  Uiso   1.00
C517   C     0.26444   0.00107   0.14709   0.00000  Uiso   1.00
C518   C     0.26822   0.96018   0.17604   0.00000  Uiso   1.00
C519   C     0.29178   0.88374   0.21500   0.00000  Uiso   1.00
C520   C     0.14396   0.09748   0.18155   0.00000  Uiso   1.00
C521   C     0.18113   0.15192   0.17719   0.00000  Uiso   1.00
C522   C     0.18051   0.19969   0.20130   0.00000  Uiso   1.00
C523   C     0.21778   0.24516   0.19242   0.00000  Uiso   1.00
C524   C     0.11055   0.09108   0.14429   0.00000  Uiso   1.00
C525   C     0.05059   0.08768   0.14074   0.00000  Uiso   1.00
C526   C     0.02843   0.08192   0.10417   0.00000  Uiso   1.00
C527   C     0.18629   0.04656   0.18298   0.00000  Uiso   1.00
C528   C     0.19000   0.00573   0.21194   0.00000  Uiso   1.00
C529   C     0.23161   0.96247   0.20794   0.00000  Uiso   1.00
H530   H     0.23968   0.09150   0.09814   0.00000  Uiso   1.00
H531   H     0.28321   0.19326   0.11179   0.00000  Uiso   1.00
H532   H     0.15331   0.08126   0.05125   0.00000  Uiso   1.00
H533   H     0.29271   0.99932   0.12244   0.00000  Uiso   1.00
H534   H     0.31535   0.30710   0.14097   0.00000  Uiso   1.00
H535   H     0.04144   0.07092   0.01331   0.00000  Uiso   1.00
H536   H     0.33539   0.89813   0.16343   0.00000  Uiso   1.00
H537   H     0.11550   0.09926   0.20634   0.00000  Uiso   1.00
H538   H     0.15223   0.20145   0.22593   0.00000  Uiso   1.00
H539   H     0.02232   0.08945   0.16539   0.00000  Uiso   1.00
H540   H     0.16172   0.00750   0.23658   0.00000  Uiso   1.00
H541   H     0.20903   0.31374   0.23361   0.00000  Uiso   1.00
H542   H     0.93512   0.07756   0.10595   0.00000  Uiso   1.00
H543   H     0.22907   0.90477   0.25607   0.00000  Uiso   1.00
O544   O     0.28857   0.37751   0.19822   0.00000  Uiso   1.00
O545   O     0.92922   0.06765   0.03074   0.00000  Uiso   1.00
O546   O     0.31487   0.84095   0.22769   0.00000  Uiso   1.00
N547   N     0.28530   0.29463   0.16009   0.00000  Uiso   1.00
N548   N     0.02921   0.07383   0.04073   0.00000  Uiso   1.00
N549   N     0.30401   0.91227   0.18108   0.00000  Uiso   1.00
N550   N     0.22809   0.29821   0.20994   0.00000  Uiso   1.00
N551   N     0.97200   0.07741   0.09058   0.00000  Uiso   1.00
N552   N     0.24680   0.91585   0.23093   0.00000  Uiso   1.00
C553   C     0.09328   0.21123   0.37707   0.00000  Uiso   1.00
C554   C     0.14964   0.21767   0.35465   0.00000  Uiso   1.00
C555   C     0.19504   0.25494   0.36356   0.00000  Uiso   1.00
C556   C     0.24287   0.25438   0.33948   0.00000  Uiso   1.00
C557   C     0.33005   0.26992   0.30951   0.00000  Uiso   1.00
C558   C     0.08880   0.14709   0.38754   0.00000  Uiso   1.00
C559   C     0.08303   0.12502   0.42412   0.00000  Uiso   1.00
C560   C     0.07963   0.06504   0.42772   0.00000  Uiso   1.00
C561   C     0.07231   0.97100   0.44882   0.00000  Uiso   1.00
C562   C     0.04428   0.22283   0.34886   0.00000  Uiso   1.00
C563   C     0.00107   0.26444   0.35291   0.00000  Uiso   1.00
C564   C     0.96018   0.26822   0.32396   0.00000  Uiso   1.00
C565   C     0.88374   0.29178   0.28500   0.00000  Uiso   1.00
C566   C     0.09748   0.14396   0.31845   0.00000  Uiso   1.00
C567   C     0.15192   0.18113   0.32281   0.00000  Uiso   1.00
C568   C     0.19969   0.18051   0.29870   0.00000  Uiso   1.00
C569   C     0.24516   0.21778   0.30758   0.00000  Uiso   1.00
C570   C     0.09108   0.11055   0.35571   0.00000  Uiso   1.00
C571   C     0.08768   0.05059   0.35926   0.00000  Uiso   1.00
C572   C     0.08192   0.02843   0.39583   0.00000  Uiso   1.00
C573   C     0.04656   0.18629   0.31702   0.00000  Uiso   1.00
C574   C     0.00573   0.19000   0.28806   0.00000  Uiso   1.00
C575   C     0.96247   0.23161   0.29206   0.00000  Uiso   1.00
H576   H     0.09150   0.23968   0.40186   0.00000  Uiso   1.00
H577   H     0.19326   0.28321   0.38821   0.00000  Uiso   1.00
H578   H     0.08126   0.15331   0.44875   0.00000  Uiso   1.00
H579   H     0.99932   0.29271   0.37756   0.00000  Uiso   1.00
H580   H     0.30710   0.31535   0.35903   0.00000  Uiso   1.00
H581   H     0.07092   0.04144   0.48669   0.00000  Uiso   1.00
H582   H     0.89813   0.33539   0.33657   0.00000  Uiso   1.00
H583   H     0.09926   0.11550   0.29366   0.00000  Uiso   1.00
H584   H     0.20145   0.15223   0.27407   0.00000  Uiso   1.00
H585   H     0.08945   0.02232   0.33461   0.00000  Uiso   1.00
H586   H     0.00750   0.16172   0.26342   0.00000  Uiso   1.00
H587   H     0.31374   0.20903   0.26639   0.00000  Uiso   1.00
H588   H     0.07756   0.93512   0.39405   0.00000  Uiso   1.00
H589   H     0.90477   0.22907   0.24393   0.00000  Uiso   1.00
O590   O     0.37751   0.28857   0.30178   0.00000  Uiso   1.00
O591   O     0.06765   0.92922   0.46926   0.00000  Uiso   1.00
O592   O     0.84095   0.31487   0.27231   0.00000  Uiso   1.00
N593   N     0.29463   0.28530   0.33991   0.00000  Uiso   1.00
N594   N     0.07383   0.02921   0.45927   0.00000  Uiso   1.00
N595   N     0.91227   0.30401   0.31892   0.00000  Uiso   1.00
N596   N     0.29821   0.22809   0.29006   0.00000  Uiso   1.00
N597   N     0.07741   0.97200   0.40942   0.00000  Uiso   1.00
N598   N     0.91585   0.24680   0.26907   0.00000  Uiso   1.00
C599   C     0.90672   0.78877   0.37707   0.00000  Uiso   1.00
C600   C     0.85036   0.78233   0.35465   0.00000  Uiso   1.00
C601   C     0.80496   0.74506   0.36356   0.00000  Uiso   1.00
C602   C     0.75713   0.74562   0.33948   0.00000  Uiso   1.00
C603   C     0.66995   0.73008   0.30951   0.00000  Uiso   1.00
C604   C     0.91120   0.85291   0.38754   0.00000  Uiso   1.00
C605   C     0.91697   0.87498   0.42412   0.00000  Uiso   1.00
C606   C     0.92037   0.93496   0.42772   0.00000  Uiso   1.00
C607   C     0.92769   0.02900   0.44882   0.00000  Uiso   1.00
C608   C     0.95572   0.77717   0.34886   0.00000  Uiso   1.00
C609   C     0.99893   0.73556   0.35291   0.00000  Uiso   1.00
C610   C     0.03982   0.73178   0.32396   0.00000  Uiso   1.00
C611   C     0.11626   0.70822   0.28500   0.00000  Uiso   1.00
C612   C     0.90252   0.85604   0.31845   0.00000  Uiso   1.00
C613   C     0.84808   0.81887   0.32281   0.00000  Uiso   1.00
C614   C     0.80031   0.81949   0.29870   0.00000  Uiso   1.00
C615   C     0.75484   0.78222   0.30758   0.00000  Uiso   1.00
C616   C     0.90892   0.88945   0.35571   0.00000  Uiso   1.00
C617   C     0.91232   0.94941   0.35926   0.00000  Uiso   1.00
C618   C     0.91808   0.97157   0.39583   0.00000  Uiso   1.00
C619   C     0.95344   0.81371   0.31702   0.00000  Uiso   1.00
C620   C     0.99427   0.81000   0.28806   0.00000  Uiso   1.00
C621   C     0.03753   0.76839   0.29206   0.00000  Uiso   1.00
H622   H     0.90850   0.76032   0.40186   0.00000  Uiso   1.00
H623   H     0.80674   0.71679   0.38821   0.00000  Uiso   1.00
H624   H     0.91874   0.84669   0.44875   0.00000  Uiso   1.00
H625   H     0.00068   0.70729   0.37756   0.00000  Uiso   1.00
H626   H     0.69290   0.68465   0.35903   0.00000  Uiso   1.00
H627   H     0.92908   0.95856   0.48669   0.00000  Uiso   1.00
H628   H     0.10187   0.66461   0.33657   0.00000  Uiso   1.00
H629   H     0.90074   0.88450   0.29366   0.00000  Uiso   1.00
H630   H     0.79855   0.84777   0.27407   0.00000  Uiso   1.00
H631   H     0.91055   0.97768   0.33461   0.00000  Uiso   1.00
H632   H     0.99250   0.83828   0.26342   0.00000  Uiso   1.00
H633   H     0.68626   0.79097   0.26639   0.00000  Uiso   1.00
H634   H     0.92244   0.06488   0.39405   0.00000  Uiso   1.00
H635   H     0.09523   0.77093   0.24393   0.00000  Uiso   1.00
O636   O     0.62249   0.71143   0.30178   0.00000  Uiso   1.00
O637   O     0.93235   0.07078   0.46926   0.00000  Uiso   1.00
O638   O     0.15905   0.68513   0.27231   0.00000  Uiso   1.00
N639   N     0.70537   0.71470   0.33991   0.00000  Uiso   1.00
N640   N     0.92617   0.97079   0.45927   0.00000  Uiso   1.00
N641   N     0.08773   0.69599   0.31892   0.00000  Uiso   1.00
N642   N     0.70179   0.77191   0.29006   0.00000  Uiso   1.00
N643   N     0.92259   0.02800   0.40942   0.00000  Uiso   1.00
N644   N     0.08415   0.75320   0.26907   0.00000  Uiso   1.00
C645   C     0.71123   0.40672   0.37707   0.00000  Uiso   1.00
C646   C     0.71767   0.35036   0.35465   0.00000  Uiso   1.00
C647   C     0.75494   0.30496   0.36356   0.00000  Uiso   1.00
C648   C     0.75438   0.25713   0.33948   0.00000  Uiso   1.00
C649   C     0.76992   0.16995   0.30951   0.00000  Uiso   1.00
C650   C     0.64709   0.41120   0.38754   0.00000  Uiso   1.00
C651   C     0.62502   0.41697   0.42412   0.00000  Uiso   1.00
C652   C     0.56504   0.42037   0.42772   0.00000  Uiso   1.00
C653   C     0.47100   0.42769   0.44882   0.00000  Uiso   1.00
C654   C     0.72283   0.45572   0.34886   0.00000  Uiso   1.00
C655   C     0.76444   0.49893   0.35291   0.00000  Uiso   1.00
C656   C     0.76822   0.53982   0.32396   0.00000  Uiso   1.00
C657   C     0.79178   0.61626   0.28500   0.00000  Uiso   1.00
C658   C     0.64396   0.40252   0.31845   0.00000  Uiso   1.00
C659   C     0.68113   0.34808   0.32281   0.00000  Uiso   1.00
C660   C     0.68051   0.30031   0.29870   0.00000  Uiso   1.00
C661   C     0.71778   0.25484   0.30758   0.00000  Uiso   1.00
C662   C     0.61055   0.40892   0.35571   0.00000  Uiso   1.00
C663   C     0.55059   0.41232   0.35926   0.00000  Uiso   1.00
C664   C     0.52843   0.41808   0.39583   0.00000  Uiso   1.00
C665   C     0.68629   0.45344   0.31702   0.00000  Uiso   1.00
C666   C     0.69000   0.49427   0.28806   0.00000  Uiso   1.00
C667   C     0.73161   0.53753   0.29206   0.00000  Uiso   1.00
H668   H     0.73968   0.40850   0.40186   0.00000  Uiso   1.00
H669   H     0.78321   0.30674   0.38821   0.00000  Uiso   1.00
H670   H     0.65331   0.41874   0.44875   0.00000  Uiso   1.00
H671   H     0.79271   0.50068   0.37756   0.00000  Uiso   1.00
H672   H     0.81535   0.19290   0.35903   0.00000  Uiso   1.00
H673   H     0.54144   0.42908   0.48669   0.00000  Uiso   1.00
H674   H     0.83539   0.60187   0.33657   0.00000  Uiso   1.00
H675   H     0.61550   0.40074   0.29366   0.00000  Uiso   1.00
H676   H     0.65223   0.29855   0.27407   0.00000  Uiso   1.00
H677   H     0.52232   0.41055   0.33461   0.00000  Uiso   1.00
H678   H     0.66172   0.49250   0.26342   0.00000  Uiso   1.00
H679   H     0.70903   0.18626   0.26639   0.00000  Uiso   1.00
H680   H     0.43512   0.42244   0.39405   0.00000  Uiso   1.00
H681   H     0.72907   0.59523   0.24393   0.00000  Uiso   1.00
O682   O     0.78857   0.12249   0.30178   0.00000  Uiso   1.00
O683   O     0.42922   0.43235   0.46926   0.00000  Uiso   1.00
O684   O     0.81487   0.65905   0.27231   0.00000  Uiso   1.00
N685   N     0.78530   0.20537   0.33991   0.00000  Uiso   1.00
N686   N     0.52921   0.42617   0.45927   0.00000  Uiso   1.00
N687   N     0.80401   0.58773   0.31892   0.00000  Uiso   1.00
N688   N     0.72809   0.20179   0.29006   0.00000  Uiso   1.00
N689   N     0.47200   0.42259   0.40942   0.00000  Uiso   1.00
N690   N     0.74680   0.58415   0.26907   0.00000  Uiso   1.00
C691   C     0.28877   0.59328   0.37707   0.00000  Uiso   1.00
C692   C     0.28233   0.64964   0.35465   0.00000  Uiso   1.00
C693   C     0.24506   0.69504   0.36356   0.00000  Uiso   1.00
C694   C     0.24562   0.74287   0.33948   0.00000  Uiso   1.00
C695   C     0.23008   0.83005   0.30951   0.00000  Uiso   1.00
C696   C     0.35291   0.58880   0.38754   0.00000  Uiso   1.00
C697   C     0.37498   0.58303   0.42412   0.00000  Uiso   1.00
C698   C     0.43496   0.57963   0.42772   0.00000  Uiso   1.00
C699   C     0.52900   0.57231   0.44882   0.00000  Uiso   1.00
C700   C     0.27717   0.54428   0.34886   0.00000  Uiso   1.00
C701   C     0.23556   0.50107   0.35291   0.00000  Uiso   1.00
C702   C     0.23178   0.46018   0.32396   0.00000  Uiso   1.00
C703   C     0.20822   0.38374   0.28500   0.00000  Uiso   1.00
C704   C     0.35604   0.59748   0.31845   0.00000  Uiso   1.00
C705   C     0.31887   0.65192   0.32281   0.00000  Uiso   1.00
C706   C     0.31949   0.69969   0.29870   0.00000  Uiso   1.00
C707   C     0.28222   0.74516   0.30758   0.00000  Uiso   1.00
C708   C     0.38945   0.59108   0.35571   0.00000  Uiso   1.00
C709   C     0.44941   0.58768   0.35926   0.00000  Uiso   1.00
C710   C     0.47157   0.58192   0.39583   0.00000  Uiso   1.00
C711   C     0.31371   0.54656   0.31702   0.00000  Uiso   1.00
C712   C     0.31000   0.50573   0.28806   0.00000  Uiso   1.00
C713   C     0.26839   0.46247   0.29206   0.00000  Uiso   1.00
H714   H     0.26032   0.59150   0.40186   0.00000  Uiso   1.00
H715   H     0.21679   0.69326   0.38821   0.00000  Uiso   1.00
H716   H     0.34669   0.58126   0.44875   0.00000  Uiso   1.00
H717   H     0.20729   0.49932   0.37756   0.00000  Uiso   1.00
H718   H     0.18465   0.80710   0.35903   0.00000  Uiso   1.00
H719   H     0.45856   0.57092   0.48669   0.00000  Uiso   1.00
H720   H     0.16461   0.39813   0.33657   0.00000  Uiso   1.00
H721   H     0.38450   0.59926   0.29366   0.00000  Uiso   1.00
H722   H     0.34777   0.70145   0.27407   0.00000  Uiso   1.00
H723   H     0.47768   0.58945   0.33461   0.00000  Uiso   1.00
H724   H     0.33828   0.50750   0.26342   0.00000  Uiso   1.00
H725   H     0.29097   0.81374   0.26639   0.00000  Uiso   1.00
H726   H     0.56488   0.57756   0.39405   0.00000  Uiso   1.00
H727   H     0.27093   0.40477   0.24393   0.00000  Uiso   1.00
O728   O     0.21143   0.87751   0.30178   0.00000  Uiso   1.00
O729   O     0.57078   0.56765   0.46926   0.00000  Uiso   1.00
O730   O     0.18513   0.34095   0.27231   0.00000  Uiso   1.00
N731   N     0.21470   0.79463   0.33991   0.00000  Uiso   1.00
N732   N     0.47079   0.57383   0.45927   0.00000  Uiso   1.00
N733   N     0.19599   0.41227   0.31892   0.00000  Uiso   1.00
N734   N     0.27191   0.79821   0.29006   0.00000  Uiso   1.00
N735   N     0.52800   0.57741   0.40942   0.00000  Uiso   1.00
N736   N     0.25320   0.41585   0.26907   0.00000  Uiso   1.00
