data_job_01754
_audit_creation_date              2018-12-19
_audit_creation_method            'Materials Studio'
_symmetry_space_group_name_H-M    'P1'
_symmetry_Int_Tables_number       1
_symmetry_cell_setting            triclinic
loop_
_symmetry_equiv_pos_as_xyz
  x,y,z
_cell_length_a                    50.9472
_cell_length_b                    15.1092
_cell_length_c                    12.4260
_cell_angle_alpha                 90.0000
_cell_angle_beta                  90.0000
_cell_angle_gamma                 90.0000
loop_
_atom_site_label
_atom_site_type_symbol
_atom_site_fract_x
_atom_site_fract_y
_atom_site_fract_z
_atom_site_U_iso_or_equiv
_atom_site_adp_type
_atom_site_occupancy
C1     C     0.79914   0.19286   0.61888   0.00000  Uiso   1.00
C2     C     0.82090   0.16794   0.69752   0.00000  Uiso   1.00
C3     C     0.82703   0.21271   0.79174   0.00000  Uiso   1.00
C4     C     0.84763   0.17942   0.85267   0.00000  Uiso   1.00
C5     C     0.87930   0.15222   0.97967   0.00000  Uiso   1.00
C6     C     0.81239   0.20436   0.50973   0.00000  Uiso   1.00
C7     C     0.81138   0.27974   0.44606   0.00000  Uiso   1.00
C8     C     0.82482   0.27710   0.34890   0.00000  Uiso   1.00
C9     C     0.84327   0.30641   0.18431   0.00000  Uiso   1.00
C10    C     0.78172   0.11121   0.60871   0.00000  Uiso   1.00
C11    C     0.75492   0.10828   0.62823   0.00000  Uiso   1.00
C12    C     0.74253   0.02721   0.61438   0.00000  Uiso   1.00
C13    C     0.71336   0.91190   0.60347   0.00000  Uiso   1.00
C14    C     0.82481   0.05412   0.55956   0.00000  Uiso   1.00
C15    C     0.83484   0.09259   0.66530   0.00000  Uiso   1.00
C16    C     0.85543   0.05922   0.72611   0.00000  Uiso   1.00
C17    C     0.86160   0.10393   0.82040   0.00000  Uiso   1.00
C18    C     0.82634   0.12901   0.47751   0.00000  Uiso   1.00
C19    C     0.83978   0.12625   0.38043   0.00000  Uiso   1.00
C20    C     0.83878   0.20161   0.31662   0.00000  Uiso   1.00
C21    C     0.79567   0.03585   0.57649   0.00000  Uiso   1.00
C22    C     0.78332   0.95478   0.56260   0.00000  Uiso   1.00
C23    C     0.75650   0.95173   0.58210   0.00000  Uiso   1.00
H24    H     0.78829   0.25153   0.64395   0.00000  Uiso   1.00
H25    H     0.81624   0.27103   0.81664   0.00000  Uiso   1.00
H26    H     0.80058   0.33804   0.47101   0.00000  Uiso   1.00
H27    H     0.74413   0.16660   0.65316   0.00000  Uiso   1.00
H28    H     0.85339   0.25944   0.99387   0.00000  Uiso   1.00
H29    H     0.82037   0.40073   0.26506   0.00000  Uiso   1.00
H30    H     0.70133   0.03922   0.64916   0.00000  Uiso   1.00
H31    H     0.83567   0.99545   0.53447   0.00000  Uiso   1.00
H32    H     0.86622   0.00090   0.70115   0.00000  Uiso   1.00
H33    H     0.85057   0.06792   0.35552   0.00000  Uiso   1.00
H34    H     0.79411   0.89648   0.53767   0.00000  Uiso   1.00
H35    H     0.89395   0.04020   0.90013   0.00000  Uiso   1.00
H36    H     0.86094   0.18149   0.17132   0.00000  Uiso   1.00
H37    H     0.74190   0.81998   0.55542   0.00000  Uiso   1.00
O38    O     0.89292   0.15804   0.05861   0.00000  Uiso   1.00
O39    O     0.84960   0.34341   0.10244   0.00000  Uiso   1.00
O40    O     0.69342   0.86911   0.60637   0.00000  Uiso   1.00
N41    N     0.85874   0.20708   0.94894   0.00000  Uiso   1.00
N42    N     0.82787   0.33919   0.26756   0.00000  Uiso   1.00
N43    N     0.71658   0.00121   0.62663   0.00000  Uiso   1.00
N44    N     0.88057   0.08911   0.89850   0.00000  Uiso   1.00
N45    N     0.84970   0.22122   0.21712   0.00000  Uiso   1.00
N46    N     0.73841   0.88324   0.57619   0.00000  Uiso   1.00
C47    C     0.79914   0.69286   0.11888   0.00000  Uiso   1.00
C48    C     0.82090   0.66794   0.19752   0.00000  Uiso   1.00
C49    C     0.82703   0.71271   0.29174   0.00000  Uiso   1.00
C50    C     0.84763   0.67942   0.35267   0.00000  Uiso   1.00
C51    C     0.87930   0.65222   0.47967   0.00000  Uiso   1.00
C52    C     0.81239   0.70436   0.00973   0.00000  Uiso   1.00
C53    C     0.81138   0.77974   0.94606   0.00000  Uiso   1.00
C54    C     0.82482   0.77710   0.84890   0.00000  Uiso   1.00
C55    C     0.84327   0.80641   0.68431   0.00000  Uiso   1.00
C56    C     0.78172   0.61121   0.10871   0.00000  Uiso   1.00
C57    C     0.75492   0.60828   0.12823   0.00000  Uiso   1.00
C58    C     0.74253   0.52721   0.11438   0.00000  Uiso   1.00
C59    C     0.71336   0.41190   0.10347   0.00000  Uiso   1.00
C60    C     0.82481   0.55412   0.05956   0.00000  Uiso   1.00
C61    C     0.83484   0.59259   0.16530   0.00000  Uiso   1.00
C62    C     0.85543   0.55922   0.22611   0.00000  Uiso   1.00
C63    C     0.86160   0.60393   0.32040   0.00000  Uiso   1.00
C64    C     0.82634   0.62901   0.97751   0.00000  Uiso   1.00
C65    C     0.83978   0.62625   0.88043   0.00000  Uiso   1.00
C66    C     0.83878   0.70161   0.81662   0.00000  Uiso   1.00
C67    C     0.79567   0.53585   0.07649   0.00000  Uiso   1.00
C68    C     0.78332   0.45478   0.06260   0.00000  Uiso   1.00
C69    C     0.75650   0.45173   0.08210   0.00000  Uiso   1.00
H70    H     0.78829   0.75153   0.14395   0.00000  Uiso   1.00
H71    H     0.81624   0.77103   0.31664   0.00000  Uiso   1.00
H72    H     0.80058   0.83804   0.97101   0.00000  Uiso   1.00
H73    H     0.74413   0.66660   0.15316   0.00000  Uiso   1.00
H74    H     0.85339   0.75944   0.49387   0.00000  Uiso   1.00
H75    H     0.82037   0.90073   0.76506   0.00000  Uiso   1.00
H76    H     0.70133   0.53922   0.14916   0.00000  Uiso   1.00
H77    H     0.83567   0.49545   0.03447   0.00000  Uiso   1.00
H78    H     0.86622   0.50090   0.20115   0.00000  Uiso   1.00
H79    H     0.85057   0.56792   0.85552   0.00000  Uiso   1.00
H80    H     0.79411   0.39648   0.03767   0.00000  Uiso   1.00
H81    H     0.89395   0.54020   0.40013   0.00000  Uiso   1.00
H82    H     0.86094   0.68149   0.67132   0.00000  Uiso   1.00
H83    H     0.74190   0.31998   0.05542   0.00000  Uiso   1.00
O84    O     0.89292   0.65804   0.55861   0.00000  Uiso   1.00
O85    O     0.84960   0.84341   0.60244   0.00000  Uiso   1.00
O86    O     0.69342   0.36911   0.10637   0.00000  Uiso   1.00
N87    N     0.85874   0.70708   0.44894   0.00000  Uiso   1.00
N88    N     0.82787   0.83919   0.76756   0.00000  Uiso   1.00
N89    N     0.71658   0.50121   0.12663   0.00000  Uiso   1.00
N90    N     0.88057   0.58911   0.39850   0.00000  Uiso   1.00
N91    N     0.84970   0.72122   0.71712   0.00000  Uiso   1.00
N92    N     0.73841   0.38324   0.07619   0.00000  Uiso   1.00
C93    C     0.29914   0.19286   0.11888   0.00000  Uiso   1.00
C94    C     0.32090   0.16794   0.19752   0.00000  Uiso   1.00
C95    C     0.32703   0.21271   0.29174   0.00000  Uiso   1.00
C96    C     0.34763   0.17942   0.35267   0.00000  Uiso   1.00
C97    C     0.37930   0.15222   0.47967   0.00000  Uiso   1.00
C98    C     0.31239   0.20436   0.00973   0.00000  Uiso   1.00
C99    C     0.31138   0.27974   0.94606   0.00000  Uiso   1.00
C100   C     0.32482   0.27710   0.84890   0.00000  Uiso   1.00
C101   C     0.34327   0.30641   0.68431   0.00000  Uiso   1.00
C102   C     0.28172   0.11121   0.10871   0.00000  Uiso   1.00
C103   C     0.25492   0.10828   0.12823   0.00000  Uiso   1.00
C104   C     0.24253   0.02721   0.11438   0.00000  Uiso   1.00
C105   C     0.21336   0.91190   0.10347   0.00000  Uiso   1.00
C106   C     0.32481   0.05412   0.05956   0.00000  Uiso   1.00
C107   C     0.33484   0.09259   0.16530   0.00000  Uiso   1.00
C108   C     0.35543   0.05922   0.22611   0.00000  Uiso   1.00
C109   C     0.36160   0.10393   0.32040   0.00000  Uiso   1.00
C110   C     0.32634   0.12901   0.97751   0.00000  Uiso   1.00
C111   C     0.33978   0.12625   0.88043   0.00000  Uiso   1.00
C112   C     0.33878   0.20161   0.81662   0.00000  Uiso   1.00
C113   C     0.29567   0.03585   0.07649   0.00000  Uiso   1.00
C114   C     0.28332   0.95478   0.06260   0.00000  Uiso   1.00
C115   C     0.25650   0.95173   0.08210   0.00000  Uiso   1.00
H116   H     0.28829   0.25153   0.14395   0.00000  Uiso   1.00
H117   H     0.31624   0.27103   0.31664   0.00000  Uiso   1.00
H118   H     0.30058   0.33804   0.97101   0.00000  Uiso   1.00
H119   H     0.24413   0.16660   0.15316   0.00000  Uiso   1.00
H120   H     0.35339   0.25944   0.49387   0.00000  Uiso   1.00
H121   H     0.32037   0.40073   0.76506   0.00000  Uiso   1.00
H122   H     0.20133   0.03922   0.14916   0.00000  Uiso   1.00
H123   H     0.33567   0.99545   0.03447   0.00000  Uiso   1.00
H124   H     0.36622   0.00090   0.20115   0.00000  Uiso   1.00
H125   H     0.35057   0.06792   0.85552   0.00000  Uiso   1.00
H126   H     0.29411   0.89648   0.03767   0.00000  Uiso   1.00
H127   H     0.39395   0.04020   0.40013   0.00000  Uiso   1.00
H128   H     0.36094   0.18149   0.67132   0.00000  Uiso   1.00
H129   H     0.24190   0.81998   0.05542   0.00000  Uiso   1.00
O130   O     0.39292   0.15804   0.55861   0.00000  Uiso   1.00
O131   O     0.34960   0.34341   0.60244   0.00000  Uiso   1.00
O132   O     0.19342   0.86911   0.10637   0.00000  Uiso   1.00
N133   N     0.35874   0.20708   0.44894   0.00000  Uiso   1.00
N134   N     0.32787   0.33919   0.76756   0.00000  Uiso   1.00
N135   N     0.21658   0.00121   0.12663   0.00000  Uiso   1.00
N136   N     0.38057   0.08911   0.39850   0.00000  Uiso   1.00
N137   N     0.34970   0.22122   0.71712   0.00000  Uiso   1.00
N138   N     0.23841   0.88324   0.07619   0.00000  Uiso   1.00
C139   C     0.29914   0.69286   0.61888   0.00000  Uiso   1.00
C140   C     0.32090   0.66794   0.69752   0.00000  Uiso   1.00
C141   C     0.32703   0.71271   0.79174   0.00000  Uiso   1.00
C142   C     0.34763   0.67942   0.85267   0.00000  Uiso   1.00
C143   C     0.37930   0.65222   0.97967   0.00000  Uiso   1.00
C144   C     0.31239   0.70436   0.50973   0.00000  Uiso   1.00
C145   C     0.31138   0.77974   0.44606   0.00000  Uiso   1.00
C146   C     0.32482   0.77710   0.34890   0.00000  Uiso   1.00
C147   C     0.34327   0.80641   0.18431   0.00000  Uiso   1.00
C148   C     0.28172   0.61121   0.60871   0.00000  Uiso   1.00
C149   C     0.25492   0.60828   0.62823   0.00000  Uiso   1.00
C150   C     0.24253   0.52721   0.61438   0.00000  Uiso   1.00
C151   C     0.21336   0.41190   0.60347   0.00000  Uiso   1.00
C152   C     0.32481   0.55412   0.55956   0.00000  Uiso   1.00
C153   C     0.33484   0.59259   0.66530   0.00000  Uiso   1.00
C154   C     0.35543   0.55922   0.72611   0.00000  Uiso   1.00
C155   C     0.36160   0.60393   0.82040   0.00000  Uiso   1.00
C156   C     0.32634   0.62901   0.47751   0.00000  Uiso   1.00
C157   C     0.33978   0.62625   0.38043   0.00000  Uiso   1.00
C158   C     0.33878   0.70161   0.31662   0.00000  Uiso   1.00
C159   C     0.29567   0.53585   0.57649   0.00000  Uiso   1.00
C160   C     0.28332   0.45478   0.56260   0.00000  Uiso   1.00
C161   C     0.25650   0.45173   0.58210   0.00000  Uiso   1.00
H162   H     0.28829   0.75153   0.64395   0.00000  Uiso   1.00
H163   H     0.31624   0.77103   0.81664   0.00000  Uiso   1.00
H164   H     0.30058   0.83804   0.47101   0.00000  Uiso   1.00
H165   H     0.24413   0.66660   0.65316   0.00000  Uiso   1.00
H166   H     0.35339   0.75944   0.99387   0.00000  Uiso   1.00
H167   H     0.32037   0.90073   0.26506   0.00000  Uiso   1.00
H168   H     0.20133   0.53922   0.64916   0.00000  Uiso   1.00
H169   H     0.33567   0.49545   0.53447   0.00000  Uiso   1.00
H170   H     0.36622   0.50090   0.70115   0.00000  Uiso   1.00
H171   H     0.35057   0.56792   0.35552   0.00000  Uiso   1.00
H172   H     0.29411   0.39648   0.53767   0.00000  Uiso   1.00
H173   H     0.39395   0.54020   0.90013   0.00000  Uiso   1.00
H174   H     0.36094   0.68149   0.17132   0.00000  Uiso   1.00
H175   H     0.24190   0.31998   0.55542   0.00000  Uiso   1.00
O176   O     0.39292   0.65804   0.05861   0.00000  Uiso   1.00
O177   O     0.34960   0.84341   0.10244   0.00000  Uiso   1.00
O178   O     0.19342   0.36911   0.60637   0.00000  Uiso   1.00
N179   N     0.35874   0.70708   0.94894   0.00000  Uiso   1.00
N180   N     0.32787   0.83919   0.26756   0.00000  Uiso   1.00
N181   N     0.21658   0.50121   0.62663   0.00000  Uiso   1.00
N182   N     0.38057   0.58911   0.89850   0.00000  Uiso   1.00
N183   N     0.34970   0.72122   0.21712   0.00000  Uiso   1.00
N184   N     0.23841   0.38324   0.57619   0.00000  Uiso   1.00
C185   C     0.20086   0.80714   0.61888   0.00000  Uiso   1.00
C186   C     0.17910   0.83206   0.69752   0.00000  Uiso   1.00
C187   C     0.17297   0.78729   0.79174   0.00000  Uiso   1.00
C188   C     0.15237   0.82058   0.85267   0.00000  Uiso   1.00
C189   C     0.12070   0.84778   0.97967   0.00000  Uiso   1.00
C190   C     0.18761   0.79564   0.50973   0.00000  Uiso   1.00
C191   C     0.18862   0.72026   0.44606   0.00000  Uiso   1.00
C192   C     0.17518   0.72290   0.34890   0.00000  Uiso   1.00
C193   C     0.15673   0.69359   0.18431   0.00000  Uiso   1.00
C194   C     0.21828   0.88879   0.60871   0.00000  Uiso   1.00
C195   C     0.24508   0.89172   0.62823   0.00000  Uiso   1.00
C196   C     0.25747   0.97279   0.61438   0.00000  Uiso   1.00
C197   C     0.28664   0.08810   0.60347   0.00000  Uiso   1.00
C198   C     0.17519   0.94588   0.55956   0.00000  Uiso   1.00
C199   C     0.16516   0.90741   0.66530   0.00000  Uiso   1.00
C200   C     0.14457   0.94078   0.72611   0.00000  Uiso   1.00
C201   C     0.13840   0.89607   0.82040   0.00000  Uiso   1.00
C202   C     0.17366   0.87099   0.47751   0.00000  Uiso   1.00
C203   C     0.16022   0.87375   0.38043   0.00000  Uiso   1.00
C204   C     0.16122   0.79839   0.31662   0.00000  Uiso   1.00
C205   C     0.20433   0.96415   0.57649   0.00000  Uiso   1.00
C206   C     0.21668   0.04522   0.56260   0.00000  Uiso   1.00
C207   C     0.24350   0.04827   0.58210   0.00000  Uiso   1.00
H208   H     0.21171   0.74847   0.64395   0.00000  Uiso   1.00
H209   H     0.18376   0.72897   0.81664   0.00000  Uiso   1.00
H210   H     0.19942   0.66196   0.47101   0.00000  Uiso   1.00
H211   H     0.25587   0.83340   0.65316   0.00000  Uiso   1.00
H212   H     0.14661   0.74056   0.99387   0.00000  Uiso   1.00
H213   H     0.17963   0.59927   0.26506   0.00000  Uiso   1.00
H214   H     0.29867   0.96078   0.64916   0.00000  Uiso   1.00
H215   H     0.16433   0.00455   0.53447   0.00000  Uiso   1.00
H216   H     0.13378   0.99910   0.70115   0.00000  Uiso   1.00
H217   H     0.14943   0.93208   0.35552   0.00000  Uiso   1.00
H218   H     0.20589   0.10352   0.53767   0.00000  Uiso   1.00
H219   H     0.10605   0.95980   0.90013   0.00000  Uiso   1.00
H220   H     0.13906   0.81851   0.17132   0.00000  Uiso   1.00
H221   H     0.25810   0.18002   0.55542   0.00000  Uiso   1.00
O222   O     0.10708   0.84196   0.05861   0.00000  Uiso   1.00
O223   O     0.15040   0.65659   0.10244   0.00000  Uiso   1.00
O224   O     0.30658   0.13089   0.60637   0.00000  Uiso   1.00
N225   N     0.14126   0.79292   0.94894   0.00000  Uiso   1.00
N226   N     0.17213   0.66081   0.26756   0.00000  Uiso   1.00
N227   N     0.28342   0.99879   0.62663   0.00000  Uiso   1.00
N228   N     0.11943   0.91089   0.89850   0.00000  Uiso   1.00
N229   N     0.15030   0.77878   0.21712   0.00000  Uiso   1.00
N230   N     0.26159   0.11676   0.57619   0.00000  Uiso   1.00
C231   C     0.20086   0.30714   0.11888   0.00000  Uiso   1.00
C232   C     0.17910   0.33206   0.19752   0.00000  Uiso   1.00
C233   C     0.17297   0.28729   0.29174   0.00000  Uiso   1.00
C234   C     0.15237   0.32058   0.35267   0.00000  Uiso   1.00
C235   C     0.12070   0.34778   0.47967   0.00000  Uiso   1.00
C236   C     0.18761   0.29564   0.00973   0.00000  Uiso   1.00
C237   C     0.18862   0.22026   0.94606   0.00000  Uiso   1.00
C238   C     0.17518   0.22290   0.84890   0.00000  Uiso   1.00
C239   C     0.15673   0.19359   0.68431   0.00000  Uiso   1.00
C240   C     0.21828   0.38879   0.10871   0.00000  Uiso   1.00
C241   C     0.24508   0.39172   0.12823   0.00000  Uiso   1.00
C242   C     0.25747   0.47279   0.11438   0.00000  Uiso   1.00
C243   C     0.28664   0.58810   0.10347   0.00000  Uiso   1.00
C244   C     0.17519   0.44588   0.05956   0.00000  Uiso   1.00
C245   C     0.16516   0.40741   0.16530   0.00000  Uiso   1.00
C246   C     0.14457   0.44078   0.22611   0.00000  Uiso   1.00
C247   C     0.13840   0.39607   0.32040   0.00000  Uiso   1.00
C248   C     0.17366   0.37099   0.97751   0.00000  Uiso   1.00
C249   C     0.16022   0.37375   0.88043   0.00000  Uiso   1.00
C250   C     0.16122   0.29839   0.81662   0.00000  Uiso   1.00
C251   C     0.20433   0.46415   0.07649   0.00000  Uiso   1.00
C252   C     0.21668   0.54522   0.06260   0.00000  Uiso   1.00
C253   C     0.24350   0.54827   0.08210   0.00000  Uiso   1.00
H254   H     0.21171   0.24847   0.14395   0.00000  Uiso   1.00
H255   H     0.18376   0.22897   0.31664   0.00000  Uiso   1.00
H256   H     0.19942   0.16196   0.97101   0.00000  Uiso   1.00
H257   H     0.25587   0.33340   0.15316   0.00000  Uiso   1.00
H258   H     0.14661   0.24056   0.49387   0.00000  Uiso   1.00
H259   H     0.17963   0.09927   0.76506   0.00000  Uiso   1.00
H260   H     0.29867   0.46078   0.14916   0.00000  Uiso   1.00
H261   H     0.16433   0.50455   0.03447   0.00000  Uiso   1.00
H262   H     0.13378   0.49910   0.20115   0.00000  Uiso   1.00
H263   H     0.14943   0.43208   0.85552   0.00000  Uiso   1.00
H264   H     0.20589   0.60352   0.03767   0.00000  Uiso   1.00
H265   H     0.10605   0.45980   0.40013   0.00000  Uiso   1.00
H266   H     0.13906   0.31851   0.67132   0.00000  Uiso   1.00
H267   H     0.25810   0.68002   0.05542   0.00000  Uiso   1.00
O268   O     0.10708   0.34196   0.55861   0.00000  Uiso   1.00
O269   O     0.15040   0.15659   0.60244   0.00000  Uiso   1.00
O270   O     0.30658   0.63089   0.10637   0.00000  Uiso   1.00
N271   N     0.14126   0.29292   0.44894   0.00000  Uiso   1.00
N272   N     0.17213   0.16081   0.76756   0.00000  Uiso   1.00
N273   N     0.28342   0.49879   0.12663   0.00000  Uiso   1.00
N274   N     0.11943   0.41089   0.39850   0.00000  Uiso   1.00
N275   N     0.15030   0.27878   0.71712   0.00000  Uiso   1.00
N276   N     0.26159   0.61676   0.07619   0.00000  Uiso   1.00
C277   C     0.70086   0.80714   0.11888   0.00000  Uiso   1.00
C278   C     0.67910   0.83206   0.19752   0.00000  Uiso   1.00
C279   C     0.67297   0.78729   0.29174   0.00000  Uiso   1.00
C280   C     0.65237   0.82058   0.35267   0.00000  Uiso   1.00
C281   C     0.62070   0.84778   0.47967   0.00000  Uiso   1.00
C282   C     0.68761   0.79564   0.00973   0.00000  Uiso   1.00
C283   C     0.68862   0.72026   0.94606   0.00000  Uiso   1.00
C284   C     0.67518   0.72290   0.84890   0.00000  Uiso   1.00
C285   C     0.65673   0.69359   0.68431   0.00000  Uiso   1.00
C286   C     0.71828   0.88879   0.10871   0.00000  Uiso   1.00
C287   C     0.74508   0.89172   0.12823   0.00000  Uiso   1.00
C288   C     0.75747   0.97279   0.11438   0.00000  Uiso   1.00
C289   C     0.78664   0.08810   0.10347   0.00000  Uiso   1.00
C290   C     0.67519   0.94588   0.05956   0.00000  Uiso   1.00
C291   C     0.66516   0.90741   0.16530   0.00000  Uiso   1.00
C292   C     0.64457   0.94078   0.22611   0.00000  Uiso   1.00
C293   C     0.63840   0.89607   0.32040   0.00000  Uiso   1.00
C294   C     0.67366   0.87099   0.97751   0.00000  Uiso   1.00
C295   C     0.66022   0.87375   0.88043   0.00000  Uiso   1.00
C296   C     0.66122   0.79839   0.81662   0.00000  Uiso   1.00
C297   C     0.70433   0.96415   0.07649   0.00000  Uiso   1.00
C298   C     0.71668   0.04522   0.06260   0.00000  Uiso   1.00
C299   C     0.74350   0.04827   0.08210   0.00000  Uiso   1.00
H300   H     0.71171   0.74847   0.14395   0.00000  Uiso   1.00
H301   H     0.68376   0.72897   0.31664   0.00000  Uiso   1.00
H302   H     0.69942   0.66196   0.97101   0.00000  Uiso   1.00
H303   H     0.75587   0.83340   0.15316   0.00000  Uiso   1.00
H304   H     0.64661   0.74056   0.49387   0.00000  Uiso   1.00
H305   H     0.67963   0.59927   0.76506   0.00000  Uiso   1.00
H306   H     0.79867   0.96078   0.14916   0.00000  Uiso   1.00
H307   H     0.66433   0.00455   0.03447   0.00000  Uiso   1.00
H308   H     0.63378   0.99910   0.20115   0.00000  Uiso   1.00
H309   H     0.64943   0.93208   0.85552   0.00000  Uiso   1.00
H310   H     0.70589   0.10352   0.03767   0.00000  Uiso   1.00
H311   H     0.60605   0.95980   0.40013   0.00000  Uiso   1.00
H312   H     0.63906   0.81851   0.67132   0.00000  Uiso   1.00
H313   H     0.75810   0.18002   0.05542   0.00000  Uiso   1.00
O314   O     0.60708   0.84196   0.55861   0.00000  Uiso   1.00
O315   O     0.65040   0.65659   0.60244   0.00000  Uiso   1.00
O316   O     0.80658   0.13089   0.10637   0.00000  Uiso   1.00
N317   N     0.64126   0.79292   0.44894   0.00000  Uiso   1.00
N318   N     0.67213   0.66081   0.76756   0.00000  Uiso   1.00
N319   N     0.78342   0.99879   0.12663   0.00000  Uiso   1.00
N320   N     0.61943   0.91089   0.39850   0.00000  Uiso   1.00
N321   N     0.65030   0.77878   0.71712   0.00000  Uiso   1.00
N322   N     0.76159   0.11676   0.07619   0.00000  Uiso   1.00
C323   C     0.70086   0.30714   0.61888   0.00000  Uiso   1.00
C324   C     0.67910   0.33206   0.69752   0.00000  Uiso   1.00
C325   C     0.67297   0.28729   0.79174   0.00000  Uiso   1.00
C326   C     0.65237   0.32058   0.85267   0.00000  Uiso   1.00
C327   C     0.62070   0.34778   0.97967   0.00000  Uiso   1.00
C328   C     0.68761   0.29564   0.50973   0.00000  Uiso   1.00
C329   C     0.68862   0.22026   0.44606   0.00000  Uiso   1.00
C330   C     0.67518   0.22290   0.34890   0.00000  Uiso   1.00
C331   C     0.65673   0.19359   0.18431   0.00000  Uiso   1.00
C332   C     0.71828   0.38879   0.60871   0.00000  Uiso   1.00
C333   C     0.74508   0.39172   0.62823   0.00000  Uiso   1.00
C334   C     0.75747   0.47279   0.61438   0.00000  Uiso   1.00
C335   C     0.78664   0.58810   0.60347   0.00000  Uiso   1.00
C336   C     0.67519   0.44588   0.55956   0.00000  Uiso   1.00
C337   C     0.66516   0.40741   0.66530   0.00000  Uiso   1.00
C338   C     0.64457   0.44078   0.72611   0.00000  Uiso   1.00
C339   C     0.63840   0.39607   0.82040   0.00000  Uiso   1.00
C340   C     0.67366   0.37099   0.47751   0.00000  Uiso   1.00
C341   C     0.66022   0.37375   0.38043   0.00000  Uiso   1.00
C342   C     0.66122   0.29839   0.31662   0.00000  Uiso   1.00
C343   C     0.70433   0.46415   0.57649   0.00000  Uiso   1.00
C344   C     0.71668   0.54522   0.56260   0.00000  Uiso   1.00
C345   C     0.74350   0.54827   0.58210   0.00000  Uiso   1.00
H346   H     0.71171   0.24847   0.64395   0.00000  Uiso   1.00
H347   H     0.68376   0.22897   0.81664   0.00000  Uiso   1.00
H348   H     0.69942   0.16196   0.47101   0.00000  Uiso   1.00
H349   H     0.75587   0.33340   0.65316   0.00000  Uiso   1.00
H350   H     0.64661   0.24056   0.99387   0.00000  Uiso   1.00
H351   H     0.67963   0.09927   0.26506   0.00000  Uiso   1.00
H352   H     0.79867   0.46078   0.64916   0.00000  Uiso   1.00
H353   H     0.66433   0.50455   0.53447   0.00000  Uiso   1.00
H354   H     0.63378   0.49910   0.70115   0.00000  Uiso   1.00
H355   H     0.64943   0.43208   0.35552   0.00000  Uiso   1.00
H356   H     0.70589   0.60352   0.53767   0.00000  Uiso   1.00
H357   H     0.60605   0.45980   0.90013   0.00000  Uiso   1.00
H358   H     0.63906   0.31851   0.17132   0.00000  Uiso   1.00
H359   H     0.75810   0.68002   0.55542   0.00000  Uiso   1.00
O360   O     0.60708   0.34196   0.05861   0.00000  Uiso   1.00
O361   O     0.65040   0.15659   0.10244   0.00000  Uiso   1.00
O362   O     0.80658   0.63089   0.60637   0.00000  Uiso   1.00
N363   N     0.64126   0.29292   0.94894   0.00000  Uiso   1.00
N364   N     0.67213   0.16081   0.26756   0.00000  Uiso   1.00
N365   N     0.78342   0.49879   0.62663   0.00000  Uiso   1.00
N366   N     0.61943   0.41089   0.89850   0.00000  Uiso   1.00
N367   N     0.65030   0.27878   0.21712   0.00000  Uiso   1.00
N368   N     0.76159   0.61676   0.57619   0.00000  Uiso   1.00
C369   C     0.04914   0.05714   0.86888   0.00000  Uiso   1.00
C370   C     0.07090   0.08206   0.94752   0.00000  Uiso   1.00
C371   C     0.07703   0.03729   0.04174   0.00000  Uiso   1.00
C372   C     0.09763   0.07058   0.10267   0.00000  Uiso   1.00
C373   C     0.12930   0.09778   0.22967   0.00000  Uiso   1.00
C374   C     0.06239   0.04564   0.75973   0.00000  Uiso   1.00
C375   C     0.06138   0.97026   0.69606   0.00000  Uiso   1.00
C376   C     0.07482   0.97290   0.59890   0.00000  Uiso   1.00
C377   C     0.09327   0.94359   0.43431   0.00000  Uiso   1.00
C378   C     0.03172   0.13879   0.85871   0.00000  Uiso   1.00
C379   C     0.00492   0.14172   0.87823   0.00000  Uiso   1.00
C380   C     0.99253   0.22279   0.86438   0.00000  Uiso   1.00
C381   C     0.96336   0.33810   0.85347   0.00000  Uiso   1.00
C382   C     0.07481   0.19588   0.80956   0.00000  Uiso   1.00
C383   C     0.08484   0.15741   0.91530   0.00000  Uiso   1.00
C384   C     0.10543   0.19078   0.97611   0.00000  Uiso   1.00
C385   C     0.11160   0.14607   0.07040   0.00000  Uiso   1.00
C386   C     0.07634   0.12099   0.72751   0.00000  Uiso   1.00
C387   C     0.08978   0.12375   0.63043   0.00000  Uiso   1.00
C388   C     0.08878   0.04839   0.56662   0.00000  Uiso   1.00
C389   C     0.04567   0.21415   0.82649   0.00000  Uiso   1.00
C390   C     0.03332   0.29522   0.81260   0.00000  Uiso   1.00
C391   C     0.00650   0.29827   0.83210   0.00000  Uiso   1.00
H392   H     0.03829   0.99847   0.89395   0.00000  Uiso   1.00
H393   H     0.06624   0.97897   0.06664   0.00000  Uiso   1.00
H394   H     0.05058   0.91196   0.72101   0.00000  Uiso   1.00
H395   H     0.99413   0.08340   0.90316   0.00000  Uiso   1.00
H396   H     0.10339   0.99056   0.24387   0.00000  Uiso   1.00
H397   H     0.07037   0.84927   0.51506   0.00000  Uiso   1.00
H398   H     0.95133   0.21078   0.89916   0.00000  Uiso   1.00
H399   H     0.08567   0.25455   0.78447   0.00000  Uiso   1.00
H400   H     0.11622   0.24910   0.95115   0.00000  Uiso   1.00
H401   H     0.10057   0.18208   0.60552   0.00000  Uiso   1.00
H402   H     0.04411   0.35352   0.78767   0.00000  Uiso   1.00
H403   H     0.14395   0.20980   0.15013   0.00000  Uiso   1.00
H404   H     0.11094   0.06851   0.42132   0.00000  Uiso   1.00
H405   H     0.99190   0.43002   0.80542   0.00000  Uiso   1.00
O406   O     0.14292   0.09196   0.30861   0.00000  Uiso   1.00
O407   O     0.09960   0.90659   0.35244   0.00000  Uiso   1.00
O408   O     0.94342   0.38089   0.85637   0.00000  Uiso   1.00
N409   N     0.10874   0.04292   0.19894   0.00000  Uiso   1.00
N410   N     0.07787   0.91081   0.51756   0.00000  Uiso   1.00
N411   N     0.96658   0.24879   0.87663   0.00000  Uiso   1.00
N412   N     0.13057   0.16089   0.14850   0.00000  Uiso   1.00
N413   N     0.09970   0.02878   0.46712   0.00000  Uiso   1.00
N414   N     0.98841   0.36676   0.82619   0.00000  Uiso   1.00
C415   C     0.04914   0.55714   0.36888   0.00000  Uiso   1.00
C416   C     0.07090   0.58206   0.44752   0.00000  Uiso   1.00
C417   C     0.07703   0.53729   0.54174   0.00000  Uiso   1.00
C418   C     0.09763   0.57058   0.60267   0.00000  Uiso   1.00
C419   C     0.12930   0.59778   0.72967   0.00000  Uiso   1.00
C420   C     0.06239   0.54564   0.25973   0.00000  Uiso   1.00
C421   C     0.06138   0.47026   0.19606   0.00000  Uiso   1.00
C422   C     0.07482   0.47290   0.09890   0.00000  Uiso   1.00
C423   C     0.09327   0.44359   0.93431   0.00000  Uiso   1.00
C424   C     0.03172   0.63879   0.35871   0.00000  Uiso   1.00
C425   C     0.00492   0.64172   0.37823   0.00000  Uiso   1.00
C426   C     0.99253   0.72279   0.36438   0.00000  Uiso   1.00
C427   C     0.96336   0.83810   0.35347   0.00000  Uiso   1.00
C428   C     0.07481   0.69588   0.30956   0.00000  Uiso   1.00
C429   C     0.08484   0.65741   0.41530   0.00000  Uiso   1.00
C430   C     0.10543   0.69078   0.47611   0.00000  Uiso   1.00
C431   C     0.11160   0.64607   0.57040   0.00000  Uiso   1.00
C432   C     0.07634   0.62099   0.22751   0.00000  Uiso   1.00
C433   C     0.08978   0.62375   0.13043   0.00000  Uiso   1.00
C434   C     0.08878   0.54839   0.06662   0.00000  Uiso   1.00
C435   C     0.04567   0.71415   0.32649   0.00000  Uiso   1.00
C436   C     0.03332   0.79522   0.31260   0.00000  Uiso   1.00
C437   C     0.00650   0.79827   0.33210   0.00000  Uiso   1.00
H438   H     0.03829   0.49847   0.39395   0.00000  Uiso   1.00
H439   H     0.06624   0.47897   0.56664   0.00000  Uiso   1.00
H440   H     0.05058   0.41196   0.22101   0.00000  Uiso   1.00
H441   H     0.99413   0.58340   0.40316   0.00000  Uiso   1.00
H442   H     0.10339   0.49056   0.74387   0.00000  Uiso   1.00
H443   H     0.07037   0.34927   0.01506   0.00000  Uiso   1.00
H444   H     0.95133   0.71078   0.39916   0.00000  Uiso   1.00
H445   H     0.08567   0.75455   0.28447   0.00000  Uiso   1.00
H446   H     0.11622   0.74910   0.45115   0.00000  Uiso   1.00
H447   H     0.10057   0.68208   0.10552   0.00000  Uiso   1.00
H448   H     0.04411   0.85352   0.28767   0.00000  Uiso   1.00
H449   H     0.14395   0.70980   0.65013   0.00000  Uiso   1.00
H450   H     0.11094   0.56851   0.92132   0.00000  Uiso   1.00
H451   H     0.99190   0.93002   0.30542   0.00000  Uiso   1.00
O452   O     0.14292   0.59196   0.80861   0.00000  Uiso   1.00
O453   O     0.09960   0.40659   0.85244   0.00000  Uiso   1.00
O454   O     0.94342   0.88089   0.35637   0.00000  Uiso   1.00
N455   N     0.10874   0.54292   0.69894   0.00000  Uiso   1.00
N456   N     0.07787   0.41081   0.01756   0.00000  Uiso   1.00
N457   N     0.96658   0.74879   0.37663   0.00000  Uiso   1.00
N458   N     0.13057   0.66089   0.64850   0.00000  Uiso   1.00
N459   N     0.09970   0.52878   0.96712   0.00000  Uiso   1.00
N460   N     0.98841   0.86676   0.32619   0.00000  Uiso   1.00
C461   C     0.54914   0.05714   0.36888   0.00000  Uiso   1.00
C462   C     0.57090   0.08206   0.44752   0.00000  Uiso   1.00
C463   C     0.57703   0.03729   0.54174   0.00000  Uiso   1.00
C464   C     0.59763   0.07058   0.60267   0.00000  Uiso   1.00
C465   C     0.62930   0.09778   0.72967   0.00000  Uiso   1.00
C466   C     0.56239   0.04564   0.25973   0.00000  Uiso   1.00
C467   C     0.56138   0.97026   0.19606   0.00000  Uiso   1.00
C468   C     0.57482   0.97290   0.09890   0.00000  Uiso   1.00
C469   C     0.59327   0.94359   0.93431   0.00000  Uiso   1.00
C470   C     0.53172   0.13879   0.35871   0.00000  Uiso   1.00
C471   C     0.50492   0.14172   0.37823   0.00000  Uiso   1.00
C472   C     0.49253   0.22279   0.36438   0.00000  Uiso   1.00
C473   C     0.46336   0.33810   0.35347   0.00000  Uiso   1.00
C474   C     0.57481   0.19588   0.30956   0.00000  Uiso   1.00
C475   C     0.58484   0.15741   0.41530   0.00000  Uiso   1.00
C476   C     0.60543   0.19078   0.47611   0.00000  Uiso   1.00
C477   C     0.61160   0.14607   0.57040   0.00000  Uiso   1.00
C478   C     0.57634   0.12099   0.22751   0.00000  Uiso   1.00
C479   C     0.58978   0.12375   0.13043   0.00000  Uiso   1.00
C480   C     0.58878   0.04839   0.06662   0.00000  Uiso   1.00
C481   C     0.54567   0.21415   0.32649   0.00000  Uiso   1.00
C482   C     0.53332   0.29522   0.31260   0.00000  Uiso   1.00
C483   C     0.50650   0.29827   0.33210   0.00000  Uiso   1.00
H484   H     0.53829   0.99847   0.39395   0.00000  Uiso   1.00
H485   H     0.56624   0.97897   0.56664   0.00000  Uiso   1.00
H486   H     0.55058   0.91196   0.22101   0.00000  Uiso   1.00
H487   H     0.49413   0.08340   0.40316   0.00000  Uiso   1.00
H488   H     0.60339   0.99056   0.74387   0.00000  Uiso   1.00
H489   H     0.57037   0.84927   0.01506   0.00000  Uiso   1.00
H490   H     0.45133   0.21078   0.39916   0.00000  Uiso   1.00
H491   H     0.58567   0.25455   0.28447   0.00000  Uiso   1.00
H492   H     0.61622   0.24910   0.45115   0.00000  Uiso   1.00
H493   H     0.60057   0.18208   0.10552   0.00000  Uiso   1.00
H494   H     0.54411   0.35352   0.28767   0.00000  Uiso   1.00
H495   H     0.64395   0.20980   0.65013   0.00000  Uiso   1.00
H496   H     0.61094   0.06851   0.92132   0.00000  Uiso   1.00
H497   H     0.49190   0.43002   0.30542   0.00000  Uiso   1.00
O498   O     0.64292   0.09196   0.80861   0.00000  Uiso   1.00
O499   O     0.59960   0.90659   0.85244   0.00000  Uiso   1.00
O500   O     0.44342   0.38089   0.35637   0.00000  Uiso   1.00
N501   N     0.60874   0.04292   0.69894   0.00000  Uiso   1.00
N502   N     0.57787   0.91081   0.01756   0.00000  Uiso   1.00
N503   N     0.46658   0.24879   0.37663   0.00000  Uiso   1.00
N504   N     0.63057   0.16089   0.64850   0.00000  Uiso   1.00
N505   N     0.59970   0.02878   0.96712   0.00000  Uiso   1.00
N506   N     0.48841   0.36676   0.32619   0.00000  Uiso   1.00
C507   C     0.54914   0.55714   0.86888   0.00000  Uiso   1.00
C508   C     0.57090   0.58206   0.94752   0.00000  Uiso   1.00
C509   C     0.57703   0.53729   0.04174   0.00000  Uiso   1.00
C510   C     0.59763   0.57058   0.10267   0.00000  Uiso   1.00
C511   C     0.62930   0.59778   0.22967   0.00000  Uiso   1.00
C512   C     0.56239   0.54564   0.75973   0.00000  Uiso   1.00
C513   C     0.56138   0.47026   0.69606   0.00000  Uiso   1.00
C514   C     0.57482   0.47290   0.59890   0.00000  Uiso   1.00
C515   C     0.59327   0.44359   0.43431   0.00000  Uiso   1.00
C516   C     0.53172   0.63879   0.85871   0.00000  Uiso   1.00
C517   C     0.50492   0.64172   0.87823   0.00000  Uiso   1.00
C518   C     0.49253   0.72279   0.86438   0.00000  Uiso   1.00
C519   C     0.46336   0.83810   0.85347   0.00000  Uiso   1.00
C520   C     0.57481   0.69588   0.80956   0.00000  Uiso   1.00
C521   C     0.58484   0.65741   0.91530   0.00000  Uiso   1.00
C522   C     0.60543   0.69078   0.97611   0.00000  Uiso   1.00
C523   C     0.61160   0.64607   0.07040   0.00000  Uiso   1.00
C524   C     0.57634   0.62099   0.72751   0.00000  Uiso   1.00
C525   C     0.58978   0.62375   0.63043   0.00000  Uiso   1.00
C526   C     0.58878   0.54839   0.56662   0.00000  Uiso   1.00
C527   C     0.54567   0.71415   0.82649   0.00000  Uiso   1.00
C528   C     0.53332   0.79522   0.81260   0.00000  Uiso   1.00
C529   C     0.50650   0.79827   0.83210   0.00000  Uiso   1.00
H530   H     0.53829   0.49847   0.89395   0.00000  Uiso   1.00
H531   H     0.56624   0.47897   0.06664   0.00000  Uiso   1.00
H532   H     0.55058   0.41196   0.72101   0.00000  Uiso   1.00
H533   H     0.49413   0.58340   0.90316   0.00000  Uiso   1.00
H534   H     0.60339   0.49056   0.24387   0.00000  Uiso   1.00
H535   H     0.57037   0.34927   0.51506   0.00000  Uiso   1.00
H536   H     0.45133   0.71078   0.89916   0.00000  Uiso   1.00
H537   H     0.58567   0.75455   0.78447   0.00000  Uiso   1.00
H538   H     0.61622   0.74910   0.95115   0.00000  Uiso   1.00
H539   H     0.60057   0.68208   0.60552   0.00000  Uiso   1.00
H540   H     0.54411   0.85352   0.78767   0.00000  Uiso   1.00
H541   H     0.64395   0.70980   0.15013   0.00000  Uiso   1.00
H542   H     0.61094   0.56851   0.42132   0.00000  Uiso   1.00
H543   H     0.49190   0.93002   0.80542   0.00000  Uiso   1.00
O544   O     0.64292   0.59196   0.30861   0.00000  Uiso   1.00
O545   O     0.59960   0.40659   0.35244   0.00000  Uiso   1.00
O546   O     0.44342   0.88089   0.85637   0.00000  Uiso   1.00
N547   N     0.60874   0.54292   0.19894   0.00000  Uiso   1.00
N548   N     0.57787   0.41081   0.51756   0.00000  Uiso   1.00
N549   N     0.46658   0.74879   0.87663   0.00000  Uiso   1.00
N550   N     0.63057   0.66089   0.14850   0.00000  Uiso   1.00
N551   N     0.59970   0.52878   0.46712   0.00000  Uiso   1.00
N552   N     0.48841   0.86676   0.82619   0.00000  Uiso   1.00
C553   C     0.45086   0.44286   0.86888   0.00000  Uiso   1.00
C554   C     0.42910   0.41794   0.94752   0.00000  Uiso   1.00
C555   C     0.42297   0.46271   0.04174   0.00000  Uiso   1.00
C556   C     0.40237   0.42942   0.10267   0.00000  Uiso   1.00
C557   C     0.37070   0.40222   0.22967   0.00000  Uiso   1.00
C558   C     0.43761   0.45436   0.75973   0.00000  Uiso   1.00
C559   C     0.43862   0.52974   0.69606   0.00000  Uiso   1.00
C560   C     0.42518   0.52710   0.59890   0.00000  Uiso   1.00
C561   C     0.40673   0.55641   0.43431   0.00000  Uiso   1.00
C562   C     0.46828   0.36121   0.85871   0.00000  Uiso   1.00
C563   C     0.49508   0.35828   0.87823   0.00000  Uiso   1.00
C564   C     0.50747   0.27721   0.86438   0.00000  Uiso   1.00
C565   C     0.53664   0.16190   0.85347   0.00000  Uiso   1.00
C566   C     0.42519   0.30412   0.80956   0.00000  Uiso   1.00
C567   C     0.41516   0.34259   0.91530   0.00000  Uiso   1.00
C568   C     0.39457   0.30922   0.97611   0.00000  Uiso   1.00
C569   C     0.38840   0.35393   0.07040   0.00000  Uiso   1.00
C570   C     0.42366   0.37901   0.72751   0.00000  Uiso   1.00
C571   C     0.41022   0.37625   0.63043   0.00000  Uiso   1.00
C572   C     0.41122   0.45161   0.56662   0.00000  Uiso   1.00
C573   C     0.45433   0.28585   0.82649   0.00000  Uiso   1.00
C574   C     0.46668   0.20478   0.81260   0.00000  Uiso   1.00
C575   C     0.49350   0.20173   0.83210   0.00000  Uiso   1.00
H576   H     0.46171   0.50153   0.89395   0.00000  Uiso   1.00
H577   H     0.43376   0.52103   0.06664   0.00000  Uiso   1.00
H578   H     0.44942   0.58804   0.72101   0.00000  Uiso   1.00
H579   H     0.50587   0.41660   0.90316   0.00000  Uiso   1.00
H580   H     0.39661   0.50944   0.24387   0.00000  Uiso   1.00
H581   H     0.42963   0.65073   0.51506   0.00000  Uiso   1.00
H582   H     0.54867   0.28922   0.89916   0.00000  Uiso   1.00
H583   H     0.41433   0.24545   0.78447   0.00000  Uiso   1.00
H584   H     0.38378   0.25090   0.95115   0.00000  Uiso   1.00
H585   H     0.39943   0.31792   0.60552   0.00000  Uiso   1.00
H586   H     0.45589   0.14648   0.78767   0.00000  Uiso   1.00
H587   H     0.35605   0.29020   0.15013   0.00000  Uiso   1.00
H588   H     0.38906   0.43149   0.42132   0.00000  Uiso   1.00
H589   H     0.50810   0.06998   0.80542   0.00000  Uiso   1.00
O590   O     0.35708   0.40804   0.30861   0.00000  Uiso   1.00
O591   O     0.40040   0.59341   0.35244   0.00000  Uiso   1.00
O592   O     0.55658   0.11911   0.85637   0.00000  Uiso   1.00
N593   N     0.39126   0.45708   0.19894   0.00000  Uiso   1.00
N594   N     0.42213   0.58919   0.51756   0.00000  Uiso   1.00
N595   N     0.53342   0.25121   0.87663   0.00000  Uiso   1.00
N596   N     0.36943   0.33911   0.14850   0.00000  Uiso   1.00
N597   N     0.40030   0.47122   0.46712   0.00000  Uiso   1.00
N598   N     0.51159   0.13324   0.82619   0.00000  Uiso   1.00
C599   C     0.45086   0.94286   0.36888   0.00000  Uiso   1.00
C600   C     0.42910   0.91794   0.44752   0.00000  Uiso   1.00
C601   C     0.42297   0.96271   0.54174   0.00000  Uiso   1.00
C602   C     0.40237   0.92942   0.60267   0.00000  Uiso   1.00
C603   C     0.37070   0.90222   0.72967   0.00000  Uiso   1.00
C604   C     0.43761   0.95436   0.25973   0.00000  Uiso   1.00
C605   C     0.43862   0.02974   0.19606   0.00000  Uiso   1.00
C606   C     0.42518   0.02710   0.09890   0.00000  Uiso   1.00
C607   C     0.40673   0.05641   0.93431   0.00000  Uiso   1.00
C608   C     0.46828   0.86121   0.35871   0.00000  Uiso   1.00
C609   C     0.49508   0.85828   0.37823   0.00000  Uiso   1.00
C610   C     0.50747   0.77721   0.36438   0.00000  Uiso   1.00
C611   C     0.53664   0.66190   0.35347   0.00000  Uiso   1.00
C612   C     0.42519   0.80412   0.30956   0.00000  Uiso   1.00
C613   C     0.41516   0.84259   0.41530   0.00000  Uiso   1.00
C614   C     0.39457   0.80922   0.47611   0.00000  Uiso   1.00
C615   C     0.38840   0.85393   0.57040   0.00000  Uiso   1.00
C616   C     0.42366   0.87901   0.22751   0.00000  Uiso   1.00
C617   C     0.41022   0.87625   0.13043   0.00000  Uiso   1.00
C618   C     0.41122   0.95161   0.06662   0.00000  Uiso   1.00
C619   C     0.45433   0.78585   0.32649   0.00000  Uiso   1.00
C620   C     0.46668   0.70478   0.31260   0.00000  Uiso   1.00
C621   C     0.49350   0.70173   0.33210   0.00000  Uiso   1.00
H622   H     0.46171   0.00153   0.39395   0.00000  Uiso   1.00
H623   H     0.43376   0.02103   0.56664   0.00000  Uiso   1.00
H624   H     0.44942   0.08804   0.22101   0.00000  Uiso   1.00
H625   H     0.50587   0.91660   0.40316   0.00000  Uiso   1.00
H626   H     0.39661   0.00944   0.74387   0.00000  Uiso   1.00
H627   H     0.42963   0.15073   0.01506   0.00000  Uiso   1.00
H628   H     0.54867   0.78922   0.39916   0.00000  Uiso   1.00
H629   H     0.41433   0.74545   0.28447   0.00000  Uiso   1.00
H630   H     0.38378   0.75090   0.45115   0.00000  Uiso   1.00
H631   H     0.39943   0.81792   0.10552   0.00000  Uiso   1.00
H632   H     0.45589   0.64648   0.28767   0.00000  Uiso   1.00
H633   H     0.35605   0.79020   0.65013   0.00000  Uiso   1.00
H634   H     0.38906   0.93149   0.92132   0.00000  Uiso   1.00
H635   H     0.50810   0.56998   0.30542   0.00000  Uiso   1.00
O636   O     0.35708   0.90804   0.80861   0.00000  Uiso   1.00
O637   O     0.40040   0.09341   0.85244   0.00000  Uiso   1.00
O638   O     0.55658   0.61911   0.35637   0.00000  Uiso   1.00
N639   N     0.39126   0.95708   0.69894   0.00000  Uiso   1.00
N640   N     0.42213   0.08919   0.01756   0.00000  Uiso   1.00
N641   N     0.53342   0.75121   0.37663   0.00000  Uiso   1.00
N642   N     0.36943   0.83911   0.64850   0.00000  Uiso   1.00
N643   N     0.40030   0.97122   0.96712   0.00000  Uiso   1.00
N644   N     0.51159   0.63324   0.32619   0.00000  Uiso   1.00
C645   C     0.95086   0.44286   0.36888   0.00000  Uiso   1.00
C646   C     0.92910   0.41794   0.44752   0.00000  Uiso   1.00
C647   C     0.92297   0.46271   0.54174   0.00000  Uiso   1.00
C648   C     0.90237   0.42942   0.60267   0.00000  Uiso   1.00
C649   C     0.87070   0.40222   0.72967   0.00000  Uiso   1.00
C650   C     0.93761   0.45436   0.25973   0.00000  Uiso   1.00
C651   C     0.93862   0.52974   0.19606   0.00000  Uiso   1.00
C652   C     0.92518   0.52710   0.09890   0.00000  Uiso   1.00
C653   C     0.90673   0.55641   0.93431   0.00000  Uiso   1.00
C654   C     0.96828   0.36121   0.35871   0.00000  Uiso   1.00
C655   C     0.99508   0.35828   0.37823   0.00000  Uiso   1.00
C656   C     0.00747   0.27721   0.36438   0.00000  Uiso   1.00
C657   C     0.03664   0.16190   0.35347   0.00000  Uiso   1.00
C658   C     0.92519   0.30412   0.30956   0.00000  Uiso   1.00
C659   C     0.91516   0.34259   0.41530   0.00000  Uiso   1.00
C660   C     0.89457   0.30922   0.47611   0.00000  Uiso   1.00
C661   C     0.88840   0.35393   0.57040   0.00000  Uiso   1.00
C662   C     0.92366   0.37901   0.22751   0.00000  Uiso   1.00
C663   C     0.91022   0.37625   0.13043   0.00000  Uiso   1.00
C664   C     0.91122   0.45161   0.06662   0.00000  Uiso   1.00
C665   C     0.95433   0.28585   0.32649   0.00000  Uiso   1.00
C666   C     0.96668   0.20478   0.31260   0.00000  Uiso   1.00
C667   C     0.99350   0.20173   0.33210   0.00000  Uiso   1.00
H668   H     0.96171   0.50153   0.39395   0.00000  Uiso   1.00
H669   H     0.93376   0.52103   0.56664   0.00000  Uiso   1.00
H670   H     0.94942   0.58804   0.22101   0.00000  Uiso   1.00
H671   H     0.00587   0.41660   0.40316   0.00000  Uiso   1.00
H672   H     0.89661   0.50944   0.74387   0.00000  Uiso   1.00
H673   H     0.92963   0.65073   0.01506   0.00000  Uiso   1.00
H674   H     0.04867   0.28922   0.39916   0.00000  Uiso   1.00
H675   H     0.91433   0.24545   0.28447   0.00000  Uiso   1.00
H676   H     0.88378   0.25090   0.45115   0.00000  Uiso   1.00
H677   H     0.89943   0.31792   0.10552   0.00000  Uiso   1.00
H678   H     0.95589   0.14648   0.28767   0.00000  Uiso   1.00
H679   H     0.85605   0.29020   0.65013   0.00000  Uiso   1.00
H680   H     0.88906   0.43149   0.92132   0.00000  Uiso   1.00
H681   H     0.00810   0.06998   0.30542   0.00000  Uiso   1.00
O682   O     0.85708   0.40804   0.80861   0.00000  Uiso   1.00
O683   O     0.90040   0.59341   0.85244   0.00000  Uiso   1.00
O684   O     0.05658   0.11911   0.35637   0.00000  Uiso   1.00
N685   N     0.89126   0.45708   0.69894   0.00000  Uiso   1.00
N686   N     0.92213   0.58919   0.01756   0.00000  Uiso   1.00
N687   N     0.03342   0.25121   0.37663   0.00000  Uiso   1.00
N688   N     0.86943   0.33911   0.64850   0.00000  Uiso   1.00
N689   N     0.90030   0.47122   0.96712   0.00000  Uiso   1.00
N690   N     0.01159   0.13324   0.32619   0.00000  Uiso   1.00
C691   C     0.95086   0.94286   0.86888   0.00000  Uiso   1.00
C692   C     0.92910   0.91794   0.94752   0.00000  Uiso   1.00
C693   C     0.92297   0.96271   0.04174   0.00000  Uiso   1.00
C694   C     0.90237   0.92942   0.10267   0.00000  Uiso   1.00
C695   C     0.87070   0.90222   0.22967   0.00000  Uiso   1.00
C696   C     0.93761   0.95436   0.75973   0.00000  Uiso   1.00
C697   C     0.93862   0.02974   0.69606   0.00000  Uiso   1.00
C698   C     0.92518   0.02710   0.59890   0.00000  Uiso   1.00
C699   C     0.90673   0.05641   0.43431   0.00000  Uiso   1.00
C700   C     0.96828   0.86121   0.85871   0.00000  Uiso   1.00
C701   C     0.99508   0.85828   0.87823   0.00000  Uiso   1.00
C702   C     0.00747   0.77721   0.86438   0.00000  Uiso   1.00
C703   C     0.03664   0.66190   0.85347   0.00000  Uiso   1.00
C704   C     0.92519   0.80412   0.80956   0.00000  Uiso   1.00
C705   C     0.91516   0.84259   0.91530   0.00000  Uiso   1.00
C706   C     0.89457   0.80922   0.97611   0.00000  Uiso   1.00
C707   C     0.88840   0.85393   0.07040   0.00000  Uiso   1.00
C708   C     0.92366   0.87901   0.72751   0.00000  Uiso   1.00
C709   C     0.91022   0.87625   0.63043   0.00000  Uiso   1.00
C710   C     0.91122   0.95161   0.56662   0.00000  Uiso   1.00
C711   C     0.95433   0.78585   0.82649   0.00000  Uiso   1.00
C712   C     0.96668   0.70478   0.81260   0.00000  Uiso   1.00
C713   C     0.99350   0.70173   0.83210   0.00000  Uiso   1.00
H714   H     0.96171   0.00153   0.89395   0.00000  Uiso   1.00
H715   H     0.93376   0.02103   0.06664   0.00000  Uiso   1.00
H716   H     0.94942   0.08804   0.72101   0.00000  Uiso   1.00
H717   H     0.00587   0.91660   0.90316   0.00000  Uiso   1.00
H718   H     0.89661   0.00944   0.24387   0.00000  Uiso   1.00
H719   H     0.92963   0.15073   0.51506   0.00000  Uiso   1.00
H720   H     0.04867   0.78922   0.89916   0.00000  Uiso   1.00
H721   H     0.91433   0.74545   0.78447   0.00000  Uiso   1.00
H722   H     0.88378   0.75090   0.95115   0.00000  Uiso   1.00
H723   H     0.89943   0.81792   0.60552   0.00000  Uiso   1.00
H724   H     0.95589   0.64648   0.78767   0.00000  Uiso   1.00
H725   H     0.85605   0.79020   0.15013   0.00000  Uiso   1.00
H726   H     0.88906   0.93149   0.42132   0.00000  Uiso   1.00
H727   H     0.00810   0.56998   0.80542   0.00000  Uiso   1.00
O728   O     0.85708   0.90804   0.30861   0.00000  Uiso   1.00
O729   O     0.90040   0.09341   0.35244   0.00000  Uiso   1.00
O730   O     0.05658   0.61911   0.85637   0.00000  Uiso   1.00
N731   N     0.89126   0.95708   0.19894   0.00000  Uiso   1.00
N732   N     0.92213   0.08919   0.51756   0.00000  Uiso   1.00
N733   N     0.03342   0.75121   0.87663   0.00000  Uiso   1.00
N734   N     0.86943   0.83911   0.14850   0.00000  Uiso   1.00
N735   N     0.90030   0.97122   0.46712   0.00000  Uiso   1.00
N736   N     0.01159   0.63324   0.82619   0.00000  Uiso   1.00
