data_job_02238
_audit_creation_date              2018-12-19
_audit_creation_method            'Materials Studio'
_symmetry_space_group_name_H-M    'P1'
_symmetry_Int_Tables_number       1
_symmetry_cell_setting            triclinic
loop_
_symmetry_equiv_pos_as_xyz
  x,y,z
_cell_length_a                    23.5952
_cell_length_b                    23.5952
_cell_length_c                    24.9899
_cell_angle_alpha                 90.0000
_cell_angle_beta                  90.0000
_cell_angle_gamma                 90.0000
loop_
_atom_site_label
_atom_site_type_symbol
_atom_site_fract_x
_atom_site_fract_y
_atom_site_fract_z
_atom_site_U_iso_or_equiv
_atom_site_adp_type
_atom_site_occupancy
C1     C     0.95566   0.35593   0.00508   0.00000  Uiso   1.00
C2     C     0.93718   0.36527   0.94727   0.00000  Uiso   1.00
C3     C     0.97089   0.38669   0.90651   0.00000  Uiso   1.00
C4     C     0.94610   0.39201   0.85638   0.00000  Uiso   1.00
C5     C     0.92598   0.40890   0.76799   0.00000  Uiso   1.00
C6     C     0.91408   0.38935   0.03953   0.00000  Uiso   1.00
C7     C     0.92838   0.43100   0.07635   0.00000  Uiso   1.00
C8     C     0.88414   0.45659   0.10388   0.00000  Uiso   1.00
C9     C     0.82817   0.51083   0.15876   0.00000  Uiso   1.00
C10    C     0.94446   0.29357   0.01709   0.00000  Uiso   1.00
C11    C     0.98430   0.25470   0.03505   0.00000  Uiso   1.00
C12    C     0.96563   0.19965   0.04371   0.00000  Uiso   1.00
C13    C     0.95682   0.10518   0.06375   0.00000  Uiso   1.00
C14    C     0.85168   0.32730   0.98854   0.00000  Uiso   1.00
C15    C     0.88070   0.34972   0.93829   0.00000  Uiso   1.00
C16    C     0.85584   0.35501   0.88821   0.00000  Uiso   1.00
C17    C     0.88952   0.37643   0.84737   0.00000  Uiso   1.00
C18    C     0.85760   0.37380   0.03055   0.00000  Uiso   1.00
C19    C     0.81333   0.39933   0.05804   0.00000  Uiso   1.00
C20    C     0.82755   0.44101   0.09488   0.00000  Uiso   1.00
C21    C     0.88798   0.27802   0.00811   0.00000  Uiso   1.00
C22    C     0.86924   0.22302   0.01674   0.00000  Uiso   1.00
C23    C     0.90904   0.18407   0.03471   0.00000  Uiso   1.00
H24    H     0.99964   0.36804   0.01208   0.00000  Uiso   1.00
H25    H     0.01460   0.39872   0.91348   0.00000  Uiso   1.00
H26    H     0.97209   0.44303   0.08329   0.00000  Uiso   1.00
H27    H     0.02800   0.26675   0.04200   0.00000  Uiso   1.00
H28    H     0.00628   0.42590   0.80021   0.00000  Uiso   1.00
H29    H     0.91665   0.51930   0.15828   0.00000  Uiso   1.00
H30    H     0.03454   0.14758   0.07122   0.00000  Uiso   1.00
H31    H     0.80770   0.31519   0.98154   0.00000  Uiso   1.00
H32    H     0.81213   0.34297   0.88126   0.00000  Uiso   1.00
H33    H     0.76963   0.38728   0.05108   0.00000  Uiso   1.00
H34    H     0.82553   0.21100   0.00979   0.00000  Uiso   1.00
H35    H     0.84195   0.38065   0.77406   0.00000  Uiso   1.00
H36    H     0.75232   0.47405   0.13214   0.00000  Uiso   1.00
H37    H     0.87021   0.10234   0.04507   0.00000  Uiso   1.00
O38    O     0.93049   0.42252   0.72173   0.00000  Uiso   1.00
O39    O     0.81290   0.54505   0.19151   0.00000  Uiso   1.00
O40    O     0.96757   0.05737   0.07728   0.00000  Uiso   1.00
N41    N     0.96700   0.41142   0.80782   0.00000  Uiso   1.00
N42    N     0.88320   0.49876   0.14259   0.00000  Uiso   1.00
N43    N     0.99342   0.15124   0.06120   0.00000  Uiso   1.00
N44    N     0.87857   0.38708   0.79374   0.00000  Uiso   1.00
N45    N     0.79478   0.47441   0.12852   0.00000  Uiso   1.00
N46    N     0.90499   0.12689   0.04713   0.00000  Uiso   1.00
C47    C     0.45566   0.85593   0.50508   0.00000  Uiso   1.00
C48    C     0.43718   0.86527   0.44727   0.00000  Uiso   1.00
C49    C     0.47089   0.88669   0.40651   0.00000  Uiso   1.00
C50    C     0.44610   0.89201   0.35638   0.00000  Uiso   1.00
C51    C     0.42598   0.90890   0.26799   0.00000  Uiso   1.00
C52    C     0.41408   0.88935   0.53953   0.00000  Uiso   1.00
C53    C     0.42838   0.93100   0.57635   0.00000  Uiso   1.00
C54    C     0.38414   0.95659   0.60388   0.00000  Uiso   1.00
C55    C     0.32817   0.01083   0.65876   0.00000  Uiso   1.00
C56    C     0.44446   0.79357   0.51709   0.00000  Uiso   1.00
C57    C     0.48430   0.75470   0.53505   0.00000  Uiso   1.00
C58    C     0.46563   0.69965   0.54371   0.00000  Uiso   1.00
C59    C     0.45682   0.60518   0.56375   0.00000  Uiso   1.00
C60    C     0.35168   0.82730   0.48854   0.00000  Uiso   1.00
C61    C     0.38070   0.84972   0.43829   0.00000  Uiso   1.00
C62    C     0.35584   0.85501   0.38821   0.00000  Uiso   1.00
C63    C     0.38952   0.87643   0.34737   0.00000  Uiso   1.00
C64    C     0.35760   0.87380   0.53055   0.00000  Uiso   1.00
C65    C     0.31333   0.89933   0.55804   0.00000  Uiso   1.00
C66    C     0.32755   0.94101   0.59488   0.00000  Uiso   1.00
C67    C     0.38798   0.77802   0.50811   0.00000  Uiso   1.00
C68    C     0.36924   0.72302   0.51674   0.00000  Uiso   1.00
C69    C     0.40904   0.68407   0.53471   0.00000  Uiso   1.00
H70    H     0.49964   0.86804   0.51208   0.00000  Uiso   1.00
H71    H     0.51460   0.89872   0.41348   0.00000  Uiso   1.00
H72    H     0.47209   0.94303   0.58329   0.00000  Uiso   1.00
H73    H     0.52800   0.76675   0.54200   0.00000  Uiso   1.00
H74    H     0.50628   0.92590   0.30021   0.00000  Uiso   1.00
H75    H     0.41665   0.01930   0.65828   0.00000  Uiso   1.00
H76    H     0.53454   0.64758   0.57122   0.00000  Uiso   1.00
H77    H     0.30770   0.81519   0.48154   0.00000  Uiso   1.00
H78    H     0.31213   0.84297   0.38126   0.00000  Uiso   1.00
H79    H     0.26963   0.88728   0.55108   0.00000  Uiso   1.00
H80    H     0.32553   0.71100   0.50979   0.00000  Uiso   1.00
H81    H     0.34195   0.88065   0.27406   0.00000  Uiso   1.00
H82    H     0.25232   0.97405   0.63214   0.00000  Uiso   1.00
H83    H     0.37021   0.60234   0.54507   0.00000  Uiso   1.00
O84    O     0.43049   0.92252   0.22173   0.00000  Uiso   1.00
O85    O     0.31290   0.04505   0.69151   0.00000  Uiso   1.00
O86    O     0.46757   0.55737   0.57728   0.00000  Uiso   1.00
N87    N     0.46700   0.91142   0.30782   0.00000  Uiso   1.00
N88    N     0.38320   0.99876   0.64259   0.00000  Uiso   1.00
N89    N     0.49342   0.65124   0.56120   0.00000  Uiso   1.00
N90    N     0.37857   0.88708   0.29374   0.00000  Uiso   1.00
N91    N     0.29478   0.97441   0.62852   0.00000  Uiso   1.00
N92    N     0.40499   0.62689   0.54713   0.00000  Uiso   1.00
C93    C     0.54434   0.14407   0.50508   0.00000  Uiso   1.00
C94    C     0.56282   0.13473   0.44727   0.00000  Uiso   1.00
C95    C     0.52911   0.11331   0.40651   0.00000  Uiso   1.00
C96    C     0.55390   0.10799   0.35638   0.00000  Uiso   1.00
C97    C     0.57402   0.09110   0.26799   0.00000  Uiso   1.00
C98    C     0.58592   0.11065   0.53953   0.00000  Uiso   1.00
C99    C     0.57162   0.06900   0.57635   0.00000  Uiso   1.00
C100   C     0.61586   0.04341   0.60388   0.00000  Uiso   1.00
C101   C     0.67183   0.98917   0.65876   0.00000  Uiso   1.00
C102   C     0.55554   0.20643   0.51709   0.00000  Uiso   1.00
C103   C     0.51570   0.24530   0.53505   0.00000  Uiso   1.00
C104   C     0.53437   0.30035   0.54371   0.00000  Uiso   1.00
C105   C     0.54318   0.39482   0.56375   0.00000  Uiso   1.00
C106   C     0.64832   0.17270   0.48854   0.00000  Uiso   1.00
C107   C     0.61930   0.15028   0.43829   0.00000  Uiso   1.00
C108   C     0.64416   0.14499   0.38821   0.00000  Uiso   1.00
C109   C     0.61048   0.12357   0.34737   0.00000  Uiso   1.00
C110   C     0.64240   0.12620   0.53055   0.00000  Uiso   1.00
C111   C     0.68667   0.10067   0.55804   0.00000  Uiso   1.00
C112   C     0.67245   0.05899   0.59488   0.00000  Uiso   1.00
C113   C     0.61202   0.22198   0.50811   0.00000  Uiso   1.00
C114   C     0.63076   0.27698   0.51674   0.00000  Uiso   1.00
C115   C     0.59096   0.31593   0.53471   0.00000  Uiso   1.00
H116   H     0.50036   0.13196   0.51208   0.00000  Uiso   1.00
H117   H     0.48540   0.10128   0.41348   0.00000  Uiso   1.00
H118   H     0.52791   0.05697   0.58329   0.00000  Uiso   1.00
H119   H     0.47200   0.23325   0.54200   0.00000  Uiso   1.00
H120   H     0.49372   0.07410   0.30021   0.00000  Uiso   1.00
H121   H     0.58335   0.98070   0.65828   0.00000  Uiso   1.00
H122   H     0.46546   0.35242   0.57122   0.00000  Uiso   1.00
H123   H     0.69230   0.18481   0.48154   0.00000  Uiso   1.00
H124   H     0.68787   0.15703   0.38126   0.00000  Uiso   1.00
H125   H     0.73037   0.11272   0.55108   0.00000  Uiso   1.00
H126   H     0.67447   0.28900   0.50979   0.00000  Uiso   1.00
H127   H     0.65805   0.11935   0.27406   0.00000  Uiso   1.00
H128   H     0.74768   0.02595   0.63214   0.00000  Uiso   1.00
H129   H     0.62979   0.39766   0.54507   0.00000  Uiso   1.00
O130   O     0.56951   0.07748   0.22173   0.00000  Uiso   1.00
O131   O     0.68710   0.95495   0.69151   0.00000  Uiso   1.00
O132   O     0.53243   0.44263   0.57728   0.00000  Uiso   1.00
N133   N     0.53300   0.08858   0.30782   0.00000  Uiso   1.00
N134   N     0.61680   0.00124   0.64259   0.00000  Uiso   1.00
N135   N     0.50658   0.34876   0.56120   0.00000  Uiso   1.00
N136   N     0.62143   0.11292   0.29374   0.00000  Uiso   1.00
N137   N     0.70522   0.02559   0.62852   0.00000  Uiso   1.00
N138   N     0.59501   0.37311   0.54713   0.00000  Uiso   1.00
C139   C     0.04434   0.64407   0.00508   0.00000  Uiso   1.00
C140   C     0.06282   0.63473   0.94727   0.00000  Uiso   1.00
C141   C     0.02911   0.61331   0.90651   0.00000  Uiso   1.00
C142   C     0.05390   0.60799   0.85638   0.00000  Uiso   1.00
C143   C     0.07402   0.59110   0.76799   0.00000  Uiso   1.00
C144   C     0.08592   0.61065   0.03953   0.00000  Uiso   1.00
C145   C     0.07162   0.56900   0.07635   0.00000  Uiso   1.00
C146   C     0.11586   0.54341   0.10388   0.00000  Uiso   1.00
C147   C     0.17183   0.48917   0.15876   0.00000  Uiso   1.00
C148   C     0.05554   0.70643   0.01709   0.00000  Uiso   1.00
C149   C     0.01570   0.74530   0.03505   0.00000  Uiso   1.00
C150   C     0.03437   0.80035   0.04371   0.00000  Uiso   1.00
C151   C     0.04318   0.89482   0.06375   0.00000  Uiso   1.00
C152   C     0.14832   0.67270   0.98854   0.00000  Uiso   1.00
C153   C     0.11930   0.65028   0.93829   0.00000  Uiso   1.00
C154   C     0.14416   0.64499   0.88821   0.00000  Uiso   1.00
C155   C     0.11048   0.62357   0.84737   0.00000  Uiso   1.00
C156   C     0.14240   0.62620   0.03055   0.00000  Uiso   1.00
C157   C     0.18667   0.60067   0.05804   0.00000  Uiso   1.00
C158   C     0.17245   0.55899   0.09488   0.00000  Uiso   1.00
C159   C     0.11202   0.72198   0.00811   0.00000  Uiso   1.00
C160   C     0.13076   0.77698   0.01674   0.00000  Uiso   1.00
C161   C     0.09096   0.81593   0.03471   0.00000  Uiso   1.00
H162   H     0.00036   0.63196   0.01208   0.00000  Uiso   1.00
H163   H     0.98540   0.60128   0.91348   0.00000  Uiso   1.00
H164   H     0.02791   0.55697   0.08329   0.00000  Uiso   1.00
H165   H     0.97200   0.73325   0.04200   0.00000  Uiso   1.00
H166   H     0.99372   0.57410   0.80021   0.00000  Uiso   1.00
H167   H     0.08335   0.48070   0.15828   0.00000  Uiso   1.00
H168   H     0.96546   0.85242   0.07122   0.00000  Uiso   1.00
H169   H     0.19230   0.68481   0.98154   0.00000  Uiso   1.00
H170   H     0.18787   0.65703   0.88126   0.00000  Uiso   1.00
H171   H     0.23037   0.61272   0.05108   0.00000  Uiso   1.00
H172   H     0.17447   0.78900   0.00979   0.00000  Uiso   1.00
H173   H     0.15805   0.61935   0.77406   0.00000  Uiso   1.00
H174   H     0.24768   0.52595   0.13214   0.00000  Uiso   1.00
H175   H     0.12979   0.89766   0.04507   0.00000  Uiso   1.00
O176   O     0.06951   0.57748   0.72173   0.00000  Uiso   1.00
O177   O     0.18710   0.45495   0.19151   0.00000  Uiso   1.00
O178   O     0.03243   0.94263   0.07728   0.00000  Uiso   1.00
N179   N     0.03300   0.58858   0.80782   0.00000  Uiso   1.00
N180   N     0.11680   0.50124   0.14259   0.00000  Uiso   1.00
N181   N     0.00658   0.84876   0.06120   0.00000  Uiso   1.00
N182   N     0.12143   0.61292   0.79374   0.00000  Uiso   1.00
N183   N     0.20522   0.52559   0.12852   0.00000  Uiso   1.00
N184   N     0.09501   0.87311   0.04713   0.00000  Uiso   1.00
C185   C     0.64407   0.45566   0.25508   0.00000  Uiso   1.00
C186   C     0.63473   0.43718   0.19727   0.00000  Uiso   1.00
C187   C     0.61331   0.47089   0.15651   0.00000  Uiso   1.00
C188   C     0.60799   0.44610   0.10638   0.00000  Uiso   1.00
C189   C     0.59110   0.42598   0.01799   0.00000  Uiso   1.00
C190   C     0.61065   0.41408   0.28953   0.00000  Uiso   1.00
C191   C     0.56900   0.42838   0.32635   0.00000  Uiso   1.00
C192   C     0.54341   0.38414   0.35388   0.00000  Uiso   1.00
C193   C     0.48917   0.32817   0.40876   0.00000  Uiso   1.00
C194   C     0.70643   0.44446   0.26709   0.00000  Uiso   1.00
C195   C     0.74530   0.48430   0.28505   0.00000  Uiso   1.00
C196   C     0.80035   0.46563   0.29371   0.00000  Uiso   1.00
C197   C     0.89482   0.45682   0.31375   0.00000  Uiso   1.00
C198   C     0.67270   0.35168   0.23854   0.00000  Uiso   1.00
C199   C     0.65028   0.38070   0.18829   0.00000  Uiso   1.00
C200   C     0.64499   0.35584   0.13821   0.00000  Uiso   1.00
C201   C     0.62357   0.38952   0.09737   0.00000  Uiso   1.00
C202   C     0.62620   0.35760   0.28055   0.00000  Uiso   1.00
C203   C     0.60067   0.31333   0.30804   0.00000  Uiso   1.00
C204   C     0.55899   0.32755   0.34488   0.00000  Uiso   1.00
C205   C     0.72198   0.38798   0.25811   0.00000  Uiso   1.00
C206   C     0.77698   0.36924   0.26674   0.00000  Uiso   1.00
C207   C     0.81593   0.40904   0.28471   0.00000  Uiso   1.00
H208   H     0.63196   0.49964   0.26208   0.00000  Uiso   1.00
H209   H     0.60128   0.51460   0.16348   0.00000  Uiso   1.00
H210   H     0.55697   0.47209   0.33329   0.00000  Uiso   1.00
H211   H     0.73325   0.52800   0.29200   0.00000  Uiso   1.00
H212   H     0.57410   0.50628   0.05021   0.00000  Uiso   1.00
H213   H     0.48070   0.41665   0.40828   0.00000  Uiso   1.00
H214   H     0.85242   0.53454   0.32122   0.00000  Uiso   1.00
H215   H     0.68481   0.30770   0.23154   0.00000  Uiso   1.00
H216   H     0.65703   0.31213   0.13126   0.00000  Uiso   1.00
H217   H     0.61272   0.26963   0.30108   0.00000  Uiso   1.00
H218   H     0.78900   0.32553   0.25979   0.00000  Uiso   1.00
H219   H     0.61935   0.34195   0.02406   0.00000  Uiso   1.00
H220   H     0.52595   0.25232   0.38214   0.00000  Uiso   1.00
H221   H     0.89766   0.37021   0.29507   0.00000  Uiso   1.00
O222   O     0.57748   0.43049   0.97173   0.00000  Uiso   1.00
O223   O     0.45495   0.31290   0.44151   0.00000  Uiso   1.00
O224   O     0.94263   0.46757   0.32728   0.00000  Uiso   1.00
N225   N     0.58858   0.46700   0.05782   0.00000  Uiso   1.00
N226   N     0.50124   0.38320   0.39259   0.00000  Uiso   1.00
N227   N     0.84876   0.49342   0.31120   0.00000  Uiso   1.00
N228   N     0.61292   0.37857   0.04374   0.00000  Uiso   1.00
N229   N     0.52559   0.29478   0.37852   0.00000  Uiso   1.00
N230   N     0.87311   0.40499   0.29713   0.00000  Uiso   1.00
C231   C     0.14407   0.95566   0.75508   0.00000  Uiso   1.00
C232   C     0.13473   0.93718   0.69727   0.00000  Uiso   1.00
C233   C     0.11331   0.97089   0.65651   0.00000  Uiso   1.00
C234   C     0.10799   0.94610   0.60638   0.00000  Uiso   1.00
C235   C     0.09110   0.92598   0.51799   0.00000  Uiso   1.00
C236   C     0.11065   0.91408   0.78953   0.00000  Uiso   1.00
C237   C     0.06900   0.92838   0.82635   0.00000  Uiso   1.00
C238   C     0.04341   0.88414   0.85388   0.00000  Uiso   1.00
C239   C     0.98917   0.82817   0.90876   0.00000  Uiso   1.00
C240   C     0.20643   0.94446   0.76709   0.00000  Uiso   1.00
C241   C     0.24530   0.98430   0.78505   0.00000  Uiso   1.00
C242   C     0.30035   0.96563   0.79371   0.00000  Uiso   1.00
C243   C     0.39482   0.95682   0.81375   0.00000  Uiso   1.00
C244   C     0.17270   0.85168   0.73854   0.00000  Uiso   1.00
C245   C     0.15028   0.88070   0.68829   0.00000  Uiso   1.00
C246   C     0.14499   0.85584   0.63821   0.00000  Uiso   1.00
C247   C     0.12357   0.88952   0.59737   0.00000  Uiso   1.00
C248   C     0.12620   0.85760   0.78055   0.00000  Uiso   1.00
C249   C     0.10067   0.81333   0.80804   0.00000  Uiso   1.00
C250   C     0.05899   0.82755   0.84488   0.00000  Uiso   1.00
C251   C     0.22198   0.88798   0.75811   0.00000  Uiso   1.00
C252   C     0.27698   0.86924   0.76674   0.00000  Uiso   1.00
C253   C     0.31593   0.90904   0.78471   0.00000  Uiso   1.00
H254   H     0.13196   0.99964   0.76208   0.00000  Uiso   1.00
H255   H     0.10128   0.01460   0.66348   0.00000  Uiso   1.00
H256   H     0.05697   0.97209   0.83329   0.00000  Uiso   1.00
H257   H     0.23325   0.02800   0.79200   0.00000  Uiso   1.00
H258   H     0.07410   0.00628   0.55021   0.00000  Uiso   1.00
H259   H     0.98070   0.91665   0.90828   0.00000  Uiso   1.00
H260   H     0.35242   0.03454   0.82122   0.00000  Uiso   1.00
H261   H     0.18481   0.80770   0.73154   0.00000  Uiso   1.00
H262   H     0.15703   0.81213   0.63126   0.00000  Uiso   1.00
H263   H     0.11272   0.76963   0.80108   0.00000  Uiso   1.00
H264   H     0.28900   0.82553   0.75979   0.00000  Uiso   1.00
H265   H     0.11935   0.84195   0.52406   0.00000  Uiso   1.00
H266   H     0.02595   0.75232   0.88214   0.00000  Uiso   1.00
H267   H     0.39766   0.87021   0.79507   0.00000  Uiso   1.00
O268   O     0.07748   0.93049   0.47173   0.00000  Uiso   1.00
O269   O     0.95495   0.81290   0.94151   0.00000  Uiso   1.00
O270   O     0.44263   0.96757   0.82728   0.00000  Uiso   1.00
N271   N     0.08858   0.96700   0.55782   0.00000  Uiso   1.00
N272   N     0.00124   0.88320   0.89259   0.00000  Uiso   1.00
N273   N     0.34876   0.99342   0.81120   0.00000  Uiso   1.00
N274   N     0.11292   0.87857   0.54374   0.00000  Uiso   1.00
N275   N     0.02559   0.79478   0.87852   0.00000  Uiso   1.00
N276   N     0.37311   0.90499   0.79713   0.00000  Uiso   1.00
C277   C     0.85593   0.04434   0.75508   0.00000  Uiso   1.00
C278   C     0.86527   0.06282   0.69727   0.00000  Uiso   1.00
C279   C     0.88669   0.02911   0.65651   0.00000  Uiso   1.00
C280   C     0.89201   0.05390   0.60638   0.00000  Uiso   1.00
C281   C     0.90890   0.07402   0.51799   0.00000  Uiso   1.00
C282   C     0.88935   0.08592   0.78953   0.00000  Uiso   1.00
C283   C     0.93100   0.07162   0.82635   0.00000  Uiso   1.00
C284   C     0.95659   0.11586   0.85388   0.00000  Uiso   1.00
C285   C     0.01083   0.17183   0.90876   0.00000  Uiso   1.00
C286   C     0.79357   0.05554   0.76709   0.00000  Uiso   1.00
C287   C     0.75470   0.01570   0.78505   0.00000  Uiso   1.00
C288   C     0.69965   0.03437   0.79371   0.00000  Uiso   1.00
C289   C     0.60518   0.04318   0.81375   0.00000  Uiso   1.00
C290   C     0.82730   0.14832   0.73854   0.00000  Uiso   1.00
C291   C     0.84972   0.11930   0.68829   0.00000  Uiso   1.00
C292   C     0.85501   0.14416   0.63821   0.00000  Uiso   1.00
C293   C     0.87643   0.11048   0.59737   0.00000  Uiso   1.00
C294   C     0.87380   0.14240   0.78055   0.00000  Uiso   1.00
C295   C     0.89933   0.18667   0.80804   0.00000  Uiso   1.00
C296   C     0.94101   0.17245   0.84488   0.00000  Uiso   1.00
C297   C     0.77802   0.11202   0.75811   0.00000  Uiso   1.00
C298   C     0.72302   0.13076   0.76674   0.00000  Uiso   1.00
C299   C     0.68407   0.09096   0.78471   0.00000  Uiso   1.00
H300   H     0.86804   0.00036   0.76208   0.00000  Uiso   1.00
H301   H     0.89872   0.98540   0.66348   0.00000  Uiso   1.00
H302   H     0.94303   0.02791   0.83329   0.00000  Uiso   1.00
H303   H     0.76675   0.97200   0.79200   0.00000  Uiso   1.00
H304   H     0.92590   0.99372   0.55021   0.00000  Uiso   1.00
H305   H     0.01930   0.08335   0.90828   0.00000  Uiso   1.00
H306   H     0.64758   0.96546   0.82122   0.00000  Uiso   1.00
H307   H     0.81519   0.19230   0.73154   0.00000  Uiso   1.00
H308   H     0.84297   0.18787   0.63126   0.00000  Uiso   1.00
H309   H     0.88728   0.23037   0.80108   0.00000  Uiso   1.00
H310   H     0.71100   0.17447   0.75979   0.00000  Uiso   1.00
H311   H     0.88065   0.15805   0.52406   0.00000  Uiso   1.00
H312   H     0.97405   0.24768   0.88214   0.00000  Uiso   1.00
H313   H     0.60234   0.12979   0.79507   0.00000  Uiso   1.00
O314   O     0.92252   0.06951   0.47173   0.00000  Uiso   1.00
O315   O     0.04505   0.18710   0.94151   0.00000  Uiso   1.00
O316   O     0.55737   0.03243   0.82728   0.00000  Uiso   1.00
N317   N     0.91142   0.03300   0.55782   0.00000  Uiso   1.00
N318   N     0.99876   0.11680   0.89259   0.00000  Uiso   1.00
N319   N     0.65124   0.00658   0.81120   0.00000  Uiso   1.00
N320   N     0.88708   0.12143   0.54374   0.00000  Uiso   1.00
N321   N     0.97441   0.20522   0.87852   0.00000  Uiso   1.00
N322   N     0.62689   0.09501   0.79713   0.00000  Uiso   1.00
C323   C     0.35593   0.54434   0.25508   0.00000  Uiso   1.00
C324   C     0.36527   0.56282   0.19727   0.00000  Uiso   1.00
C325   C     0.38669   0.52911   0.15651   0.00000  Uiso   1.00
C326   C     0.39201   0.55390   0.10638   0.00000  Uiso   1.00
C327   C     0.40890   0.57402   0.01799   0.00000  Uiso   1.00
C328   C     0.38935   0.58592   0.28953   0.00000  Uiso   1.00
C329   C     0.43100   0.57162   0.32635   0.00000  Uiso   1.00
C330   C     0.45659   0.61586   0.35388   0.00000  Uiso   1.00
C331   C     0.51083   0.67183   0.40876   0.00000  Uiso   1.00
C332   C     0.29357   0.55554   0.26709   0.00000  Uiso   1.00
C333   C     0.25470   0.51570   0.28505   0.00000  Uiso   1.00
C334   C     0.19965   0.53437   0.29371   0.00000  Uiso   1.00
C335   C     0.10518   0.54318   0.31375   0.00000  Uiso   1.00
C336   C     0.32730   0.64832   0.23854   0.00000  Uiso   1.00
C337   C     0.34972   0.61930   0.18829   0.00000  Uiso   1.00
C338   C     0.35501   0.64416   0.13821   0.00000  Uiso   1.00
C339   C     0.37643   0.61048   0.09737   0.00000  Uiso   1.00
C340   C     0.37380   0.64240   0.28055   0.00000  Uiso   1.00
C341   C     0.39933   0.68667   0.30804   0.00000  Uiso   1.00
C342   C     0.44101   0.67245   0.34488   0.00000  Uiso   1.00
C343   C     0.27802   0.61202   0.25811   0.00000  Uiso   1.00
C344   C     0.22302   0.63076   0.26674   0.00000  Uiso   1.00
C345   C     0.18407   0.59096   0.28471   0.00000  Uiso   1.00
H346   H     0.36804   0.50036   0.26208   0.00000  Uiso   1.00
H347   H     0.39872   0.48540   0.16348   0.00000  Uiso   1.00
H348   H     0.44303   0.52791   0.33329   0.00000  Uiso   1.00
H349   H     0.26675   0.47200   0.29200   0.00000  Uiso   1.00
H350   H     0.42590   0.49372   0.05021   0.00000  Uiso   1.00
H351   H     0.51930   0.58335   0.40828   0.00000  Uiso   1.00
H352   H     0.14758   0.46546   0.32122   0.00000  Uiso   1.00
H353   H     0.31519   0.69230   0.23154   0.00000  Uiso   1.00
H354   H     0.34297   0.68787   0.13126   0.00000  Uiso   1.00
H355   H     0.38728   0.73037   0.30108   0.00000  Uiso   1.00
H356   H     0.21100   0.67447   0.25979   0.00000  Uiso   1.00
H357   H     0.38065   0.65805   0.02406   0.00000  Uiso   1.00
H358   H     0.47405   0.74768   0.38214   0.00000  Uiso   1.00
H359   H     0.10234   0.62979   0.29507   0.00000  Uiso   1.00
O360   O     0.42252   0.56951   0.97173   0.00000  Uiso   1.00
O361   O     0.54505   0.68710   0.44151   0.00000  Uiso   1.00
O362   O     0.05737   0.53243   0.32728   0.00000  Uiso   1.00
N363   N     0.41142   0.53300   0.05782   0.00000  Uiso   1.00
N364   N     0.49876   0.61680   0.39259   0.00000  Uiso   1.00
N365   N     0.15124   0.50658   0.31120   0.00000  Uiso   1.00
N366   N     0.38708   0.62143   0.04374   0.00000  Uiso   1.00
N367   N     0.47441   0.70522   0.37852   0.00000  Uiso   1.00
N368   N     0.12689   0.59501   0.29713   0.00000  Uiso   1.00
C369   C     0.04434   0.14407   0.24492   0.00000  Uiso   1.00
C370   C     0.06282   0.13473   0.30273   0.00000  Uiso   1.00
C371   C     0.02911   0.11331   0.34349   0.00000  Uiso   1.00
C372   C     0.05390   0.10799   0.39362   0.00000  Uiso   1.00
C373   C     0.07402   0.09110   0.48201   0.00000  Uiso   1.00
C374   C     0.08592   0.11065   0.21047   0.00000  Uiso   1.00
C375   C     0.07162   0.06900   0.17365   0.00000  Uiso   1.00
C376   C     0.11586   0.04341   0.14612   0.00000  Uiso   1.00
C377   C     0.17183   0.98917   0.09124   0.00000  Uiso   1.00
C378   C     0.05554   0.20643   0.23291   0.00000  Uiso   1.00
C379   C     0.01570   0.24530   0.21495   0.00000  Uiso   1.00
C380   C     0.03437   0.30035   0.20629   0.00000  Uiso   1.00
C381   C     0.04318   0.39482   0.18625   0.00000  Uiso   1.00
C382   C     0.14832   0.17270   0.26146   0.00000  Uiso   1.00
C383   C     0.11930   0.15028   0.31171   0.00000  Uiso   1.00
C384   C     0.14416   0.14499   0.36179   0.00000  Uiso   1.00
C385   C     0.11048   0.12357   0.40263   0.00000  Uiso   1.00
C386   C     0.14240   0.12620   0.21945   0.00000  Uiso   1.00
C387   C     0.18667   0.10067   0.19196   0.00000  Uiso   1.00
C388   C     0.17245   0.05899   0.15512   0.00000  Uiso   1.00
C389   C     0.11202   0.22198   0.24189   0.00000  Uiso   1.00
C390   C     0.13076   0.27698   0.23326   0.00000  Uiso   1.00
C391   C     0.09096   0.31593   0.21529   0.00000  Uiso   1.00
H392   H     0.00036   0.13196   0.23792   0.00000  Uiso   1.00
H393   H     0.98540   0.10128   0.33652   0.00000  Uiso   1.00
H394   H     0.02791   0.05697   0.16671   0.00000  Uiso   1.00
H395   H     0.97200   0.23325   0.20800   0.00000  Uiso   1.00
H396   H     0.99372   0.07410   0.44979   0.00000  Uiso   1.00
H397   H     0.08335   0.98070   0.09172   0.00000  Uiso   1.00
H398   H     0.96546   0.35242   0.17878   0.00000  Uiso   1.00
H399   H     0.19230   0.18481   0.26846   0.00000  Uiso   1.00
H400   H     0.18787   0.15703   0.36874   0.00000  Uiso   1.00
H401   H     0.23037   0.11272   0.19892   0.00000  Uiso   1.00
H402   H     0.17447   0.28900   0.24021   0.00000  Uiso   1.00
H403   H     0.15805   0.11935   0.47594   0.00000  Uiso   1.00
H404   H     0.24768   0.02595   0.11786   0.00000  Uiso   1.00
H405   H     0.12979   0.39766   0.20493   0.00000  Uiso   1.00
O406   O     0.06951   0.07748   0.52827   0.00000  Uiso   1.00
O407   O     0.18710   0.95495   0.05849   0.00000  Uiso   1.00
O408   O     0.03243   0.44263   0.17272   0.00000  Uiso   1.00
N409   N     0.03300   0.08858   0.44218   0.00000  Uiso   1.00
N410   N     0.11680   0.00124   0.10741   0.00000  Uiso   1.00
N411   N     0.00658   0.34876   0.18880   0.00000  Uiso   1.00
N412   N     0.12143   0.11292   0.45626   0.00000  Uiso   1.00
N413   N     0.20522   0.02559   0.12148   0.00000  Uiso   1.00
N414   N     0.09501   0.37311   0.20287   0.00000  Uiso   1.00
C415   C     0.54434   0.64407   0.74492   0.00000  Uiso   1.00
C416   C     0.56282   0.63473   0.80273   0.00000  Uiso   1.00
C417   C     0.52911   0.61331   0.84349   0.00000  Uiso   1.00
C418   C     0.55390   0.60799   0.89362   0.00000  Uiso   1.00
C419   C     0.57402   0.59110   0.98201   0.00000  Uiso   1.00
C420   C     0.58592   0.61065   0.71047   0.00000  Uiso   1.00
C421   C     0.57162   0.56900   0.67365   0.00000  Uiso   1.00
C422   C     0.61586   0.54341   0.64612   0.00000  Uiso   1.00
C423   C     0.67183   0.48917   0.59124   0.00000  Uiso   1.00
C424   C     0.55554   0.70643   0.73291   0.00000  Uiso   1.00
C425   C     0.51570   0.74530   0.71495   0.00000  Uiso   1.00
C426   C     0.53437   0.80035   0.70629   0.00000  Uiso   1.00
C427   C     0.54318   0.89482   0.68625   0.00000  Uiso   1.00
C428   C     0.64832   0.67270   0.76146   0.00000  Uiso   1.00
C429   C     0.61930   0.65028   0.81171   0.00000  Uiso   1.00
C430   C     0.64416   0.64499   0.86179   0.00000  Uiso   1.00
C431   C     0.61048   0.62357   0.90263   0.00000  Uiso   1.00
C432   C     0.64240   0.62620   0.71945   0.00000  Uiso   1.00
C433   C     0.68667   0.60067   0.69196   0.00000  Uiso   1.00
C434   C     0.67245   0.55899   0.65512   0.00000  Uiso   1.00
C435   C     0.61202   0.72198   0.74189   0.00000  Uiso   1.00
C436   C     0.63076   0.77698   0.73326   0.00000  Uiso   1.00
C437   C     0.59096   0.81593   0.71529   0.00000  Uiso   1.00
H438   H     0.50036   0.63196   0.73792   0.00000  Uiso   1.00
H439   H     0.48540   0.60128   0.83652   0.00000  Uiso   1.00
H440   H     0.52791   0.55697   0.66671   0.00000  Uiso   1.00
H441   H     0.47200   0.73325   0.70800   0.00000  Uiso   1.00
H442   H     0.49372   0.57410   0.94979   0.00000  Uiso   1.00
H443   H     0.58335   0.48070   0.59172   0.00000  Uiso   1.00
H444   H     0.46546   0.85242   0.67878   0.00000  Uiso   1.00
H445   H     0.69230   0.68481   0.76846   0.00000  Uiso   1.00
H446   H     0.68787   0.65703   0.86874   0.00000  Uiso   1.00
H447   H     0.73037   0.61272   0.69892   0.00000  Uiso   1.00
H448   H     0.67447   0.78900   0.74021   0.00000  Uiso   1.00
H449   H     0.65805   0.61935   0.97594   0.00000  Uiso   1.00
H450   H     0.74768   0.52595   0.61786   0.00000  Uiso   1.00
H451   H     0.62979   0.89766   0.70493   0.00000  Uiso   1.00
O452   O     0.56951   0.57748   0.02827   0.00000  Uiso   1.00
O453   O     0.68710   0.45495   0.55849   0.00000  Uiso   1.00
O454   O     0.53243   0.94263   0.67272   0.00000  Uiso   1.00
N455   N     0.53300   0.58858   0.94218   0.00000  Uiso   1.00
N456   N     0.61680   0.50124   0.60741   0.00000  Uiso   1.00
N457   N     0.50658   0.84876   0.68880   0.00000  Uiso   1.00
N458   N     0.62143   0.61292   0.95626   0.00000  Uiso   1.00
N459   N     0.70522   0.52559   0.62148   0.00000  Uiso   1.00
N460   N     0.59501   0.87311   0.70287   0.00000  Uiso   1.00
C461   C     0.45566   0.35593   0.74492   0.00000  Uiso   1.00
C462   C     0.43718   0.36527   0.80273   0.00000  Uiso   1.00
C463   C     0.47089   0.38669   0.84349   0.00000  Uiso   1.00
C464   C     0.44610   0.39201   0.89362   0.00000  Uiso   1.00
C465   C     0.42598   0.40890   0.98201   0.00000  Uiso   1.00
C466   C     0.41408   0.38935   0.71047   0.00000  Uiso   1.00
C467   C     0.42838   0.43100   0.67365   0.00000  Uiso   1.00
C468   C     0.38414   0.45659   0.64612   0.00000  Uiso   1.00
C469   C     0.32817   0.51083   0.59124   0.00000  Uiso   1.00
C470   C     0.44446   0.29357   0.73291   0.00000  Uiso   1.00
C471   C     0.48430   0.25470   0.71495   0.00000  Uiso   1.00
C472   C     0.46563   0.19965   0.70629   0.00000  Uiso   1.00
C473   C     0.45682   0.10518   0.68625   0.00000  Uiso   1.00
C474   C     0.35168   0.32730   0.76146   0.00000  Uiso   1.00
C475   C     0.38070   0.34972   0.81171   0.00000  Uiso   1.00
C476   C     0.35584   0.35501   0.86179   0.00000  Uiso   1.00
C477   C     0.38952   0.37643   0.90263   0.00000  Uiso   1.00
C478   C     0.35760   0.37380   0.71945   0.00000  Uiso   1.00
C479   C     0.31333   0.39933   0.69196   0.00000  Uiso   1.00
C480   C     0.32755   0.44101   0.65512   0.00000  Uiso   1.00
C481   C     0.38798   0.27802   0.74189   0.00000  Uiso   1.00
C482   C     0.36924   0.22302   0.73326   0.00000  Uiso   1.00
C483   C     0.40904   0.18407   0.71529   0.00000  Uiso   1.00
H484   H     0.49964   0.36804   0.73792   0.00000  Uiso   1.00
H485   H     0.51460   0.39872   0.83652   0.00000  Uiso   1.00
H486   H     0.47209   0.44303   0.66671   0.00000  Uiso   1.00
H487   H     0.52800   0.26675   0.70800   0.00000  Uiso   1.00
H488   H     0.50628   0.42590   0.94979   0.00000  Uiso   1.00
H489   H     0.41665   0.51930   0.59172   0.00000  Uiso   1.00
H490   H     0.53454   0.14758   0.67878   0.00000  Uiso   1.00
H491   H     0.30770   0.31519   0.76846   0.00000  Uiso   1.00
H492   H     0.31213   0.34297   0.86874   0.00000  Uiso   1.00
H493   H     0.26963   0.38728   0.69892   0.00000  Uiso   1.00
H494   H     0.32553   0.21100   0.74021   0.00000  Uiso   1.00
H495   H     0.34195   0.38065   0.97594   0.00000  Uiso   1.00
H496   H     0.25232   0.47405   0.61786   0.00000  Uiso   1.00
H497   H     0.37021   0.10234   0.70493   0.00000  Uiso   1.00
O498   O     0.43049   0.42252   0.02827   0.00000  Uiso   1.00
O499   O     0.31290   0.54505   0.55849   0.00000  Uiso   1.00
O500   O     0.46757   0.05737   0.67272   0.00000  Uiso   1.00
N501   N     0.46700   0.41142   0.94218   0.00000  Uiso   1.00
N502   N     0.38320   0.49876   0.60741   0.00000  Uiso   1.00
N503   N     0.49342   0.15124   0.68880   0.00000  Uiso   1.00
N504   N     0.37857   0.38708   0.95626   0.00000  Uiso   1.00
N505   N     0.29478   0.47441   0.62148   0.00000  Uiso   1.00
N506   N     0.40499   0.12689   0.70287   0.00000  Uiso   1.00
C507   C     0.95566   0.85593   0.24492   0.00000  Uiso   1.00
C508   C     0.93718   0.86527   0.30273   0.00000  Uiso   1.00
C509   C     0.97089   0.88669   0.34349   0.00000  Uiso   1.00
C510   C     0.94610   0.89201   0.39362   0.00000  Uiso   1.00
C511   C     0.92598   0.90890   0.48201   0.00000  Uiso   1.00
C512   C     0.91408   0.88935   0.21047   0.00000  Uiso   1.00
C513   C     0.92838   0.93100   0.17365   0.00000  Uiso   1.00
C514   C     0.88414   0.95659   0.14612   0.00000  Uiso   1.00
C515   C     0.82817   0.01083   0.09124   0.00000  Uiso   1.00
C516   C     0.94446   0.79357   0.23291   0.00000  Uiso   1.00
C517   C     0.98430   0.75470   0.21495   0.00000  Uiso   1.00
C518   C     0.96563   0.69965   0.20629   0.00000  Uiso   1.00
C519   C     0.95682   0.60518   0.18625   0.00000  Uiso   1.00
C520   C     0.85168   0.82730   0.26146   0.00000  Uiso   1.00
C521   C     0.88070   0.84972   0.31171   0.00000  Uiso   1.00
C522   C     0.85584   0.85501   0.36179   0.00000  Uiso   1.00
C523   C     0.88952   0.87643   0.40263   0.00000  Uiso   1.00
C524   C     0.85760   0.87380   0.21945   0.00000  Uiso   1.00
C525   C     0.81333   0.89933   0.19196   0.00000  Uiso   1.00
C526   C     0.82755   0.94101   0.15512   0.00000  Uiso   1.00
C527   C     0.88798   0.77802   0.24189   0.00000  Uiso   1.00
C528   C     0.86924   0.72302   0.23326   0.00000  Uiso   1.00
C529   C     0.90904   0.68407   0.21529   0.00000  Uiso   1.00
H530   H     0.99964   0.86804   0.23792   0.00000  Uiso   1.00
H531   H     0.01460   0.89872   0.33652   0.00000  Uiso   1.00
H532   H     0.97209   0.94303   0.16671   0.00000  Uiso   1.00
H533   H     0.02800   0.76675   0.20800   0.00000  Uiso   1.00
H534   H     0.00628   0.92590   0.44979   0.00000  Uiso   1.00
H535   H     0.91665   0.01930   0.09172   0.00000  Uiso   1.00
H536   H     0.03454   0.64758   0.17878   0.00000  Uiso   1.00
H537   H     0.80770   0.81519   0.26846   0.00000  Uiso   1.00
H538   H     0.81213   0.84297   0.36874   0.00000  Uiso   1.00
H539   H     0.76963   0.88728   0.19892   0.00000  Uiso   1.00
H540   H     0.82553   0.71100   0.24021   0.00000  Uiso   1.00
H541   H     0.84195   0.88065   0.47594   0.00000  Uiso   1.00
H542   H     0.75232   0.97405   0.11786   0.00000  Uiso   1.00
H543   H     0.87021   0.60234   0.20493   0.00000  Uiso   1.00
O544   O     0.93049   0.92252   0.52827   0.00000  Uiso   1.00
O545   O     0.81290   0.04505   0.05849   0.00000  Uiso   1.00
O546   O     0.96757   0.55737   0.17272   0.00000  Uiso   1.00
N547   N     0.96700   0.91142   0.44218   0.00000  Uiso   1.00
N548   N     0.88320   0.99876   0.10741   0.00000  Uiso   1.00
N549   N     0.99342   0.65124   0.18880   0.00000  Uiso   1.00
N550   N     0.87857   0.88708   0.45626   0.00000  Uiso   1.00
N551   N     0.79478   0.97441   0.12148   0.00000  Uiso   1.00
N552   N     0.90499   0.62689   0.20287   0.00000  Uiso   1.00
C553   C     0.35593   0.04434   0.99492   0.00000  Uiso   1.00
C554   C     0.36527   0.06282   0.05273   0.00000  Uiso   1.00
C555   C     0.38669   0.02911   0.09349   0.00000  Uiso   1.00
C556   C     0.39201   0.05390   0.14362   0.00000  Uiso   1.00
C557   C     0.40890   0.07402   0.23201   0.00000  Uiso   1.00
C558   C     0.38935   0.08592   0.96047   0.00000  Uiso   1.00
C559   C     0.43100   0.07162   0.92365   0.00000  Uiso   1.00
C560   C     0.45659   0.11586   0.89612   0.00000  Uiso   1.00
C561   C     0.51083   0.17183   0.84124   0.00000  Uiso   1.00
C562   C     0.29357   0.05554   0.98291   0.00000  Uiso   1.00
C563   C     0.25470   0.01570   0.96495   0.00000  Uiso   1.00
C564   C     0.19965   0.03437   0.95629   0.00000  Uiso   1.00
C565   C     0.10518   0.04318   0.93625   0.00000  Uiso   1.00
C566   C     0.32730   0.14832   0.01146   0.00000  Uiso   1.00
C567   C     0.34972   0.11930   0.06171   0.00000  Uiso   1.00
C568   C     0.35501   0.14416   0.11179   0.00000  Uiso   1.00
C569   C     0.37643   0.11048   0.15263   0.00000  Uiso   1.00
C570   C     0.37380   0.14240   0.96945   0.00000  Uiso   1.00
C571   C     0.39933   0.18667   0.94196   0.00000  Uiso   1.00
C572   C     0.44101   0.17245   0.90512   0.00000  Uiso   1.00
C573   C     0.27802   0.11202   0.99189   0.00000  Uiso   1.00
C574   C     0.22302   0.13076   0.98326   0.00000  Uiso   1.00
C575   C     0.18407   0.09096   0.96529   0.00000  Uiso   1.00
H576   H     0.36804   0.00036   0.98792   0.00000  Uiso   1.00
H577   H     0.39872   0.98540   0.08652   0.00000  Uiso   1.00
H578   H     0.44303   0.02791   0.91671   0.00000  Uiso   1.00
H579   H     0.26675   0.97200   0.95800   0.00000  Uiso   1.00
H580   H     0.42590   0.99372   0.19979   0.00000  Uiso   1.00
H581   H     0.51930   0.08335   0.84172   0.00000  Uiso   1.00
H582   H     0.14758   0.96546   0.92878   0.00000  Uiso   1.00
H583   H     0.31519   0.19230   0.01846   0.00000  Uiso   1.00
H584   H     0.34297   0.18787   0.11874   0.00000  Uiso   1.00
H585   H     0.38728   0.23037   0.94892   0.00000  Uiso   1.00
H586   H     0.21100   0.17447   0.99021   0.00000  Uiso   1.00
H587   H     0.38065   0.15805   0.22594   0.00000  Uiso   1.00
H588   H     0.47405   0.24768   0.86786   0.00000  Uiso   1.00
H589   H     0.10234   0.12979   0.95493   0.00000  Uiso   1.00
O590   O     0.42252   0.06951   0.27827   0.00000  Uiso   1.00
O591   O     0.54505   0.18710   0.80849   0.00000  Uiso   1.00
O592   O     0.05737   0.03243   0.92272   0.00000  Uiso   1.00
N593   N     0.41142   0.03300   0.19218   0.00000  Uiso   1.00
N594   N     0.49876   0.11680   0.85741   0.00000  Uiso   1.00
N595   N     0.15124   0.00658   0.93880   0.00000  Uiso   1.00
N596   N     0.38708   0.12143   0.20626   0.00000  Uiso   1.00
N597   N     0.47441   0.20522   0.87148   0.00000  Uiso   1.00
N598   N     0.12689   0.09501   0.95287   0.00000  Uiso   1.00
C599   C     0.85593   0.54434   0.49492   0.00000  Uiso   1.00
C600   C     0.86527   0.56282   0.55273   0.00000  Uiso   1.00
C601   C     0.88669   0.52911   0.59349   0.00000  Uiso   1.00
C602   C     0.89201   0.55390   0.64362   0.00000  Uiso   1.00
C603   C     0.90890   0.57402   0.73201   0.00000  Uiso   1.00
C604   C     0.88935   0.58592   0.46047   0.00000  Uiso   1.00
C605   C     0.93100   0.57162   0.42365   0.00000  Uiso   1.00
C606   C     0.95659   0.61586   0.39612   0.00000  Uiso   1.00
C607   C     0.01083   0.67183   0.34124   0.00000  Uiso   1.00
C608   C     0.79357   0.55554   0.48291   0.00000  Uiso   1.00
C609   C     0.75470   0.51570   0.46495   0.00000  Uiso   1.00
C610   C     0.69965   0.53437   0.45629   0.00000  Uiso   1.00
C611   C     0.60518   0.54318   0.43625   0.00000  Uiso   1.00
C612   C     0.82730   0.64832   0.51146   0.00000  Uiso   1.00
C613   C     0.84972   0.61930   0.56171   0.00000  Uiso   1.00
C614   C     0.85501   0.64416   0.61179   0.00000  Uiso   1.00
C615   C     0.87643   0.61048   0.65263   0.00000  Uiso   1.00
C616   C     0.87380   0.64240   0.46945   0.00000  Uiso   1.00
C617   C     0.89933   0.68667   0.44196   0.00000  Uiso   1.00
C618   C     0.94101   0.67245   0.40512   0.00000  Uiso   1.00
C619   C     0.77802   0.61202   0.49189   0.00000  Uiso   1.00
C620   C     0.72302   0.63076   0.48326   0.00000  Uiso   1.00
C621   C     0.68407   0.59096   0.46529   0.00000  Uiso   1.00
H622   H     0.86804   0.50036   0.48792   0.00000  Uiso   1.00
H623   H     0.89872   0.48540   0.58652   0.00000  Uiso   1.00
H624   H     0.94303   0.52791   0.41671   0.00000  Uiso   1.00
H625   H     0.76675   0.47200   0.45800   0.00000  Uiso   1.00
H626   H     0.92590   0.49372   0.69979   0.00000  Uiso   1.00
H627   H     0.01930   0.58335   0.34172   0.00000  Uiso   1.00
H628   H     0.64758   0.46546   0.42878   0.00000  Uiso   1.00
H629   H     0.81519   0.69230   0.51846   0.00000  Uiso   1.00
H630   H     0.84297   0.68787   0.61874   0.00000  Uiso   1.00
H631   H     0.88728   0.73037   0.44892   0.00000  Uiso   1.00
H632   H     0.71100   0.67447   0.49021   0.00000  Uiso   1.00
H633   H     0.88065   0.65805   0.72594   0.00000  Uiso   1.00
H634   H     0.97405   0.74768   0.36786   0.00000  Uiso   1.00
H635   H     0.60234   0.62979   0.45493   0.00000  Uiso   1.00
O636   O     0.92252   0.56951   0.77827   0.00000  Uiso   1.00
O637   O     0.04505   0.68710   0.30849   0.00000  Uiso   1.00
O638   O     0.55737   0.53243   0.42272   0.00000  Uiso   1.00
N639   N     0.91142   0.53300   0.69218   0.00000  Uiso   1.00
N640   N     0.99876   0.61680   0.35741   0.00000  Uiso   1.00
N641   N     0.65124   0.50658   0.43880   0.00000  Uiso   1.00
N642   N     0.88708   0.62143   0.70626   0.00000  Uiso   1.00
N643   N     0.97441   0.70522   0.37148   0.00000  Uiso   1.00
N644   N     0.62689   0.59501   0.45287   0.00000  Uiso   1.00
C645   C     0.14407   0.45566   0.49492   0.00000  Uiso   1.00
C646   C     0.13473   0.43718   0.55273   0.00000  Uiso   1.00
C647   C     0.11331   0.47089   0.59349   0.00000  Uiso   1.00
C648   C     0.10799   0.44610   0.64362   0.00000  Uiso   1.00
C649   C     0.09110   0.42598   0.73201   0.00000  Uiso   1.00
C650   C     0.11065   0.41408   0.46047   0.00000  Uiso   1.00
C651   C     0.06900   0.42838   0.42365   0.00000  Uiso   1.00
C652   C     0.04341   0.38414   0.39612   0.00000  Uiso   1.00
C653   C     0.98917   0.32817   0.34124   0.00000  Uiso   1.00
C654   C     0.20643   0.44446   0.48291   0.00000  Uiso   1.00
C655   C     0.24530   0.48430   0.46495   0.00000  Uiso   1.00
C656   C     0.30035   0.46563   0.45629   0.00000  Uiso   1.00
C657   C     0.39482   0.45682   0.43625   0.00000  Uiso   1.00
C658   C     0.17270   0.35168   0.51146   0.00000  Uiso   1.00
C659   C     0.15028   0.38070   0.56171   0.00000  Uiso   1.00
C660   C     0.14499   0.35584   0.61179   0.00000  Uiso   1.00
C661   C     0.12357   0.38952   0.65263   0.00000  Uiso   1.00
C662   C     0.12620   0.35760   0.46945   0.00000  Uiso   1.00
C663   C     0.10067   0.31333   0.44196   0.00000  Uiso   1.00
C664   C     0.05899   0.32755   0.40512   0.00000  Uiso   1.00
C665   C     0.22198   0.38798   0.49189   0.00000  Uiso   1.00
C666   C     0.27698   0.36924   0.48326   0.00000  Uiso   1.00
C667   C     0.31593   0.40904   0.46529   0.00000  Uiso   1.00
H668   H     0.13196   0.49964   0.48792   0.00000  Uiso   1.00
H669   H     0.10128   0.51460   0.58652   0.00000  Uiso   1.00
H670   H     0.05697   0.47209   0.41671   0.00000  Uiso   1.00
H671   H     0.23325   0.52800   0.45800   0.00000  Uiso   1.00
H672   H     0.07410   0.50628   0.69979   0.00000  Uiso   1.00
H673   H     0.98070   0.41665   0.34172   0.00000  Uiso   1.00
H674   H     0.35242   0.53454   0.42878   0.00000  Uiso   1.00
H675   H     0.18481   0.30770   0.51846   0.00000  Uiso   1.00
H676   H     0.15703   0.31213   0.61874   0.00000  Uiso   1.00
H677   H     0.11272   0.26963   0.44892   0.00000  Uiso   1.00
H678   H     0.28900   0.32553   0.49021   0.00000  Uiso   1.00
H679   H     0.11935   0.34195   0.72594   0.00000  Uiso   1.00
H680   H     0.02595   0.25232   0.36786   0.00000  Uiso   1.00
H681   H     0.39766   0.37021   0.45493   0.00000  Uiso   1.00
O682   O     0.07748   0.43049   0.77827   0.00000  Uiso   1.00
O683   O     0.95495   0.31290   0.30849   0.00000  Uiso   1.00
O684   O     0.44263   0.46757   0.42272   0.00000  Uiso   1.00
N685   N     0.08858   0.46700   0.69218   0.00000  Uiso   1.00
N686   N     0.00124   0.38320   0.35741   0.00000  Uiso   1.00
N687   N     0.34876   0.49342   0.43880   0.00000  Uiso   1.00
N688   N     0.11292   0.37857   0.70626   0.00000  Uiso   1.00
N689   N     0.02559   0.29478   0.37148   0.00000  Uiso   1.00
N690   N     0.37311   0.40499   0.45287   0.00000  Uiso   1.00
C691   C     0.64407   0.95566   0.99492   0.00000  Uiso   1.00
C692   C     0.63473   0.93718   0.05273   0.00000  Uiso   1.00
C693   C     0.61331   0.97089   0.09349   0.00000  Uiso   1.00
C694   C     0.60799   0.94610   0.14362   0.00000  Uiso   1.00
C695   C     0.59110   0.92598   0.23201   0.00000  Uiso   1.00
C696   C     0.61065   0.91408   0.96047   0.00000  Uiso   1.00
C697   C     0.56900   0.92838   0.92365   0.00000  Uiso   1.00
C698   C     0.54341   0.88414   0.89612   0.00000  Uiso   1.00
C699   C     0.48917   0.82817   0.84124   0.00000  Uiso   1.00
C700   C     0.70643   0.94446   0.98291   0.00000  Uiso   1.00
C701   C     0.74530   0.98430   0.96495   0.00000  Uiso   1.00
C702   C     0.80035   0.96563   0.95629   0.00000  Uiso   1.00
C703   C     0.89482   0.95682   0.93625   0.00000  Uiso   1.00
C704   C     0.67270   0.85168   0.01146   0.00000  Uiso   1.00
C705   C     0.65028   0.88070   0.06171   0.00000  Uiso   1.00
C706   C     0.64499   0.85584   0.11179   0.00000  Uiso   1.00
C707   C     0.62357   0.88952   0.15263   0.00000  Uiso   1.00
C708   C     0.62620   0.85760   0.96945   0.00000  Uiso   1.00
C709   C     0.60067   0.81333   0.94196   0.00000  Uiso   1.00
C710   C     0.55899   0.82755   0.90512   0.00000  Uiso   1.00
C711   C     0.72198   0.88798   0.99189   0.00000  Uiso   1.00
C712   C     0.77698   0.86924   0.98326   0.00000  Uiso   1.00
C713   C     0.81593   0.90904   0.96529   0.00000  Uiso   1.00
H714   H     0.63196   0.99964   0.98792   0.00000  Uiso   1.00
H715   H     0.60128   0.01460   0.08652   0.00000  Uiso   1.00
H716   H     0.55697   0.97209   0.91671   0.00000  Uiso   1.00
H717   H     0.73325   0.02800   0.95800   0.00000  Uiso   1.00
H718   H     0.57410   0.00628   0.19979   0.00000  Uiso   1.00
H719   H     0.48070   0.91665   0.84172   0.00000  Uiso   1.00
H720   H     0.85242   0.03454   0.92878   0.00000  Uiso   1.00
H721   H     0.68481   0.80770   0.01846   0.00000  Uiso   1.00
H722   H     0.65703   0.81213   0.11874   0.00000  Uiso   1.00
H723   H     0.61272   0.76963   0.94892   0.00000  Uiso   1.00
H724   H     0.78900   0.82553   0.99021   0.00000  Uiso   1.00
H725   H     0.61935   0.84195   0.22594   0.00000  Uiso   1.00
H726   H     0.52595   0.75232   0.86786   0.00000  Uiso   1.00
H727   H     0.89766   0.87021   0.95493   0.00000  Uiso   1.00
O728   O     0.57748   0.93049   0.27827   0.00000  Uiso   1.00
O729   O     0.45495   0.81290   0.80849   0.00000  Uiso   1.00
O730   O     0.94263   0.96757   0.92272   0.00000  Uiso   1.00
N731   N     0.58858   0.96700   0.19218   0.00000  Uiso   1.00
N732   N     0.50124   0.88320   0.85741   0.00000  Uiso   1.00
N733   N     0.84876   0.99342   0.93880   0.00000  Uiso   1.00
N734   N     0.61292   0.87857   0.20626   0.00000  Uiso   1.00
N735   N     0.52559   0.79478   0.87148   0.00000  Uiso   1.00
N736   N     0.87311   0.90499   0.95287   0.00000  Uiso   1.00
