data_job_03476
_audit_creation_date              2018-12-19
_audit_creation_method            'Materials Studio'
_symmetry_space_group_name_H-M    'P1'
_symmetry_Int_Tables_number       1
_symmetry_cell_setting            triclinic
loop_
_symmetry_equiv_pos_as_xyz
  x,y,z
_cell_length_a                    25.9348
_cell_length_b                    25.9348
_cell_length_c                    17.1980
_cell_angle_alpha                 90.0000
_cell_angle_beta                  90.0000
_cell_angle_gamma                 90.0000
loop_
_atom_site_label
_atom_site_type_symbol
_atom_site_fract_x
_atom_site_fract_y
_atom_site_fract_z
_atom_site_U_iso_or_equiv
_atom_site_adp_type
_atom_site_occupancy
C1     C     0.59341   0.29682   0.48029   0.00000  Uiso   1.00
C2     C     0.64378   0.26934   0.49966   0.00000  Uiso   1.00
C3     C     0.64815   0.22142   0.53495   0.00000  Uiso   1.00
C4     C     0.69767   0.20294   0.54771   0.00000  Uiso   1.00
C5     C     0.76926   0.15596   0.58114   0.00000  Uiso   1.00
C6     C     0.59620   0.34916   0.52049   0.00000  Uiso   1.00
C7     C     0.56056   0.36834   0.57328   0.00000  Uiso   1.00
C8     C     0.57003   0.41705   0.60356   0.00000  Uiso   1.00
C9     C     0.56774   0.49399   0.66928   0.00000  Uiso   1.00
C10    C     0.59519   0.30788   0.39325   0.00000  Uiso   1.00
C11    C     0.55870   0.29237   0.33905   0.00000  Uiso   1.00
C12    C     0.56732   0.30635   0.26221   0.00000  Uiso   1.00
C13    C     0.56346   0.31920   0.13037   0.00000  Uiso   1.00
C14    C     0.67359   0.34923   0.44019   0.00000  Uiso   1.00
C15    C     0.68733   0.29781   0.47788   0.00000  Uiso   1.00
C16    C     0.73687   0.27940   0.49059   0.00000  Uiso   1.00
C17    C     0.74131   0.23146   0.52589   0.00000  Uiso   1.00
C18    C     0.63975   0.37762   0.49871   0.00000  Uiso   1.00
C19    C     0.64928   0.42632   0.52892   0.00000  Uiso   1.00
C20    C     0.61367   0.44557   0.58175   0.00000  Uiso   1.00
C21    C     0.63875   0.33634   0.37147   0.00000  Uiso   1.00
C22    C     0.64742   0.35035   0.29469   0.00000  Uiso   1.00
C23    C     0.61096   0.33486   0.24039   0.00000  Uiso   1.00
H24    H     0.55950   0.27466   0.49725   0.00000  Uiso   1.00
H25    H     0.61443   0.19941   0.55180   0.00000  Uiso   1.00
H26    H     0.52686   0.34630   0.59012   0.00000  Uiso   1.00
H27    H     0.52500   0.27035   0.35593   0.00000  Uiso   1.00
H28    H     0.69455   0.12853   0.60271   0.00000  Uiso   1.00
H29    H     0.50988   0.43828   0.68348   0.00000  Uiso   1.00
H30    H     0.50597   0.27811   0.18964   0.00000  Uiso   1.00
H31    H     0.70750   0.37139   0.42324   0.00000  Uiso   1.00
H32    H     0.77056   0.30144   0.47373   0.00000  Uiso   1.00
H33    H     0.68299   0.44834   0.51205   0.00000  Uiso   1.00
H34    H     0.68113   0.37238   0.27786   0.00000  Uiso   1.00
H35    H     0.82127   0.21135   0.53935   0.00000  Uiso   1.00
H36    H     0.63660   0.52110   0.62012   0.00000  Uiso   1.00
H37    H     0.63269   0.36092   0.12628   0.00000  Uiso   1.00
O38    O     0.79672   0.12218   0.60561   0.00000  Uiso   1.00
O39    O     0.55444   0.52857   0.71156   0.00000  Uiso   1.00
O40    O     0.54931   0.31842   0.06366   0.00000  Uiso   1.00
N41    N     0.71572   0.15762   0.58085   0.00000  Uiso   1.00
N42    N     0.54307   0.44721   0.65638   0.00000  Uiso   1.00
N43    N     0.53940   0.29748   0.19469   0.00000  Uiso   1.00
N44    N     0.78390   0.20218   0.54676   0.00000  Uiso   1.00
N45    N     0.61126   0.49177   0.62228   0.00000  Uiso   1.00
N46    N     0.60759   0.34204   0.16059   0.00000  Uiso   1.00
C47    C     0.09341   0.79682   0.98029   0.00000  Uiso   1.00
C48    C     0.14378   0.76934   0.99966   0.00000  Uiso   1.00
C49    C     0.14815   0.72142   0.03495   0.00000  Uiso   1.00
C50    C     0.19767   0.70294   0.04771   0.00000  Uiso   1.00
C51    C     0.26926   0.65596   0.08114   0.00000  Uiso   1.00
C52    C     0.09620   0.84916   0.02049   0.00000  Uiso   1.00
C53    C     0.06056   0.86834   0.07328   0.00000  Uiso   1.00
C54    C     0.07003   0.91705   0.10356   0.00000  Uiso   1.00
C55    C     0.06774   0.99399   0.16928   0.00000  Uiso   1.00
C56    C     0.09519   0.80788   0.89325   0.00000  Uiso   1.00
C57    C     0.05870   0.79237   0.83905   0.00000  Uiso   1.00
C58    C     0.06732   0.80635   0.76221   0.00000  Uiso   1.00
C59    C     0.06346   0.81920   0.63037   0.00000  Uiso   1.00
C60    C     0.17359   0.84923   0.94019   0.00000  Uiso   1.00
C61    C     0.18733   0.79781   0.97788   0.00000  Uiso   1.00
C62    C     0.23687   0.77940   0.99059   0.00000  Uiso   1.00
C63    C     0.24131   0.73146   0.02589   0.00000  Uiso   1.00
C64    C     0.13975   0.87762   0.99871   0.00000  Uiso   1.00
C65    C     0.14928   0.92632   0.02892   0.00000  Uiso   1.00
C66    C     0.11367   0.94557   0.08175   0.00000  Uiso   1.00
C67    C     0.13875   0.83634   0.87147   0.00000  Uiso   1.00
C68    C     0.14742   0.85035   0.79469   0.00000  Uiso   1.00
C69    C     0.11096   0.83486   0.74039   0.00000  Uiso   1.00
H70    H     0.05950   0.77466   0.99725   0.00000  Uiso   1.00
H71    H     0.11443   0.69941   0.05180   0.00000  Uiso   1.00
H72    H     0.02686   0.84630   0.09012   0.00000  Uiso   1.00
H73    H     0.02500   0.77035   0.85593   0.00000  Uiso   1.00
H74    H     0.19455   0.62853   0.10271   0.00000  Uiso   1.00
H75    H     0.00988   0.93828   0.18348   0.00000  Uiso   1.00
H76    H     0.00597   0.77811   0.68964   0.00000  Uiso   1.00
H77    H     0.20750   0.87139   0.92324   0.00000  Uiso   1.00
H78    H     0.27056   0.80144   0.97373   0.00000  Uiso   1.00
H79    H     0.18299   0.94834   0.01205   0.00000  Uiso   1.00
H80    H     0.18113   0.87238   0.77786   0.00000  Uiso   1.00
H81    H     0.32127   0.71135   0.03935   0.00000  Uiso   1.00
H82    H     0.13660   0.02110   0.12012   0.00000  Uiso   1.00
H83    H     0.13269   0.86092   0.62628   0.00000  Uiso   1.00
O84    O     0.29672   0.62218   0.10561   0.00000  Uiso   1.00
O85    O     0.05444   0.02857   0.21156   0.00000  Uiso   1.00
O86    O     0.04931   0.81842   0.56366   0.00000  Uiso   1.00
N87    N     0.21572   0.65762   0.08085   0.00000  Uiso   1.00
N88    N     0.04307   0.94721   0.15638   0.00000  Uiso   1.00
N89    N     0.03940   0.79748   0.69469   0.00000  Uiso   1.00
N90    N     0.28390   0.70218   0.04676   0.00000  Uiso   1.00
N91    N     0.11126   0.99177   0.12228   0.00000  Uiso   1.00
N92    N     0.10759   0.84204   0.66059   0.00000  Uiso   1.00
C93    C     0.40659   0.70318   0.48029   0.00000  Uiso   1.00
C94    C     0.35622   0.73066   0.49966   0.00000  Uiso   1.00
C95    C     0.35185   0.77858   0.53495   0.00000  Uiso   1.00
C96    C     0.30233   0.79706   0.54771   0.00000  Uiso   1.00
C97    C     0.23074   0.84404   0.58114   0.00000  Uiso   1.00
C98    C     0.40380   0.65084   0.52049   0.00000  Uiso   1.00
C99    C     0.43944   0.63166   0.57328   0.00000  Uiso   1.00
C100   C     0.42997   0.58295   0.60356   0.00000  Uiso   1.00
C101   C     0.43226   0.50601   0.66928   0.00000  Uiso   1.00
C102   C     0.40481   0.69212   0.39325   0.00000  Uiso   1.00
C103   C     0.44130   0.70763   0.33905   0.00000  Uiso   1.00
C104   C     0.43268   0.69365   0.26221   0.00000  Uiso   1.00
C105   C     0.43654   0.68080   0.13037   0.00000  Uiso   1.00
C106   C     0.32641   0.65077   0.44019   0.00000  Uiso   1.00
C107   C     0.31267   0.70219   0.47788   0.00000  Uiso   1.00
C108   C     0.26313   0.72060   0.49059   0.00000  Uiso   1.00
C109   C     0.25869   0.76854   0.52589   0.00000  Uiso   1.00
C110   C     0.36025   0.62238   0.49871   0.00000  Uiso   1.00
C111   C     0.35072   0.57368   0.52892   0.00000  Uiso   1.00
C112   C     0.38633   0.55443   0.58175   0.00000  Uiso   1.00
C113   C     0.36125   0.66366   0.37147   0.00000  Uiso   1.00
C114   C     0.35258   0.64965   0.29469   0.00000  Uiso   1.00
C115   C     0.38904   0.66514   0.24039   0.00000  Uiso   1.00
H116   H     0.44050   0.72534   0.49725   0.00000  Uiso   1.00
H117   H     0.38557   0.80059   0.55180   0.00000  Uiso   1.00
H118   H     0.47314   0.65370   0.59012   0.00000  Uiso   1.00
H119   H     0.47500   0.72965   0.35593   0.00000  Uiso   1.00
H120   H     0.30545   0.87147   0.60271   0.00000  Uiso   1.00
H121   H     0.49012   0.56172   0.68348   0.00000  Uiso   1.00
H122   H     0.49403   0.72189   0.18964   0.00000  Uiso   1.00
H123   H     0.29250   0.62861   0.42324   0.00000  Uiso   1.00
H124   H     0.22944   0.69856   0.47373   0.00000  Uiso   1.00
H125   H     0.31701   0.55166   0.51205   0.00000  Uiso   1.00
H126   H     0.31887   0.62762   0.27786   0.00000  Uiso   1.00
H127   H     0.17873   0.78865   0.53935   0.00000  Uiso   1.00
H128   H     0.36340   0.47890   0.62012   0.00000  Uiso   1.00
H129   H     0.36731   0.63908   0.12628   0.00000  Uiso   1.00
O130   O     0.20328   0.87782   0.60561   0.00000  Uiso   1.00
O131   O     0.44556   0.47143   0.71156   0.00000  Uiso   1.00
O132   O     0.45069   0.68158   0.06366   0.00000  Uiso   1.00
N133   N     0.28428   0.84238   0.58085   0.00000  Uiso   1.00
N134   N     0.45693   0.55279   0.65638   0.00000  Uiso   1.00
N135   N     0.46060   0.70252   0.19469   0.00000  Uiso   1.00
N136   N     0.21610   0.79782   0.54676   0.00000  Uiso   1.00
N137   N     0.38874   0.50823   0.62228   0.00000  Uiso   1.00
N138   N     0.39241   0.65796   0.16059   0.00000  Uiso   1.00
C139   C     0.90659   0.20318   0.98029   0.00000  Uiso   1.00
C140   C     0.85622   0.23066   0.99966   0.00000  Uiso   1.00
C141   C     0.85185   0.27858   0.03495   0.00000  Uiso   1.00
C142   C     0.80233   0.29706   0.04771   0.00000  Uiso   1.00
C143   C     0.73074   0.34404   0.08114   0.00000  Uiso   1.00
C144   C     0.90380   0.15084   0.02049   0.00000  Uiso   1.00
C145   C     0.93944   0.13166   0.07328   0.00000  Uiso   1.00
C146   C     0.92997   0.08295   0.10356   0.00000  Uiso   1.00
C147   C     0.93226   0.00601   0.16928   0.00000  Uiso   1.00
C148   C     0.90481   0.19212   0.89325   0.00000  Uiso   1.00
C149   C     0.94130   0.20763   0.83905   0.00000  Uiso   1.00
C150   C     0.93268   0.19365   0.76221   0.00000  Uiso   1.00
C151   C     0.93654   0.18080   0.63037   0.00000  Uiso   1.00
C152   C     0.82641   0.15077   0.94019   0.00000  Uiso   1.00
C153   C     0.81267   0.20219   0.97788   0.00000  Uiso   1.00
C154   C     0.76313   0.22060   0.99059   0.00000  Uiso   1.00
C155   C     0.75869   0.26854   0.02589   0.00000  Uiso   1.00
C156   C     0.86025   0.12238   0.99871   0.00000  Uiso   1.00
C157   C     0.85072   0.07368   0.02892   0.00000  Uiso   1.00
C158   C     0.88633   0.05443   0.08175   0.00000  Uiso   1.00
C159   C     0.86125   0.16366   0.87147   0.00000  Uiso   1.00
C160   C     0.85258   0.14965   0.79469   0.00000  Uiso   1.00
C161   C     0.88904   0.16514   0.74039   0.00000  Uiso   1.00
H162   H     0.94050   0.22534   0.99725   0.00000  Uiso   1.00
H163   H     0.88557   0.30059   0.05180   0.00000  Uiso   1.00
H164   H     0.97314   0.15370   0.09012   0.00000  Uiso   1.00
H165   H     0.97500   0.22965   0.85593   0.00000  Uiso   1.00
H166   H     0.80545   0.37147   0.10271   0.00000  Uiso   1.00
H167   H     0.99012   0.06172   0.18348   0.00000  Uiso   1.00
H168   H     0.99403   0.22189   0.68964   0.00000  Uiso   1.00
H169   H     0.79250   0.12861   0.92324   0.00000  Uiso   1.00
H170   H     0.72944   0.19856   0.97373   0.00000  Uiso   1.00
H171   H     0.81701   0.05166   0.01205   0.00000  Uiso   1.00
H172   H     0.81887   0.12762   0.77786   0.00000  Uiso   1.00
H173   H     0.67873   0.28865   0.03935   0.00000  Uiso   1.00
H174   H     0.86340   0.97890   0.12012   0.00000  Uiso   1.00
H175   H     0.86731   0.13908   0.62628   0.00000  Uiso   1.00
O176   O     0.70328   0.37782   0.10561   0.00000  Uiso   1.00
O177   O     0.94556   0.97143   0.21156   0.00000  Uiso   1.00
O178   O     0.95069   0.18158   0.56366   0.00000  Uiso   1.00
N179   N     0.78428   0.34238   0.08085   0.00000  Uiso   1.00
N180   N     0.95693   0.05279   0.15638   0.00000  Uiso   1.00
N181   N     0.96060   0.20252   0.69469   0.00000  Uiso   1.00
N182   N     0.71610   0.29782   0.04676   0.00000  Uiso   1.00
N183   N     0.88874   0.00823   0.12228   0.00000  Uiso   1.00
N184   N     0.89241   0.15796   0.66059   0.00000  Uiso   1.00
C185   C     0.29682   0.40659   0.51971   0.00000  Uiso   1.00
C186   C     0.26934   0.35622   0.50034   0.00000  Uiso   1.00
C187   C     0.22142   0.35185   0.46505   0.00000  Uiso   1.00
C188   C     0.20294   0.30233   0.45229   0.00000  Uiso   1.00
C189   C     0.15596   0.23074   0.41886   0.00000  Uiso   1.00
C190   C     0.34916   0.40380   0.47951   0.00000  Uiso   1.00
C191   C     0.36834   0.43944   0.42672   0.00000  Uiso   1.00
C192   C     0.41705   0.42997   0.39644   0.00000  Uiso   1.00
C193   C     0.49399   0.43226   0.33072   0.00000  Uiso   1.00
C194   C     0.30788   0.40481   0.60675   0.00000  Uiso   1.00
C195   C     0.29237   0.44130   0.66095   0.00000  Uiso   1.00
C196   C     0.30635   0.43268   0.73779   0.00000  Uiso   1.00
C197   C     0.31920   0.43654   0.86963   0.00000  Uiso   1.00
C198   C     0.34923   0.32641   0.55981   0.00000  Uiso   1.00
C199   C     0.29781   0.31267   0.52212   0.00000  Uiso   1.00
C200   C     0.27940   0.26313   0.50941   0.00000  Uiso   1.00
C201   C     0.23146   0.25869   0.47411   0.00000  Uiso   1.00
C202   C     0.37762   0.36025   0.50129   0.00000  Uiso   1.00
C203   C     0.42632   0.35072   0.47108   0.00000  Uiso   1.00
C204   C     0.44557   0.38633   0.41825   0.00000  Uiso   1.00
C205   C     0.33634   0.36125   0.62853   0.00000  Uiso   1.00
C206   C     0.35035   0.35258   0.70531   0.00000  Uiso   1.00
C207   C     0.33486   0.38904   0.75961   0.00000  Uiso   1.00
H208   H     0.27466   0.44050   0.50275   0.00000  Uiso   1.00
H209   H     0.19941   0.38557   0.44820   0.00000  Uiso   1.00
H210   H     0.34630   0.47314   0.40988   0.00000  Uiso   1.00
H211   H     0.27035   0.47500   0.64407   0.00000  Uiso   1.00
H212   H     0.12853   0.30545   0.39729   0.00000  Uiso   1.00
H213   H     0.43828   0.49012   0.31652   0.00000  Uiso   1.00
H214   H     0.27811   0.49403   0.81036   0.00000  Uiso   1.00
H215   H     0.37139   0.29250   0.57676   0.00000  Uiso   1.00
H216   H     0.30144   0.22944   0.52627   0.00000  Uiso   1.00
H217   H     0.44834   0.31701   0.48795   0.00000  Uiso   1.00
H218   H     0.37238   0.31887   0.72214   0.00000  Uiso   1.00
H219   H     0.21135   0.17873   0.46065   0.00000  Uiso   1.00
H220   H     0.52110   0.36340   0.37988   0.00000  Uiso   1.00
H221   H     0.36092   0.36731   0.87372   0.00000  Uiso   1.00
O222   O     0.12218   0.20328   0.39439   0.00000  Uiso   1.00
O223   O     0.52857   0.44556   0.28844   0.00000  Uiso   1.00
O224   O     0.31842   0.45069   0.93634   0.00000  Uiso   1.00
N225   N     0.15762   0.28428   0.41915   0.00000  Uiso   1.00
N226   N     0.44721   0.45693   0.34362   0.00000  Uiso   1.00
N227   N     0.29748   0.46060   0.80531   0.00000  Uiso   1.00
N228   N     0.20218   0.21610   0.45324   0.00000  Uiso   1.00
N229   N     0.49177   0.38874   0.37772   0.00000  Uiso   1.00
N230   N     0.34204   0.39241   0.83941   0.00000  Uiso   1.00
C231   C     0.79682   0.90659   0.01971   0.00000  Uiso   1.00
C232   C     0.76934   0.85622   0.00034   0.00000  Uiso   1.00
C233   C     0.72142   0.85185   0.96505   0.00000  Uiso   1.00
C234   C     0.70294   0.80233   0.95229   0.00000  Uiso   1.00
C235   C     0.65596   0.73074   0.91886   0.00000  Uiso   1.00
C236   C     0.84916   0.90380   0.97951   0.00000  Uiso   1.00
C237   C     0.86834   0.93944   0.92672   0.00000  Uiso   1.00
C238   C     0.91705   0.92997   0.89644   0.00000  Uiso   1.00
C239   C     0.99399   0.93226   0.83072   0.00000  Uiso   1.00
C240   C     0.80788   0.90481   0.10675   0.00000  Uiso   1.00
C241   C     0.79237   0.94130   0.16095   0.00000  Uiso   1.00
C242   C     0.80635   0.93268   0.23779   0.00000  Uiso   1.00
C243   C     0.81920   0.93654   0.36963   0.00000  Uiso   1.00
C244   C     0.84923   0.82641   0.05981   0.00000  Uiso   1.00
C245   C     0.79781   0.81267   0.02212   0.00000  Uiso   1.00
C246   C     0.77940   0.76313   0.00941   0.00000  Uiso   1.00
C247   C     0.73146   0.75869   0.97411   0.00000  Uiso   1.00
C248   C     0.87762   0.86025   0.00129   0.00000  Uiso   1.00
C249   C     0.92632   0.85072   0.97108   0.00000  Uiso   1.00
C250   C     0.94557   0.88633   0.91825   0.00000  Uiso   1.00
C251   C     0.83634   0.86125   0.12853   0.00000  Uiso   1.00
C252   C     0.85035   0.85258   0.20531   0.00000  Uiso   1.00
C253   C     0.83486   0.88904   0.25961   0.00000  Uiso   1.00
H254   H     0.77466   0.94050   0.00275   0.00000  Uiso   1.00
H255   H     0.69941   0.88557   0.94820   0.00000  Uiso   1.00
H256   H     0.84630   0.97314   0.90988   0.00000  Uiso   1.00
H257   H     0.77035   0.97500   0.14407   0.00000  Uiso   1.00
H258   H     0.62853   0.80545   0.89729   0.00000  Uiso   1.00
H259   H     0.93828   0.99012   0.81652   0.00000  Uiso   1.00
H260   H     0.77811   0.99403   0.31036   0.00000  Uiso   1.00
H261   H     0.87139   0.79250   0.07676   0.00000  Uiso   1.00
H262   H     0.80144   0.72944   0.02627   0.00000  Uiso   1.00
H263   H     0.94834   0.81701   0.98795   0.00000  Uiso   1.00
H264   H     0.87238   0.81887   0.22214   0.00000  Uiso   1.00
H265   H     0.71135   0.67873   0.96065   0.00000  Uiso   1.00
H266   H     0.02110   0.86340   0.87988   0.00000  Uiso   1.00
H267   H     0.86092   0.86731   0.37372   0.00000  Uiso   1.00
O268   O     0.62218   0.70328   0.89439   0.00000  Uiso   1.00
O269   O     0.02857   0.94556   0.78844   0.00000  Uiso   1.00
O270   O     0.81842   0.95069   0.43634   0.00000  Uiso   1.00
N271   N     0.65762   0.78428   0.91915   0.00000  Uiso   1.00
N272   N     0.94721   0.95693   0.84362   0.00000  Uiso   1.00
N273   N     0.79748   0.96060   0.30531   0.00000  Uiso   1.00
N274   N     0.70218   0.71610   0.95324   0.00000  Uiso   1.00
N275   N     0.99177   0.88874   0.87772   0.00000  Uiso   1.00
N276   N     0.84204   0.89241   0.33941   0.00000  Uiso   1.00
C277   C     0.70318   0.59341   0.51971   0.00000  Uiso   1.00
C278   C     0.73066   0.64378   0.50034   0.00000  Uiso   1.00
C279   C     0.77858   0.64815   0.46505   0.00000  Uiso   1.00
C280   C     0.79706   0.69767   0.45229   0.00000  Uiso   1.00
C281   C     0.84404   0.76926   0.41886   0.00000  Uiso   1.00
C282   C     0.65084   0.59620   0.47951   0.00000  Uiso   1.00
C283   C     0.63166   0.56056   0.42672   0.00000  Uiso   1.00
C284   C     0.58295   0.57003   0.39644   0.00000  Uiso   1.00
C285   C     0.50601   0.56774   0.33072   0.00000  Uiso   1.00
C286   C     0.69212   0.59519   0.60675   0.00000  Uiso   1.00
C287   C     0.70763   0.55870   0.66095   0.00000  Uiso   1.00
C288   C     0.69365   0.56732   0.73779   0.00000  Uiso   1.00
C289   C     0.68080   0.56346   0.86963   0.00000  Uiso   1.00
C290   C     0.65077   0.67359   0.55981   0.00000  Uiso   1.00
C291   C     0.70219   0.68733   0.52212   0.00000  Uiso   1.00
C292   C     0.72060   0.73687   0.50941   0.00000  Uiso   1.00
C293   C     0.76854   0.74131   0.47411   0.00000  Uiso   1.00
C294   C     0.62238   0.63975   0.50129   0.00000  Uiso   1.00
C295   C     0.57368   0.64928   0.47108   0.00000  Uiso   1.00
C296   C     0.55443   0.61367   0.41825   0.00000  Uiso   1.00
C297   C     0.66366   0.63875   0.62853   0.00000  Uiso   1.00
C298   C     0.64965   0.64742   0.70531   0.00000  Uiso   1.00
C299   C     0.66514   0.61096   0.75961   0.00000  Uiso   1.00
H300   H     0.72534   0.55950   0.50275   0.00000  Uiso   1.00
H301   H     0.80059   0.61443   0.44820   0.00000  Uiso   1.00
H302   H     0.65370   0.52686   0.40988   0.00000  Uiso   1.00
H303   H     0.72965   0.52500   0.64407   0.00000  Uiso   1.00
H304   H     0.87147   0.69455   0.39729   0.00000  Uiso   1.00
H305   H     0.56172   0.50988   0.31652   0.00000  Uiso   1.00
H306   H     0.72189   0.50597   0.81036   0.00000  Uiso   1.00
H307   H     0.62861   0.70750   0.57676   0.00000  Uiso   1.00
H308   H     0.69856   0.77056   0.52627   0.00000  Uiso   1.00
H309   H     0.55166   0.68299   0.48795   0.00000  Uiso   1.00
H310   H     0.62762   0.68113   0.72214   0.00000  Uiso   1.00
H311   H     0.78865   0.82127   0.46065   0.00000  Uiso   1.00
H312   H     0.47890   0.63660   0.37988   0.00000  Uiso   1.00
H313   H     0.63908   0.63269   0.87372   0.00000  Uiso   1.00
O314   O     0.87782   0.79672   0.39439   0.00000  Uiso   1.00
O315   O     0.47143   0.55444   0.28844   0.00000  Uiso   1.00
O316   O     0.68158   0.54931   0.93634   0.00000  Uiso   1.00
N317   N     0.84238   0.71572   0.41915   0.00000  Uiso   1.00
N318   N     0.55279   0.54307   0.34362   0.00000  Uiso   1.00
N319   N     0.70252   0.53940   0.80531   0.00000  Uiso   1.00
N320   N     0.79782   0.78390   0.45324   0.00000  Uiso   1.00
N321   N     0.50823   0.61126   0.37772   0.00000  Uiso   1.00
N322   N     0.65796   0.60759   0.83941   0.00000  Uiso   1.00
C323   C     0.20318   0.09341   0.01971   0.00000  Uiso   1.00
C324   C     0.23066   0.14378   0.00034   0.00000  Uiso   1.00
C325   C     0.27858   0.14815   0.96505   0.00000  Uiso   1.00
C326   C     0.29706   0.19767   0.95229   0.00000  Uiso   1.00
C327   C     0.34404   0.26926   0.91886   0.00000  Uiso   1.00
C328   C     0.15084   0.09620   0.97951   0.00000  Uiso   1.00
C329   C     0.13166   0.06056   0.92672   0.00000  Uiso   1.00
C330   C     0.08295   0.07003   0.89644   0.00000  Uiso   1.00
C331   C     0.00601   0.06774   0.83072   0.00000  Uiso   1.00
C332   C     0.19212   0.09519   0.10675   0.00000  Uiso   1.00
C333   C     0.20763   0.05870   0.16095   0.00000  Uiso   1.00
C334   C     0.19365   0.06732   0.23779   0.00000  Uiso   1.00
C335   C     0.18080   0.06346   0.36963   0.00000  Uiso   1.00
C336   C     0.15077   0.17359   0.05981   0.00000  Uiso   1.00
C337   C     0.20219   0.18733   0.02212   0.00000  Uiso   1.00
C338   C     0.22060   0.23687   0.00941   0.00000  Uiso   1.00
C339   C     0.26854   0.24131   0.97411   0.00000  Uiso   1.00
C340   C     0.12238   0.13975   0.00129   0.00000  Uiso   1.00
C341   C     0.07368   0.14928   0.97108   0.00000  Uiso   1.00
C342   C     0.05443   0.11367   0.91825   0.00000  Uiso   1.00
C343   C     0.16366   0.13875   0.12853   0.00000  Uiso   1.00
C344   C     0.14965   0.14742   0.20531   0.00000  Uiso   1.00
C345   C     0.16514   0.11096   0.25961   0.00000  Uiso   1.00
H346   H     0.22534   0.05950   0.00275   0.00000  Uiso   1.00
H347   H     0.30059   0.11443   0.94820   0.00000  Uiso   1.00
H348   H     0.15370   0.02686   0.90988   0.00000  Uiso   1.00
H349   H     0.22965   0.02500   0.14407   0.00000  Uiso   1.00
H350   H     0.37147   0.19455   0.89729   0.00000  Uiso   1.00
H351   H     0.06172   0.00988   0.81652   0.00000  Uiso   1.00
H352   H     0.22189   0.00597   0.31036   0.00000  Uiso   1.00
H353   H     0.12861   0.20750   0.07676   0.00000  Uiso   1.00
H354   H     0.19856   0.27056   0.02627   0.00000  Uiso   1.00
H355   H     0.05166   0.18299   0.98795   0.00000  Uiso   1.00
H356   H     0.12762   0.18113   0.22214   0.00000  Uiso   1.00
H357   H     0.28865   0.32127   0.96065   0.00000  Uiso   1.00
H358   H     0.97890   0.13660   0.87988   0.00000  Uiso   1.00
H359   H     0.13908   0.13269   0.37372   0.00000  Uiso   1.00
O360   O     0.37782   0.29672   0.89439   0.00000  Uiso   1.00
O361   O     0.97143   0.05444   0.78844   0.00000  Uiso   1.00
O362   O     0.18158   0.04931   0.43634   0.00000  Uiso   1.00
N363   N     0.34238   0.21572   0.91915   0.00000  Uiso   1.00
N364   N     0.05279   0.04307   0.84362   0.00000  Uiso   1.00
N365   N     0.20252   0.03940   0.30531   0.00000  Uiso   1.00
N366   N     0.29782   0.28390   0.95324   0.00000  Uiso   1.00
N367   N     0.00823   0.11126   0.87772   0.00000  Uiso   1.00
N368   N     0.15796   0.10759   0.33941   0.00000  Uiso   1.00
C369   C     0.90659   0.29682   0.26971   0.00000  Uiso   1.00
C370   C     0.85622   0.26934   0.25034   0.00000  Uiso   1.00
C371   C     0.85185   0.22142   0.21505   0.00000  Uiso   1.00
C372   C     0.80233   0.20294   0.20229   0.00000  Uiso   1.00
C373   C     0.73074   0.15596   0.16886   0.00000  Uiso   1.00
C374   C     0.90380   0.34916   0.22951   0.00000  Uiso   1.00
C375   C     0.93944   0.36834   0.17672   0.00000  Uiso   1.00
C376   C     0.92997   0.41705   0.14644   0.00000  Uiso   1.00
C377   C     0.93226   0.49399   0.08072   0.00000  Uiso   1.00
C378   C     0.90481   0.30788   0.35675   0.00000  Uiso   1.00
C379   C     0.94130   0.29237   0.41095   0.00000  Uiso   1.00
C380   C     0.93268   0.30635   0.48779   0.00000  Uiso   1.00
C381   C     0.93654   0.31920   0.61963   0.00000  Uiso   1.00
C382   C     0.82641   0.34923   0.30981   0.00000  Uiso   1.00
C383   C     0.81267   0.29781   0.27212   0.00000  Uiso   1.00
C384   C     0.76313   0.27940   0.25941   0.00000  Uiso   1.00
C385   C     0.75869   0.23146   0.22411   0.00000  Uiso   1.00
C386   C     0.86025   0.37762   0.25129   0.00000  Uiso   1.00
C387   C     0.85072   0.42632   0.22108   0.00000  Uiso   1.00
C388   C     0.88633   0.44557   0.16825   0.00000  Uiso   1.00
C389   C     0.86125   0.33634   0.37853   0.00000  Uiso   1.00
C390   C     0.85258   0.35035   0.45531   0.00000  Uiso   1.00
C391   C     0.88904   0.33486   0.50961   0.00000  Uiso   1.00
H392   H     0.94050   0.27466   0.25275   0.00000  Uiso   1.00
H393   H     0.88557   0.19941   0.19820   0.00000  Uiso   1.00
H394   H     0.97314   0.34630   0.15988   0.00000  Uiso   1.00
H395   H     0.97500   0.27035   0.39407   0.00000  Uiso   1.00
H396   H     0.80545   0.12853   0.14729   0.00000  Uiso   1.00
H397   H     0.99012   0.43828   0.06652   0.00000  Uiso   1.00
H398   H     0.99403   0.27811   0.56036   0.00000  Uiso   1.00
H399   H     0.79250   0.37139   0.32676   0.00000  Uiso   1.00
H400   H     0.72944   0.30144   0.27627   0.00000  Uiso   1.00
H401   H     0.81701   0.44834   0.23795   0.00000  Uiso   1.00
H402   H     0.81887   0.37238   0.47214   0.00000  Uiso   1.00
H403   H     0.67873   0.21135   0.21065   0.00000  Uiso   1.00
H404   H     0.86340   0.52110   0.12988   0.00000  Uiso   1.00
H405   H     0.86731   0.36092   0.62372   0.00000  Uiso   1.00
O406   O     0.70328   0.12218   0.14439   0.00000  Uiso   1.00
O407   O     0.94556   0.52857   0.03844   0.00000  Uiso   1.00
O408   O     0.95069   0.31842   0.68634   0.00000  Uiso   1.00
N409   N     0.78428   0.15762   0.16915   0.00000  Uiso   1.00
N410   N     0.95693   0.44721   0.09362   0.00000  Uiso   1.00
N411   N     0.96060   0.29748   0.55531   0.00000  Uiso   1.00
N412   N     0.71610   0.20218   0.20324   0.00000  Uiso   1.00
N413   N     0.88874   0.49177   0.12772   0.00000  Uiso   1.00
N414   N     0.89241   0.34204   0.58941   0.00000  Uiso   1.00
C415   C     0.40659   0.79682   0.76971   0.00000  Uiso   1.00
C416   C     0.35622   0.76934   0.75034   0.00000  Uiso   1.00
C417   C     0.35185   0.72142   0.71505   0.00000  Uiso   1.00
C418   C     0.30233   0.70294   0.70229   0.00000  Uiso   1.00
C419   C     0.23074   0.65596   0.66886   0.00000  Uiso   1.00
C420   C     0.40380   0.84916   0.72951   0.00000  Uiso   1.00
C421   C     0.43944   0.86834   0.67672   0.00000  Uiso   1.00
C422   C     0.42997   0.91705   0.64644   0.00000  Uiso   1.00
C423   C     0.43226   0.99399   0.58072   0.00000  Uiso   1.00
C424   C     0.40481   0.80788   0.85675   0.00000  Uiso   1.00
C425   C     0.44130   0.79237   0.91095   0.00000  Uiso   1.00
C426   C     0.43268   0.80635   0.98779   0.00000  Uiso   1.00
C427   C     0.43654   0.81920   0.11963   0.00000  Uiso   1.00
C428   C     0.32641   0.84923   0.80981   0.00000  Uiso   1.00
C429   C     0.31267   0.79781   0.77212   0.00000  Uiso   1.00
C430   C     0.26313   0.77940   0.75941   0.00000  Uiso   1.00
C431   C     0.25869   0.73146   0.72411   0.00000  Uiso   1.00
C432   C     0.36025   0.87762   0.75129   0.00000  Uiso   1.00
C433   C     0.35072   0.92632   0.72108   0.00000  Uiso   1.00
C434   C     0.38633   0.94557   0.66825   0.00000  Uiso   1.00
C435   C     0.36125   0.83634   0.87853   0.00000  Uiso   1.00
C436   C     0.35258   0.85035   0.95531   0.00000  Uiso   1.00
C437   C     0.38904   0.83486   0.00961   0.00000  Uiso   1.00
H438   H     0.44050   0.77466   0.75275   0.00000  Uiso   1.00
H439   H     0.38557   0.69941   0.69820   0.00000  Uiso   1.00
H440   H     0.47314   0.84630   0.65988   0.00000  Uiso   1.00
H441   H     0.47500   0.77035   0.89407   0.00000  Uiso   1.00
H442   H     0.30545   0.62853   0.64729   0.00000  Uiso   1.00
H443   H     0.49012   0.93828   0.56652   0.00000  Uiso   1.00
H444   H     0.49403   0.77811   0.06036   0.00000  Uiso   1.00
H445   H     0.29250   0.87139   0.82676   0.00000  Uiso   1.00
H446   H     0.22944   0.80144   0.77627   0.00000  Uiso   1.00
H447   H     0.31701   0.94834   0.73795   0.00000  Uiso   1.00
H448   H     0.31887   0.87238   0.97214   0.00000  Uiso   1.00
H449   H     0.17873   0.71135   0.71065   0.00000  Uiso   1.00
H450   H     0.36340   0.02110   0.62988   0.00000  Uiso   1.00
H451   H     0.36731   0.86092   0.12372   0.00000  Uiso   1.00
O452   O     0.20328   0.62218   0.64439   0.00000  Uiso   1.00
O453   O     0.44556   0.02857   0.53844   0.00000  Uiso   1.00
O454   O     0.45069   0.81842   0.18634   0.00000  Uiso   1.00
N455   N     0.28428   0.65762   0.66915   0.00000  Uiso   1.00
N456   N     0.45693   0.94721   0.59362   0.00000  Uiso   1.00
N457   N     0.46060   0.79748   0.05531   0.00000  Uiso   1.00
N458   N     0.21610   0.70218   0.70324   0.00000  Uiso   1.00
N459   N     0.38874   0.99177   0.62772   0.00000  Uiso   1.00
N460   N     0.39241   0.84204   0.08941   0.00000  Uiso   1.00
C461   C     0.09341   0.70318   0.26971   0.00000  Uiso   1.00
C462   C     0.14378   0.73066   0.25034   0.00000  Uiso   1.00
C463   C     0.14815   0.77858   0.21505   0.00000  Uiso   1.00
C464   C     0.19767   0.79706   0.20229   0.00000  Uiso   1.00
C465   C     0.26926   0.84404   0.16886   0.00000  Uiso   1.00
C466   C     0.09620   0.65084   0.22951   0.00000  Uiso   1.00
C467   C     0.06056   0.63166   0.17672   0.00000  Uiso   1.00
C468   C     0.07003   0.58295   0.14644   0.00000  Uiso   1.00
C469   C     0.06774   0.50601   0.08072   0.00000  Uiso   1.00
C470   C     0.09519   0.69212   0.35675   0.00000  Uiso   1.00
C471   C     0.05870   0.70763   0.41095   0.00000  Uiso   1.00
C472   C     0.06732   0.69365   0.48779   0.00000  Uiso   1.00
C473   C     0.06346   0.68080   0.61963   0.00000  Uiso   1.00
C474   C     0.17359   0.65077   0.30981   0.00000  Uiso   1.00
C475   C     0.18733   0.70219   0.27212   0.00000  Uiso   1.00
C476   C     0.23687   0.72060   0.25941   0.00000  Uiso   1.00
C477   C     0.24131   0.76854   0.22411   0.00000  Uiso   1.00
C478   C     0.13975   0.62238   0.25129   0.00000  Uiso   1.00
C479   C     0.14928   0.57368   0.22108   0.00000  Uiso   1.00
C480   C     0.11367   0.55443   0.16825   0.00000  Uiso   1.00
C481   C     0.13875   0.66366   0.37853   0.00000  Uiso   1.00
C482   C     0.14742   0.64965   0.45531   0.00000  Uiso   1.00
C483   C     0.11096   0.66514   0.50961   0.00000  Uiso   1.00
H484   H     0.05950   0.72534   0.25275   0.00000  Uiso   1.00
H485   H     0.11443   0.80059   0.19820   0.00000  Uiso   1.00
H486   H     0.02686   0.65370   0.15988   0.00000  Uiso   1.00
H487   H     0.02500   0.72965   0.39407   0.00000  Uiso   1.00
H488   H     0.19455   0.87147   0.14729   0.00000  Uiso   1.00
H489   H     0.00988   0.56172   0.06652   0.00000  Uiso   1.00
H490   H     0.00597   0.72189   0.56036   0.00000  Uiso   1.00
H491   H     0.20750   0.62861   0.32676   0.00000  Uiso   1.00
H492   H     0.27056   0.69856   0.27627   0.00000  Uiso   1.00
H493   H     0.18299   0.55166   0.23795   0.00000  Uiso   1.00
H494   H     0.18113   0.62762   0.47214   0.00000  Uiso   1.00
H495   H     0.32127   0.78865   0.21065   0.00000  Uiso   1.00
H496   H     0.13660   0.47890   0.12988   0.00000  Uiso   1.00
H497   H     0.13269   0.63908   0.62372   0.00000  Uiso   1.00
O498   O     0.29672   0.87782   0.14439   0.00000  Uiso   1.00
O499   O     0.05444   0.47143   0.03844   0.00000  Uiso   1.00
O500   O     0.04931   0.68158   0.68634   0.00000  Uiso   1.00
N501   N     0.21572   0.84238   0.16915   0.00000  Uiso   1.00
N502   N     0.04307   0.55279   0.09362   0.00000  Uiso   1.00
N503   N     0.03940   0.70252   0.55531   0.00000  Uiso   1.00
N504   N     0.28390   0.79782   0.20324   0.00000  Uiso   1.00
N505   N     0.11126   0.50823   0.12772   0.00000  Uiso   1.00
N506   N     0.10759   0.65796   0.58941   0.00000  Uiso   1.00
C507   C     0.59341   0.20318   0.76971   0.00000  Uiso   1.00
C508   C     0.64378   0.23066   0.75034   0.00000  Uiso   1.00
C509   C     0.64815   0.27858   0.71505   0.00000  Uiso   1.00
C510   C     0.69767   0.29706   0.70229   0.00000  Uiso   1.00
C511   C     0.76926   0.34404   0.66886   0.00000  Uiso   1.00
C512   C     0.59620   0.15084   0.72951   0.00000  Uiso   1.00
C513   C     0.56056   0.13166   0.67672   0.00000  Uiso   1.00
C514   C     0.57003   0.08295   0.64644   0.00000  Uiso   1.00
C515   C     0.56774   0.00601   0.58072   0.00000  Uiso   1.00
C516   C     0.59519   0.19212   0.85675   0.00000  Uiso   1.00
C517   C     0.55870   0.20763   0.91095   0.00000  Uiso   1.00
C518   C     0.56732   0.19365   0.98779   0.00000  Uiso   1.00
C519   C     0.56346   0.18080   0.11963   0.00000  Uiso   1.00
C520   C     0.67359   0.15077   0.80981   0.00000  Uiso   1.00
C521   C     0.68733   0.20219   0.77212   0.00000  Uiso   1.00
C522   C     0.73687   0.22060   0.75941   0.00000  Uiso   1.00
C523   C     0.74131   0.26854   0.72411   0.00000  Uiso   1.00
C524   C     0.63975   0.12238   0.75129   0.00000  Uiso   1.00
C525   C     0.64928   0.07368   0.72108   0.00000  Uiso   1.00
C526   C     0.61367   0.05443   0.66825   0.00000  Uiso   1.00
C527   C     0.63875   0.16366   0.87853   0.00000  Uiso   1.00
C528   C     0.64742   0.14965   0.95531   0.00000  Uiso   1.00
C529   C     0.61096   0.16514   0.00961   0.00000  Uiso   1.00
H530   H     0.55950   0.22534   0.75275   0.00000  Uiso   1.00
H531   H     0.61443   0.30059   0.69820   0.00000  Uiso   1.00
H532   H     0.52686   0.15370   0.65988   0.00000  Uiso   1.00
H533   H     0.52500   0.22965   0.89407   0.00000  Uiso   1.00
H534   H     0.69455   0.37147   0.64729   0.00000  Uiso   1.00
H535   H     0.50988   0.06172   0.56652   0.00000  Uiso   1.00
H536   H     0.50597   0.22189   0.06036   0.00000  Uiso   1.00
H537   H     0.70750   0.12861   0.82676   0.00000  Uiso   1.00
H538   H     0.77056   0.19856   0.77627   0.00000  Uiso   1.00
H539   H     0.68299   0.05166   0.73795   0.00000  Uiso   1.00
H540   H     0.68113   0.12762   0.97214   0.00000  Uiso   1.00
H541   H     0.82127   0.28865   0.71065   0.00000  Uiso   1.00
H542   H     0.63660   0.97890   0.62988   0.00000  Uiso   1.00
H543   H     0.63269   0.13908   0.12372   0.00000  Uiso   1.00
O544   O     0.79672   0.37782   0.64439   0.00000  Uiso   1.00
O545   O     0.55444   0.97143   0.53844   0.00000  Uiso   1.00
O546   O     0.54931   0.18158   0.18634   0.00000  Uiso   1.00
N547   N     0.71572   0.34238   0.66915   0.00000  Uiso   1.00
N548   N     0.54307   0.05279   0.59362   0.00000  Uiso   1.00
N549   N     0.53940   0.20252   0.05531   0.00000  Uiso   1.00
N550   N     0.78390   0.29782   0.70324   0.00000  Uiso   1.00
N551   N     0.61126   0.00823   0.62772   0.00000  Uiso   1.00
N552   N     0.60759   0.15796   0.08941   0.00000  Uiso   1.00
C553   C     0.20318   0.40659   0.23029   0.00000  Uiso   1.00
C554   C     0.23066   0.35622   0.24966   0.00000  Uiso   1.00
C555   C     0.27858   0.35185   0.28495   0.00000  Uiso   1.00
C556   C     0.29706   0.30233   0.29771   0.00000  Uiso   1.00
C557   C     0.34404   0.23074   0.33114   0.00000  Uiso   1.00
C558   C     0.15084   0.40380   0.27049   0.00000  Uiso   1.00
C559   C     0.13166   0.43944   0.32328   0.00000  Uiso   1.00
C560   C     0.08295   0.42997   0.35356   0.00000  Uiso   1.00
C561   C     0.00601   0.43226   0.41928   0.00000  Uiso   1.00
C562   C     0.19212   0.40481   0.14325   0.00000  Uiso   1.00
C563   C     0.20763   0.44130   0.08905   0.00000  Uiso   1.00
C564   C     0.19365   0.43268   0.01221   0.00000  Uiso   1.00
C565   C     0.18080   0.43654   0.88037   0.00000  Uiso   1.00
C566   C     0.15077   0.32641   0.19019   0.00000  Uiso   1.00
C567   C     0.20219   0.31267   0.22788   0.00000  Uiso   1.00
C568   C     0.22060   0.26313   0.24059   0.00000  Uiso   1.00
C569   C     0.26854   0.25869   0.27589   0.00000  Uiso   1.00
C570   C     0.12238   0.36025   0.24871   0.00000  Uiso   1.00
C571   C     0.07368   0.35072   0.27892   0.00000  Uiso   1.00
C572   C     0.05443   0.38633   0.33175   0.00000  Uiso   1.00
C573   C     0.16366   0.36125   0.12147   0.00000  Uiso   1.00
C574   C     0.14965   0.35258   0.04469   0.00000  Uiso   1.00
C575   C     0.16514   0.38904   0.99039   0.00000  Uiso   1.00
H576   H     0.22534   0.44050   0.24725   0.00000  Uiso   1.00
H577   H     0.30059   0.38557   0.30180   0.00000  Uiso   1.00
H578   H     0.15370   0.47314   0.34012   0.00000  Uiso   1.00
H579   H     0.22965   0.47500   0.10593   0.00000  Uiso   1.00
H580   H     0.37147   0.30545   0.35271   0.00000  Uiso   1.00
H581   H     0.06172   0.49012   0.43348   0.00000  Uiso   1.00
H582   H     0.22189   0.49403   0.93964   0.00000  Uiso   1.00
H583   H     0.12861   0.29250   0.17324   0.00000  Uiso   1.00
H584   H     0.19856   0.22944   0.22373   0.00000  Uiso   1.00
H585   H     0.05166   0.31701   0.26205   0.00000  Uiso   1.00
H586   H     0.12762   0.31887   0.02786   0.00000  Uiso   1.00
H587   H     0.28865   0.17873   0.28935   0.00000  Uiso   1.00
H588   H     0.97890   0.36340   0.37012   0.00000  Uiso   1.00
H589   H     0.13908   0.36731   0.87628   0.00000  Uiso   1.00
O590   O     0.37782   0.20328   0.35561   0.00000  Uiso   1.00
O591   O     0.97143   0.44556   0.46156   0.00000  Uiso   1.00
O592   O     0.18158   0.45069   0.81366   0.00000  Uiso   1.00
N593   N     0.34238   0.28428   0.33085   0.00000  Uiso   1.00
N594   N     0.05279   0.45693   0.40638   0.00000  Uiso   1.00
N595   N     0.20252   0.46060   0.94469   0.00000  Uiso   1.00
N596   N     0.29782   0.21610   0.29676   0.00000  Uiso   1.00
N597   N     0.00823   0.38874   0.37228   0.00000  Uiso   1.00
N598   N     0.15796   0.39241   0.91059   0.00000  Uiso   1.00
C599   C     0.70318   0.90659   0.73029   0.00000  Uiso   1.00
C600   C     0.73066   0.85622   0.74966   0.00000  Uiso   1.00
C601   C     0.77858   0.85185   0.78495   0.00000  Uiso   1.00
C602   C     0.79706   0.80233   0.79771   0.00000  Uiso   1.00
C603   C     0.84404   0.73074   0.83114   0.00000  Uiso   1.00
C604   C     0.65084   0.90380   0.77049   0.00000  Uiso   1.00
C605   C     0.63166   0.93944   0.82328   0.00000  Uiso   1.00
C606   C     0.58295   0.92997   0.85356   0.00000  Uiso   1.00
C607   C     0.50601   0.93226   0.91928   0.00000  Uiso   1.00
C608   C     0.69212   0.90481   0.64325   0.00000  Uiso   1.00
C609   C     0.70763   0.94130   0.58905   0.00000  Uiso   1.00
C610   C     0.69365   0.93268   0.51221   0.00000  Uiso   1.00
C611   C     0.68080   0.93654   0.38037   0.00000  Uiso   1.00
C612   C     0.65077   0.82641   0.69019   0.00000  Uiso   1.00
C613   C     0.70219   0.81267   0.72788   0.00000  Uiso   1.00
C614   C     0.72060   0.76313   0.74059   0.00000  Uiso   1.00
C615   C     0.76854   0.75869   0.77589   0.00000  Uiso   1.00
C616   C     0.62238   0.86025   0.74871   0.00000  Uiso   1.00
C617   C     0.57368   0.85072   0.77892   0.00000  Uiso   1.00
C618   C     0.55443   0.88633   0.83175   0.00000  Uiso   1.00
C619   C     0.66366   0.86125   0.62147   0.00000  Uiso   1.00
C620   C     0.64965   0.85258   0.54469   0.00000  Uiso   1.00
C621   C     0.66514   0.88904   0.49039   0.00000  Uiso   1.00
H622   H     0.72534   0.94050   0.74725   0.00000  Uiso   1.00
H623   H     0.80059   0.88557   0.80180   0.00000  Uiso   1.00
H624   H     0.65370   0.97314   0.84012   0.00000  Uiso   1.00
H625   H     0.72965   0.97500   0.60593   0.00000  Uiso   1.00
H626   H     0.87147   0.80545   0.85271   0.00000  Uiso   1.00
H627   H     0.56172   0.99012   0.93348   0.00000  Uiso   1.00
H628   H     0.72189   0.99403   0.43964   0.00000  Uiso   1.00
H629   H     0.62861   0.79250   0.67324   0.00000  Uiso   1.00
H630   H     0.69856   0.72944   0.72373   0.00000  Uiso   1.00
H631   H     0.55166   0.81701   0.76205   0.00000  Uiso   1.00
H632   H     0.62762   0.81887   0.52786   0.00000  Uiso   1.00
H633   H     0.78865   0.67873   0.78935   0.00000  Uiso   1.00
H634   H     0.47890   0.86340   0.87012   0.00000  Uiso   1.00
H635   H     0.63908   0.86731   0.37628   0.00000  Uiso   1.00
O636   O     0.87782   0.70328   0.85561   0.00000  Uiso   1.00
O637   O     0.47143   0.94556   0.96156   0.00000  Uiso   1.00
O638   O     0.68158   0.95069   0.31366   0.00000  Uiso   1.00
N639   N     0.84238   0.78428   0.83085   0.00000  Uiso   1.00
N640   N     0.55279   0.95693   0.90638   0.00000  Uiso   1.00
N641   N     0.70252   0.96060   0.44469   0.00000  Uiso   1.00
N642   N     0.79782   0.71610   0.79676   0.00000  Uiso   1.00
N643   N     0.50823   0.88874   0.87228   0.00000  Uiso   1.00
N644   N     0.65796   0.89241   0.41059   0.00000  Uiso   1.00
C645   C     0.79682   0.59341   0.23029   0.00000  Uiso   1.00
C646   C     0.76934   0.64378   0.24966   0.00000  Uiso   1.00
C647   C     0.72142   0.64815   0.28495   0.00000  Uiso   1.00
C648   C     0.70294   0.69767   0.29771   0.00000  Uiso   1.00
C649   C     0.65596   0.76926   0.33114   0.00000  Uiso   1.00
C650   C     0.84916   0.59620   0.27049   0.00000  Uiso   1.00
C651   C     0.86834   0.56056   0.32328   0.00000  Uiso   1.00
C652   C     0.91705   0.57003   0.35356   0.00000  Uiso   1.00
C653   C     0.99399   0.56774   0.41928   0.00000  Uiso   1.00
C654   C     0.80788   0.59519   0.14325   0.00000  Uiso   1.00
C655   C     0.79237   0.55870   0.08905   0.00000  Uiso   1.00
C656   C     0.80635   0.56732   0.01221   0.00000  Uiso   1.00
C657   C     0.81920   0.56346   0.88037   0.00000  Uiso   1.00
C658   C     0.84923   0.67359   0.19019   0.00000  Uiso   1.00
C659   C     0.79781   0.68733   0.22788   0.00000  Uiso   1.00
C660   C     0.77940   0.73687   0.24059   0.00000  Uiso   1.00
C661   C     0.73146   0.74131   0.27589   0.00000  Uiso   1.00
C662   C     0.87762   0.63975   0.24871   0.00000  Uiso   1.00
C663   C     0.92632   0.64928   0.27892   0.00000  Uiso   1.00
C664   C     0.94557   0.61367   0.33175   0.00000  Uiso   1.00
C665   C     0.83634   0.63875   0.12147   0.00000  Uiso   1.00
C666   C     0.85035   0.64742   0.04469   0.00000  Uiso   1.00
C667   C     0.83486   0.61096   0.99039   0.00000  Uiso   1.00
H668   H     0.77466   0.55950   0.24725   0.00000  Uiso   1.00
H669   H     0.69941   0.61443   0.30180   0.00000  Uiso   1.00
H670   H     0.84630   0.52686   0.34012   0.00000  Uiso   1.00
H671   H     0.77035   0.52500   0.10593   0.00000  Uiso   1.00
H672   H     0.62853   0.69455   0.35271   0.00000  Uiso   1.00
H673   H     0.93828   0.50988   0.43348   0.00000  Uiso   1.00
H674   H     0.77811   0.50597   0.93964   0.00000  Uiso   1.00
H675   H     0.87139   0.70750   0.17324   0.00000  Uiso   1.00
H676   H     0.80144   0.77056   0.22373   0.00000  Uiso   1.00
H677   H     0.94834   0.68299   0.26205   0.00000  Uiso   1.00
H678   H     0.87238   0.68113   0.02786   0.00000  Uiso   1.00
H679   H     0.71135   0.82127   0.28935   0.00000  Uiso   1.00
H680   H     0.02110   0.63660   0.37012   0.00000  Uiso   1.00
H681   H     0.86092   0.63269   0.87628   0.00000  Uiso   1.00
O682   O     0.62218   0.79672   0.35561   0.00000  Uiso   1.00
O683   O     0.02857   0.55444   0.46156   0.00000  Uiso   1.00
O684   O     0.81842   0.54931   0.81366   0.00000  Uiso   1.00
N685   N     0.65762   0.71572   0.33085   0.00000  Uiso   1.00
N686   N     0.94721   0.54307   0.40638   0.00000  Uiso   1.00
N687   N     0.79748   0.53940   0.94469   0.00000  Uiso   1.00
N688   N     0.70218   0.78390   0.29676   0.00000  Uiso   1.00
N689   N     0.99177   0.61126   0.37228   0.00000  Uiso   1.00
N690   N     0.84204   0.60759   0.91059   0.00000  Uiso   1.00
C691   C     0.29682   0.09341   0.73029   0.00000  Uiso   1.00
C692   C     0.26934   0.14378   0.74966   0.00000  Uiso   1.00
C693   C     0.22142   0.14815   0.78495   0.00000  Uiso   1.00
C694   C     0.20294   0.19767   0.79771   0.00000  Uiso   1.00
C695   C     0.15596   0.26926   0.83114   0.00000  Uiso   1.00
C696   C     0.34916   0.09620   0.77049   0.00000  Uiso   1.00
C697   C     0.36834   0.06056   0.82328   0.00000  Uiso   1.00
C698   C     0.41705   0.07003   0.85356   0.00000  Uiso   1.00
C699   C     0.49399   0.06774   0.91928   0.00000  Uiso   1.00
C700   C     0.30788   0.09519   0.64325   0.00000  Uiso   1.00
C701   C     0.29237   0.05870   0.58905   0.00000  Uiso   1.00
C702   C     0.30635   0.06732   0.51221   0.00000  Uiso   1.00
C703   C     0.31920   0.06346   0.38037   0.00000  Uiso   1.00
C704   C     0.34923   0.17359   0.69019   0.00000  Uiso   1.00
C705   C     0.29781   0.18733   0.72788   0.00000  Uiso   1.00
C706   C     0.27940   0.23687   0.74059   0.00000  Uiso   1.00
C707   C     0.23146   0.24131   0.77589   0.00000  Uiso   1.00
C708   C     0.37762   0.13975   0.74871   0.00000  Uiso   1.00
C709   C     0.42632   0.14928   0.77892   0.00000  Uiso   1.00
C710   C     0.44557   0.11367   0.83175   0.00000  Uiso   1.00
C711   C     0.33634   0.13875   0.62147   0.00000  Uiso   1.00
C712   C     0.35035   0.14742   0.54469   0.00000  Uiso   1.00
C713   C     0.33486   0.11096   0.49039   0.00000  Uiso   1.00
H714   H     0.27466   0.05950   0.74725   0.00000  Uiso   1.00
H715   H     0.19941   0.11443   0.80180   0.00000  Uiso   1.00
H716   H     0.34630   0.02686   0.84012   0.00000  Uiso   1.00
H717   H     0.27035   0.02500   0.60593   0.00000  Uiso   1.00
H718   H     0.12853   0.19455   0.85271   0.00000  Uiso   1.00
H719   H     0.43828   0.00988   0.93348   0.00000  Uiso   1.00
H720   H     0.27811   0.00597   0.43964   0.00000  Uiso   1.00
H721   H     0.37139   0.20750   0.67324   0.00000  Uiso   1.00
H722   H     0.30144   0.27056   0.72373   0.00000  Uiso   1.00
H723   H     0.44834   0.18299   0.76205   0.00000  Uiso   1.00
H724   H     0.37238   0.18113   0.52786   0.00000  Uiso   1.00
H725   H     0.21135   0.32127   0.78935   0.00000  Uiso   1.00
H726   H     0.52110   0.13660   0.87012   0.00000  Uiso   1.00
H727   H     0.36092   0.13269   0.37628   0.00000  Uiso   1.00
O728   O     0.12218   0.29672   0.85561   0.00000  Uiso   1.00
O729   O     0.52857   0.05444   0.96156   0.00000  Uiso   1.00
O730   O     0.31842   0.04931   0.31366   0.00000  Uiso   1.00
N731   N     0.15762   0.21572   0.83085   0.00000  Uiso   1.00
N732   N     0.44721   0.04307   0.90638   0.00000  Uiso   1.00
N733   N     0.29748   0.03940   0.44469   0.00000  Uiso   1.00
N734   N     0.20218   0.28390   0.79676   0.00000  Uiso   1.00
N735   N     0.49177   0.11126   0.87228   0.00000  Uiso   1.00
N736   N     0.34204   0.10759   0.41059   0.00000  Uiso   1.00
