data_job_06457
_audit_creation_date              2018-12-19
_audit_creation_method            'Materials Studio'
_symmetry_space_group_name_H-M    'P1'
_symmetry_Int_Tables_number       1
_symmetry_cell_setting            triclinic
loop_
_symmetry_equiv_pos_as_xyz
  x,y,z
_cell_length_a                    37.3968
_cell_length_b                    23.0461
_cell_length_c                    30.7949
_cell_angle_alpha                 90.0000
_cell_angle_beta                  140.5085
_cell_angle_gamma                 90.0000
loop_
_atom_site_label
_atom_site_type_symbol
_atom_site_fract_x
_atom_site_fract_y
_atom_site_fract_z
_atom_site_U_iso_or_equiv
_atom_site_adp_type
_atom_site_occupancy
C1     C     0.13768   0.01661   0.90257   0.00000  Uiso   1.00
C2     C     0.08564   0.02121   0.88253   0.00000  Uiso   1.00
C3     C     0.04666   0.06601   0.84525   0.00000  Uiso   1.00
C4     C     0.00197   0.06221   0.83222   0.00000  Uiso   1.00
C5     C     0.92201   0.07650   0.79757   0.00000  Uiso   1.00
C6     C     0.18755   0.01084   0.98013   0.00000  Uiso   1.00
C7     C     0.23426   0.04692   0.02490   0.00000  Uiso   1.00
C8     C     0.27535   0.03438   0.09403   0.00000  Uiso   1.00
C9     C     0.35363   0.03255   0.21090   0.00000  Uiso   1.00
C10    C     0.13295   0.95858   0.87464   0.00000  Uiso   1.00
C11    C     0.13376   0.95071   0.83073   0.00000  Uiso   1.00
C12    C     0.12889   0.89417   0.81105   0.00000  Uiso   1.00
C13    C     0.62240   0.31119   0.76413   0.00000  Uiso   1.00
C14    C     0.12761   0.93020   0.94574   0.00000  Uiso   1.00
C15    C     0.08018   0.97427   0.90599   0.00000  Uiso   1.00
C16    C     0.03552   0.97040   0.89301   0.00000  Uiso   1.00
C17    C     0.99649   0.01519   0.85571   0.00000  Uiso   1.00
C18    C     0.18208   0.96390   0.00358   0.00000  Uiso   1.00
C19    C     0.22312   0.95131   0.07266   0.00000  Uiso   1.00
C20    C     0.26987   0.98736   0.11752   0.00000  Uiso   1.00
C21    C     0.12748   0.91164   0.89809   0.00000  Uiso   1.00
C22    C     0.12262   0.85510   0.87849   0.00000  Uiso   1.00
C23    C     0.12342   0.84714   0.83455   0.00000  Uiso   1.00
H24    H     0.14194   0.05316   0.88432   0.00000  Uiso   1.00
H25    H     0.05091   0.10233   0.82711   0.00000  Uiso   1.00
H26    H     0.23848   0.08323   0.00674   0.00000  Uiso   1.00
H27    H     0.13799   0.98704   0.81259   0.00000  Uiso   1.00
H28    H     0.94759   0.13616   0.77405   0.00000  Uiso   1.00
H29    H     0.34309   0.09588   0.15280   0.00000  Uiso   1.00
H30    H     0.63120   0.39304   0.74340   0.00000  Uiso   1.00
H31    H     0.12335   0.89366   0.96400   0.00000  Uiso   1.00
H32    H     0.03130   0.93407   0.91116   0.00000  Uiso   1.00
H33    H     0.21887   0.91498   0.09079   0.00000  Uiso   1.00
H34    H     0.11839   0.81879   0.89664   0.00000  Uiso   1.00
H35    H     0.93168   0.99960   0.84227   0.00000  Uiso   1.00
H36    H     0.32718   0.95932   0.22102   0.00000  Uiso   1.00
H37    H     0.61529   0.25648   0.81162   0.00000  Uiso   1.00
O38    O     0.87943   0.09735   0.77199   0.00000  Uiso   1.00
O39    O     0.39831   0.04451   0.26888   0.00000  Uiso   1.00
O40    O     0.62031   0.27838   0.73177   0.00000  Uiso   1.00
N41    N     0.95647   0.09846   0.79735   0.00000  Uiso   1.00
N42    N     0.32624   0.06081   0.15145   0.00000  Uiso   1.00
N43    N     0.62815   0.37117   0.76872   0.00000  Uiso   1.00
N44    N     0.94791   0.02498   0.83405   0.00000  Uiso   1.00
N45    N     0.31768   0.98733   0.18816   0.00000  Uiso   1.00
N46    N     0.61959   0.29769   0.80543   0.00000  Uiso   1.00
C47    C     0.37284   0.20618   0.97108   0.00000  Uiso   1.00
C48    C     0.87707   0.76222   0.94892   0.00000  Uiso   1.00
C49    C     0.88055   0.76610   0.90729   0.00000  Uiso   1.00
C50    C     0.88413   0.82139   0.89295   0.00000  Uiso   1.00
C51    C     0.89071   0.90086   0.85456   0.00000  Uiso   1.00
C52    C     0.42188   0.20721   0.04893   0.00000  Uiso   1.00
C53    C     0.46303   0.16482   0.09139   0.00000  Uiso   1.00
C54    C     0.50433   0.17379   0.16124   0.00000  Uiso   1.00
C55    C     0.58046   0.16783   0.27812   0.00000  Uiso   1.00
C56    C     0.31970   0.21167   0.94868   0.00000  Uiso   1.00
C57    C     0.27494   0.17303   0.90686   0.00000  Uiso   1.00
C58    C     0.23022   0.18576   0.89233   0.00000  Uiso   1.00
C59    C     0.14770   0.18673   0.85356   0.00000  Uiso   1.00
C60    C     0.87302   0.79747   0.01965   0.00000  Uiso   1.00
C61    C     0.87717   0.81180   0.97530   0.00000  Uiso   1.00
C62    C     0.88075   0.86710   0.96103   0.00000  Uiso   1.00
C63    C     0.88423   0.87106   0.91938   0.00000  Uiso   1.00
C64    C     0.42198   0.25679   0.07532   0.00000  Uiso   1.00
C65    C     0.46323   0.26582   0.14512   0.00000  Uiso   1.00
C66    C     0.50443   0.22347   0.18767   0.00000  Uiso   1.00
C67    C     0.31980   0.26125   0.97507   0.00000  Uiso   1.00
C68    C     0.27515   0.27404   0.96060   0.00000  Uiso   1.00
C69    C     0.23032   0.23543   0.91876   0.00000  Uiso   1.00
H70    H     0.37277   0.16758   0.95054   0.00000  Uiso   1.00
H71    H     0.88047   0.72772   0.88688   0.00000  Uiso   1.00
H72    H     0.46294   0.12645   0.07095   0.00000  Uiso   1.00
H73    H     0.27488   0.13467   0.88646   0.00000  Uiso   1.00
H74    H     0.88908   0.81627   0.82796   0.00000  Uiso   1.00
H75    H     0.56296   0.10273   0.21608   0.00000  Uiso   1.00
H76    H     0.16640   0.12005   0.82703   0.00000  Uiso   1.00
H77    H     0.87310   0.83607   0.04020   0.00000  Uiso   1.00
H78    H     0.88082   0.90546   0.98145   0.00000  Uiso   1.00
H79    H     0.46329   0.30419   0.16552   0.00000  Uiso   1.00
H80    H     0.27524   0.31241   0.98103   0.00000  Uiso   1.00
H81    H     0.88937   0.96053   0.90472   0.00000  Uiso   1.00
H82    H     0.56324   0.24699   0.29284   0.00000  Uiso   1.00
H83    H     0.16669   0.26431   0.90379   0.00000  Uiso   1.00
O84    O     0.89432   0.93100   0.82610   0.00000  Uiso   1.00
O85    O     0.62243   0.15085   0.33529   0.00000  Uiso   1.00
O86    O     0.10216   0.17357   0.82487   0.00000  Uiso   1.00
N87    N     0.88808   0.84070   0.85408   0.00000  Uiso   1.00
N88    N     0.55065   0.14106   0.21694   0.00000  Uiso   1.00
N89    N     0.17991   0.15724   0.85323   0.00000  Uiso   1.00
N90    N     0.88823   0.91832   0.89538   0.00000  Uiso   1.00
N91    N     0.55080   0.21868   0.25825   0.00000  Uiso   1.00
N92    N     0.18006   0.23487   0.89454   0.00000  Uiso   1.00
C93    C     0.85019   0.35800   0.92142   0.00000  Uiso   1.00
C94    C     0.84261   0.30583   0.88441   0.00000  Uiso   1.00
C95    C     0.79563   0.27018   0.83874   0.00000  Uiso   1.00
C96    C     0.79686   0.22472   0.81033   0.00000  Uiso   1.00
C97    C     0.77802   0.14513   0.75036   0.00000  Uiso   1.00
C98    C     0.90408   0.34676   0.99740   0.00000  Uiso   1.00
C99    C     0.90879   0.34554   0.04672   0.00000  Uiso   1.00
C100   C     0.96177   0.33454   0.11343   0.00000  Uiso   1.00
C101   C     0.03837   0.31854   0.22888   0.00000  Uiso   1.00
C102   C     0.86264   0.40951   0.90352   0.00000  Uiso   1.00
C103   C     0.83251   0.46105   0.87393   0.00000  Uiso   1.00
C104   C     0.35061   0.00288   0.86161   0.00000  Uiso   1.00
C105   C     0.86286   0.58430   0.83130   0.00000  Uiso   1.00
C106   C     0.93592   0.34065   0.95218   0.00000  Uiso   1.00
C107   C     0.88918   0.29641   0.90113   0.00000  Uiso   1.00
C108   C     0.89048   0.25099   0.87277   0.00000  Uiso   1.00
C109   C     0.84351   0.21528   0.82706   0.00000  Uiso   1.00
C110   C     0.95065   0.33734   0.01411   0.00000  Uiso   1.00
C111   C     0.00364   0.32634   0.08076   0.00000  Uiso   1.00
C112   C     0.00842   0.32510   0.13017   0.00000  Uiso   1.00
C113   C     0.90920   0.40008   0.92023   0.00000  Uiso   1.00
C114   C     0.92735   0.44185   0.90796   0.00000  Uiso   1.00
C115   C     0.89726   0.49344   0.87835   0.00000  Uiso   1.00
H116   H     0.81395   0.36533   0.90841   0.00000  Uiso   1.00
H117   H     0.75961   0.27749   0.82583   0.00000  Uiso   1.00
H118   H     0.37275   0.85284   0.03378   0.00000  Uiso   1.00
H119   H     0.29648   0.96832   0.86101   0.00000  Uiso   1.00
H120   H     0.71991   0.17592   0.74165   0.00000  Uiso   1.00
H121   H     0.45848   0.83482   0.18013   0.00000  Uiso   1.00
H122   H     0.29764   0.07835   0.81581   0.00000  Uiso   1.00
H123   H     0.97218   0.33331   0.96519   0.00000  Uiso   1.00
H124   H     0.92652   0.24371   0.88572   0.00000  Uiso   1.00
H125   H     0.03966   0.31906   0.09367   0.00000  Uiso   1.00
H126   H     0.96339   0.43454   0.92090   0.00000  Uiso   1.00
H127   H     0.85538   0.14851   0.79026   0.00000  Uiso   1.00
H128   H     0.09395   0.30741   0.22875   0.00000  Uiso   1.00
H129   H     0.43312   0.05093   0.86442   0.00000  Uiso   1.00
O130   O     0.75476   0.10383   0.71267   0.00000  Uiso   1.00
O131   O     0.56776   0.81232   0.28794   0.00000  Uiso   1.00
O132   O     0.85675   0.63181   0.80995   0.00000  Uiso   1.00
N133   N     0.75805   0.18177   0.76399   0.00000  Uiso   1.00
N134   N     0.48110   0.83033   0.17394   0.00000  Uiso   1.00
N135   N     0.33074   0.05801   0.83335   0.00000  Uiso   1.00
N136   N     0.83095   0.16702   0.79014   0.00000  Uiso   1.00
N137   N     0.05399   0.31557   0.20010   0.00000  Uiso   1.00
N138   N     0.90364   0.54326   0.85950   0.00000  Uiso   1.00
C139   C     0.63768   0.51661   0.90257   0.00000  Uiso   1.00
C140   C     0.58564   0.52121   0.88253   0.00000  Uiso   1.00
C141   C     0.54666   0.56601   0.84525   0.00000  Uiso   1.00
C142   C     0.50197   0.56221   0.83222   0.00000  Uiso   1.00
C143   C     0.42201   0.57650   0.79757   0.00000  Uiso   1.00
C144   C     0.68755   0.51084   0.98013   0.00000  Uiso   1.00
C145   C     0.73426   0.54692   0.02490   0.00000  Uiso   1.00
C146   C     0.77535   0.53438   0.09403   0.00000  Uiso   1.00
C147   C     0.85363   0.53255   0.21090   0.00000  Uiso   1.00
C148   C     0.63295   0.45858   0.87464   0.00000  Uiso   1.00
C149   C     0.63376   0.45071   0.83073   0.00000  Uiso   1.00
C150   C     0.62889   0.39417   0.81105   0.00000  Uiso   1.00
C151   C     0.12240   0.81119   0.76413   0.00000  Uiso   1.00
C152   C     0.62761   0.43020   0.94574   0.00000  Uiso   1.00
C153   C     0.58018   0.47427   0.90599   0.00000  Uiso   1.00
C154   C     0.53552   0.47040   0.89301   0.00000  Uiso   1.00
C155   C     0.49649   0.51519   0.85571   0.00000  Uiso   1.00
C156   C     0.68208   0.46390   0.00358   0.00000  Uiso   1.00
C157   C     0.72312   0.45131   0.07266   0.00000  Uiso   1.00
C158   C     0.76987   0.48736   0.11752   0.00000  Uiso   1.00
C159   C     0.62748   0.41164   0.89809   0.00000  Uiso   1.00
C160   C     0.62262   0.35510   0.87849   0.00000  Uiso   1.00
C161   C     0.62342   0.34714   0.83455   0.00000  Uiso   1.00
H162   H     0.64194   0.55316   0.88432   0.00000  Uiso   1.00
H163   H     0.55091   0.60233   0.82711   0.00000  Uiso   1.00
H164   H     0.73848   0.58323   0.00674   0.00000  Uiso   1.00
H165   H     0.63799   0.48704   0.81259   0.00000  Uiso   1.00
H166   H     0.44759   0.63616   0.77405   0.00000  Uiso   1.00
H167   H     0.84309   0.59588   0.15280   0.00000  Uiso   1.00
H168   H     0.13120   0.89304   0.74340   0.00000  Uiso   1.00
H169   H     0.62335   0.39366   0.96400   0.00000  Uiso   1.00
H170   H     0.53130   0.43407   0.91116   0.00000  Uiso   1.00
H171   H     0.71887   0.41498   0.09079   0.00000  Uiso   1.00
H172   H     0.61839   0.31879   0.89664   0.00000  Uiso   1.00
H173   H     0.43168   0.49960   0.84227   0.00000  Uiso   1.00
H174   H     0.82718   0.45932   0.22102   0.00000  Uiso   1.00
H175   H     0.11529   0.75648   0.81162   0.00000  Uiso   1.00
O176   O     0.37943   0.59735   0.77199   0.00000  Uiso   1.00
O177   O     0.89831   0.54451   0.26888   0.00000  Uiso   1.00
O178   O     0.12031   0.77838   0.73177   0.00000  Uiso   1.00
N179   N     0.45647   0.59846   0.79735   0.00000  Uiso   1.00
N180   N     0.82624   0.56081   0.15145   0.00000  Uiso   1.00
N181   N     0.12815   0.87117   0.76872   0.00000  Uiso   1.00
N182   N     0.44791   0.52498   0.83405   0.00000  Uiso   1.00
N183   N     0.81768   0.48733   0.18816   0.00000  Uiso   1.00
N184   N     0.11959   0.79769   0.80543   0.00000  Uiso   1.00
C185   C     0.87284   0.70618   0.97108   0.00000  Uiso   1.00
C186   C     0.37707   0.26222   0.94892   0.00000  Uiso   1.00
C187   C     0.38055   0.26610   0.90729   0.00000  Uiso   1.00
C188   C     0.38413   0.32139   0.89295   0.00000  Uiso   1.00
C189   C     0.39071   0.40086   0.85456   0.00000  Uiso   1.00
C190   C     0.92188   0.70721   0.04893   0.00000  Uiso   1.00
C191   C     0.96303   0.66482   0.09139   0.00000  Uiso   1.00
C192   C     0.00433   0.67379   0.16124   0.00000  Uiso   1.00
C193   C     0.08046   0.66783   0.27812   0.00000  Uiso   1.00
C194   C     0.81970   0.71167   0.94868   0.00000  Uiso   1.00
C195   C     0.77494   0.67303   0.90686   0.00000  Uiso   1.00
C196   C     0.73022   0.68576   0.89233   0.00000  Uiso   1.00
C197   C     0.64770   0.68673   0.85356   0.00000  Uiso   1.00
C198   C     0.37302   0.29747   0.01965   0.00000  Uiso   1.00
C199   C     0.37717   0.31180   0.97530   0.00000  Uiso   1.00
C200   C     0.38075   0.36710   0.96103   0.00000  Uiso   1.00
C201   C     0.38423   0.37106   0.91938   0.00000  Uiso   1.00
C202   C     0.92198   0.75679   0.07532   0.00000  Uiso   1.00
C203   C     0.96323   0.76582   0.14512   0.00000  Uiso   1.00
C204   C     0.00443   0.72347   0.18767   0.00000  Uiso   1.00
C205   C     0.81980   0.76125   0.97507   0.00000  Uiso   1.00
C206   C     0.77515   0.77404   0.96060   0.00000  Uiso   1.00
C207   C     0.73032   0.73543   0.91876   0.00000  Uiso   1.00
H208   H     0.87277   0.66758   0.95054   0.00000  Uiso   1.00
H209   H     0.38047   0.22772   0.88688   0.00000  Uiso   1.00
H210   H     0.96294   0.62645   0.07095   0.00000  Uiso   1.00
H211   H     0.77488   0.63467   0.88646   0.00000  Uiso   1.00
H212   H     0.38908   0.31627   0.82796   0.00000  Uiso   1.00
H213   H     0.06296   0.60273   0.21608   0.00000  Uiso   1.00
H214   H     0.66640   0.62005   0.82703   0.00000  Uiso   1.00
H215   H     0.37310   0.33607   0.04020   0.00000  Uiso   1.00
H216   H     0.38082   0.40546   0.98145   0.00000  Uiso   1.00
H217   H     0.96329   0.80419   0.16552   0.00000  Uiso   1.00
H218   H     0.77524   0.81241   0.98103   0.00000  Uiso   1.00
H219   H     0.38937   0.46053   0.90472   0.00000  Uiso   1.00
H220   H     0.06324   0.74699   0.29284   0.00000  Uiso   1.00
H221   H     0.66669   0.76431   0.90379   0.00000  Uiso   1.00
O222   O     0.39432   0.43100   0.82610   0.00000  Uiso   1.00
O223   O     0.12243   0.65085   0.33529   0.00000  Uiso   1.00
O224   O     0.60216   0.67357   0.82487   0.00000  Uiso   1.00
N225   N     0.38808   0.34070   0.85408   0.00000  Uiso   1.00
N226   N     0.05065   0.64106   0.21694   0.00000  Uiso   1.00
N227   N     0.67991   0.65724   0.85323   0.00000  Uiso   1.00
N228   N     0.38823   0.41832   0.89538   0.00000  Uiso   1.00
N229   N     0.05080   0.71868   0.25825   0.00000  Uiso   1.00
N230   N     0.68006   0.73487   0.89454   0.00000  Uiso   1.00
C231   C     0.35019   0.85800   0.92142   0.00000  Uiso   1.00
C232   C     0.34261   0.80583   0.88441   0.00000  Uiso   1.00
C233   C     0.29563   0.77018   0.83874   0.00000  Uiso   1.00
C234   C     0.29686   0.72472   0.81033   0.00000  Uiso   1.00
C235   C     0.27802   0.64513   0.75036   0.00000  Uiso   1.00
C236   C     0.40408   0.84676   0.99740   0.00000  Uiso   1.00
C237   C     0.40879   0.84554   0.04672   0.00000  Uiso   1.00
C238   C     0.46177   0.83454   0.11343   0.00000  Uiso   1.00
C239   C     0.53837   0.81854   0.22888   0.00000  Uiso   1.00
C240   C     0.36264   0.90951   0.90352   0.00000  Uiso   1.00
C241   C     0.33251   0.96105   0.87393   0.00000  Uiso   1.00
C242   C     0.85061   0.50288   0.86161   0.00000  Uiso   1.00
C243   C     0.36286   0.08430   0.83130   0.00000  Uiso   1.00
C244   C     0.43592   0.84065   0.95218   0.00000  Uiso   1.00
C245   C     0.38918   0.79641   0.90113   0.00000  Uiso   1.00
C246   C     0.39048   0.75099   0.87277   0.00000  Uiso   1.00
C247   C     0.34351   0.71528   0.82706   0.00000  Uiso   1.00
C248   C     0.45065   0.83734   0.01411   0.00000  Uiso   1.00
C249   C     0.50364   0.82634   0.08076   0.00000  Uiso   1.00
C250   C     0.50842   0.82510   0.13017   0.00000  Uiso   1.00
C251   C     0.40920   0.90008   0.92023   0.00000  Uiso   1.00
C252   C     0.42735   0.94185   0.90796   0.00000  Uiso   1.00
C253   C     0.39726   0.99344   0.87835   0.00000  Uiso   1.00
H254   H     0.31395   0.86533   0.90841   0.00000  Uiso   1.00
H255   H     0.25961   0.77749   0.82583   0.00000  Uiso   1.00
H256   H     0.87275   0.35284   0.03378   0.00000  Uiso   1.00
H257   H     0.79648   0.46832   0.86101   0.00000  Uiso   1.00
H258   H     0.21991   0.67592   0.74165   0.00000  Uiso   1.00
H259   H     0.95848   0.33482   0.18013   0.00000  Uiso   1.00
H260   H     0.79764   0.57835   0.81581   0.00000  Uiso   1.00
H261   H     0.47218   0.83331   0.96519   0.00000  Uiso   1.00
H262   H     0.42652   0.74371   0.88572   0.00000  Uiso   1.00
H263   H     0.53966   0.81906   0.09367   0.00000  Uiso   1.00
H264   H     0.46339   0.93454   0.92090   0.00000  Uiso   1.00
H265   H     0.35538   0.64851   0.79026   0.00000  Uiso   1.00
H266   H     0.59395   0.80741   0.22875   0.00000  Uiso   1.00
H267   H     0.93312   0.55093   0.86442   0.00000  Uiso   1.00
O268   O     0.25476   0.60383   0.71267   0.00000  Uiso   1.00
O269   O     0.06776   0.31232   0.28794   0.00000  Uiso   1.00
O270   O     0.35675   0.13181   0.80995   0.00000  Uiso   1.00
N271   N     0.25805   0.68177   0.76399   0.00000  Uiso   1.00
N272   N     0.98110   0.33033   0.17394   0.00000  Uiso   1.00
N273   N     0.83074   0.55801   0.83335   0.00000  Uiso   1.00
N274   N     0.33095   0.66702   0.79014   0.00000  Uiso   1.00
N275   N     0.55399   0.81557   0.20010   0.00000  Uiso   1.00
N276   N     0.40364   0.04326   0.85950   0.00000  Uiso   1.00
C277   C     0.86232   0.01661   0.59743   0.00000  Uiso   1.00
C278   C     0.91436   0.02121   0.61747   0.00000  Uiso   1.00
C279   C     0.95334   0.06601   0.65475   0.00000  Uiso   1.00
C280   C     0.99803   0.06221   0.66778   0.00000  Uiso   1.00
C281   C     0.07799   0.07650   0.70243   0.00000  Uiso   1.00
C282   C     0.81245   0.01084   0.51987   0.00000  Uiso   1.00
C283   C     0.76574   0.04692   0.47510   0.00000  Uiso   1.00
C284   C     0.72465   0.03438   0.40597   0.00000  Uiso   1.00
C285   C     0.64637   0.03255   0.28910   0.00000  Uiso   1.00
C286   C     0.86705   0.95858   0.62536   0.00000  Uiso   1.00
C287   C     0.86624   0.95071   0.66927   0.00000  Uiso   1.00
C288   C     0.87111   0.89417   0.68895   0.00000  Uiso   1.00
C289   C     0.37760   0.31119   0.73587   0.00000  Uiso   1.00
C290   C     0.87239   0.93020   0.55426   0.00000  Uiso   1.00
C291   C     0.91982   0.97427   0.59401   0.00000  Uiso   1.00
C292   C     0.96448   0.97040   0.60699   0.00000  Uiso   1.00
C293   C     0.00351   0.01519   0.64429   0.00000  Uiso   1.00
C294   C     0.81792   0.96390   0.49642   0.00000  Uiso   1.00
C295   C     0.77688   0.95131   0.42734   0.00000  Uiso   1.00
C296   C     0.73013   0.98736   0.38248   0.00000  Uiso   1.00
C297   C     0.87252   0.91164   0.60191   0.00000  Uiso   1.00
C298   C     0.87738   0.85510   0.62151   0.00000  Uiso   1.00
C299   C     0.87658   0.84714   0.66545   0.00000  Uiso   1.00
H300   H     0.85806   0.05316   0.61568   0.00000  Uiso   1.00
H301   H     0.94909   0.10233   0.67289   0.00000  Uiso   1.00
H302   H     0.76152   0.08323   0.49326   0.00000  Uiso   1.00
H303   H     0.86201   0.98704   0.68741   0.00000  Uiso   1.00
H304   H     0.05241   0.13616   0.72595   0.00000  Uiso   1.00
H305   H     0.65691   0.09588   0.34720   0.00000  Uiso   1.00
H306   H     0.36880   0.39304   0.75660   0.00000  Uiso   1.00
H307   H     0.87665   0.89366   0.53600   0.00000  Uiso   1.00
H308   H     0.96870   0.93407   0.58884   0.00000  Uiso   1.00
H309   H     0.78113   0.91498   0.40921   0.00000  Uiso   1.00
H310   H     0.88161   0.81879   0.60336   0.00000  Uiso   1.00
H311   H     0.06832   0.99960   0.65773   0.00000  Uiso   1.00
H312   H     0.67282   0.95932   0.27898   0.00000  Uiso   1.00
H313   H     0.38471   0.25648   0.68838   0.00000  Uiso   1.00
O314   O     0.12057   0.09735   0.72801   0.00000  Uiso   1.00
O315   O     0.60169   0.04451   0.23112   0.00000  Uiso   1.00
O316   O     0.37969   0.27838   0.76823   0.00000  Uiso   1.00
N317   N     0.04353   0.09846   0.70265   0.00000  Uiso   1.00
N318   N     0.67376   0.06081   0.34855   0.00000  Uiso   1.00
N319   N     0.37185   0.37117   0.73128   0.00000  Uiso   1.00
N320   N     0.05209   0.02498   0.66595   0.00000  Uiso   1.00
N321   N     0.68232   0.98733   0.31184   0.00000  Uiso   1.00
N322   N     0.38041   0.29769   0.69457   0.00000  Uiso   1.00
C323   C     0.62716   0.20618   0.52892   0.00000  Uiso   1.00
C324   C     0.12293   0.76222   0.55108   0.00000  Uiso   1.00
C325   C     0.11945   0.76610   0.59271   0.00000  Uiso   1.00
C326   C     0.11587   0.82139   0.60705   0.00000  Uiso   1.00
C327   C     0.10929   0.90086   0.64544   0.00000  Uiso   1.00
C328   C     0.57812   0.20721   0.45107   0.00000  Uiso   1.00
C329   C     0.53697   0.16482   0.40861   0.00000  Uiso   1.00
C330   C     0.49567   0.17379   0.33876   0.00000  Uiso   1.00
C331   C     0.41954   0.16783   0.22188   0.00000  Uiso   1.00
C332   C     0.68030   0.21167   0.55132   0.00000  Uiso   1.00
C333   C     0.72506   0.17303   0.59314   0.00000  Uiso   1.00
C334   C     0.76978   0.18576   0.60767   0.00000  Uiso   1.00
C335   C     0.85230   0.18673   0.64644   0.00000  Uiso   1.00
C336   C     0.12698   0.79747   0.48035   0.00000  Uiso   1.00
C337   C     0.12283   0.81180   0.52470   0.00000  Uiso   1.00
C338   C     0.11925   0.86710   0.53897   0.00000  Uiso   1.00
C339   C     0.11577   0.87106   0.58062   0.00000  Uiso   1.00
C340   C     0.57802   0.25679   0.42468   0.00000  Uiso   1.00
C341   C     0.53677   0.26582   0.35488   0.00000  Uiso   1.00
C342   C     0.49557   0.22347   0.31233   0.00000  Uiso   1.00
C343   C     0.68020   0.26125   0.52493   0.00000  Uiso   1.00
C344   C     0.72485   0.27404   0.53940   0.00000  Uiso   1.00
C345   C     0.76968   0.23543   0.58124   0.00000  Uiso   1.00
H346   H     0.62723   0.16758   0.54946   0.00000  Uiso   1.00
H347   H     0.11953   0.72772   0.61312   0.00000  Uiso   1.00
H348   H     0.53706   0.12645   0.42905   0.00000  Uiso   1.00
H349   H     0.72512   0.13467   0.61354   0.00000  Uiso   1.00
H350   H     0.11092   0.81627   0.67204   0.00000  Uiso   1.00
H351   H     0.43704   0.10273   0.28392   0.00000  Uiso   1.00
H352   H     0.83360   0.12005   0.67297   0.00000  Uiso   1.00
H353   H     0.12690   0.83607   0.45980   0.00000  Uiso   1.00
H354   H     0.11918   0.90546   0.51855   0.00000  Uiso   1.00
H355   H     0.53671   0.30419   0.33448   0.00000  Uiso   1.00
H356   H     0.72476   0.31241   0.51897   0.00000  Uiso   1.00
H357   H     0.11063   0.96053   0.59528   0.00000  Uiso   1.00
H358   H     0.43676   0.24699   0.20716   0.00000  Uiso   1.00
H359   H     0.83331   0.26431   0.59621   0.00000  Uiso   1.00
O360   O     0.10568   0.93100   0.67390   0.00000  Uiso   1.00
O361   O     0.37757   0.15085   0.16471   0.00000  Uiso   1.00
O362   O     0.89784   0.17357   0.67513   0.00000  Uiso   1.00
N363   N     0.11192   0.84070   0.64592   0.00000  Uiso   1.00
N364   N     0.44935   0.14106   0.28306   0.00000  Uiso   1.00
N365   N     0.82009   0.15724   0.64677   0.00000  Uiso   1.00
N366   N     0.11177   0.91832   0.60462   0.00000  Uiso   1.00
N367   N     0.44920   0.21868   0.24175   0.00000  Uiso   1.00
N368   N     0.81994   0.23487   0.60546   0.00000  Uiso   1.00
C369   C     0.14981   0.35800   0.57858   0.00000  Uiso   1.00
C370   C     0.15739   0.30583   0.61559   0.00000  Uiso   1.00
C371   C     0.20437   0.27018   0.66126   0.00000  Uiso   1.00
C372   C     0.20314   0.22472   0.68967   0.00000  Uiso   1.00
C373   C     0.22198   0.14513   0.74964   0.00000  Uiso   1.00
C374   C     0.09592   0.34676   0.50260   0.00000  Uiso   1.00
C375   C     0.09121   0.34554   0.45328   0.00000  Uiso   1.00
C376   C     0.03823   0.33454   0.38657   0.00000  Uiso   1.00
C377   C     0.96163   0.31854   0.27112   0.00000  Uiso   1.00
C378   C     0.13736   0.40951   0.59648   0.00000  Uiso   1.00
C379   C     0.16749   0.46105   0.62607   0.00000  Uiso   1.00
C380   C     0.64939   0.00288   0.63839   0.00000  Uiso   1.00
C381   C     0.13714   0.58430   0.66870   0.00000  Uiso   1.00
C382   C     0.06408   0.34065   0.54782   0.00000  Uiso   1.00
C383   C     0.11082   0.29641   0.59887   0.00000  Uiso   1.00
C384   C     0.10952   0.25099   0.62723   0.00000  Uiso   1.00
C385   C     0.15649   0.21528   0.67294   0.00000  Uiso   1.00
C386   C     0.04935   0.33734   0.48589   0.00000  Uiso   1.00
C387   C     0.99636   0.32634   0.41924   0.00000  Uiso   1.00
C388   C     0.99158   0.32510   0.36983   0.00000  Uiso   1.00
C389   C     0.09080   0.40008   0.57977   0.00000  Uiso   1.00
C390   C     0.07265   0.44185   0.59204   0.00000  Uiso   1.00
C391   C     0.10274   0.49344   0.62165   0.00000  Uiso   1.00
H392   H     0.18605   0.36533   0.59159   0.00000  Uiso   1.00
H393   H     0.24039   0.27749   0.67417   0.00000  Uiso   1.00
H394   H     0.62725   0.85284   0.46622   0.00000  Uiso   1.00
H395   H     0.70352   0.96832   0.63899   0.00000  Uiso   1.00
H396   H     0.28009   0.17592   0.75835   0.00000  Uiso   1.00
H397   H     0.54152   0.83482   0.31987   0.00000  Uiso   1.00
H398   H     0.70236   0.07835   0.68419   0.00000  Uiso   1.00
H399   H     0.02782   0.33331   0.53481   0.00000  Uiso   1.00
H400   H     0.07348   0.24371   0.61428   0.00000  Uiso   1.00
H401   H     0.96034   0.31906   0.40633   0.00000  Uiso   1.00
H402   H     0.03661   0.43454   0.57910   0.00000  Uiso   1.00
H403   H     0.14462   0.14851   0.70974   0.00000  Uiso   1.00
H404   H     0.90605   0.30741   0.27125   0.00000  Uiso   1.00
H405   H     0.56688   0.05093   0.63558   0.00000  Uiso   1.00
O406   O     0.24524   0.10383   0.78733   0.00000  Uiso   1.00
O407   O     0.43224   0.81232   0.21206   0.00000  Uiso   1.00
O408   O     0.14325   0.63181   0.69005   0.00000  Uiso   1.00
N409   N     0.24195   0.18177   0.73601   0.00000  Uiso   1.00
N410   N     0.51890   0.83033   0.32606   0.00000  Uiso   1.00
N411   N     0.66926   0.05801   0.66665   0.00000  Uiso   1.00
N412   N     0.16905   0.16702   0.70986   0.00000  Uiso   1.00
N413   N     0.94601   0.31557   0.29990   0.00000  Uiso   1.00
N414   N     0.09636   0.54326   0.64050   0.00000  Uiso   1.00
C415   C     0.36232   0.51661   0.59743   0.00000  Uiso   1.00
C416   C     0.41436   0.52121   0.61747   0.00000  Uiso   1.00
C417   C     0.45334   0.56601   0.65475   0.00000  Uiso   1.00
C418   C     0.49803   0.56221   0.66778   0.00000  Uiso   1.00
C419   C     0.57799   0.57650   0.70243   0.00000  Uiso   1.00
C420   C     0.31245   0.51084   0.51987   0.00000  Uiso   1.00
C421   C     0.26574   0.54692   0.47510   0.00000  Uiso   1.00
C422   C     0.22465   0.53438   0.40597   0.00000  Uiso   1.00
C423   C     0.14637   0.53255   0.28910   0.00000  Uiso   1.00
C424   C     0.36705   0.45858   0.62536   0.00000  Uiso   1.00
C425   C     0.36624   0.45071   0.66927   0.00000  Uiso   1.00
C426   C     0.37111   0.39417   0.68895   0.00000  Uiso   1.00
C427   C     0.87760   0.81119   0.73587   0.00000  Uiso   1.00
C428   C     0.37239   0.43020   0.55426   0.00000  Uiso   1.00
C429   C     0.41982   0.47427   0.59401   0.00000  Uiso   1.00
C430   C     0.46448   0.47040   0.60699   0.00000  Uiso   1.00
C431   C     0.50351   0.51519   0.64429   0.00000  Uiso   1.00
C432   C     0.31792   0.46390   0.49642   0.00000  Uiso   1.00
C433   C     0.27688   0.45131   0.42734   0.00000  Uiso   1.00
C434   C     0.23013   0.48736   0.38248   0.00000  Uiso   1.00
C435   C     0.37252   0.41164   0.60191   0.00000  Uiso   1.00
C436   C     0.37738   0.35510   0.62151   0.00000  Uiso   1.00
C437   C     0.37658   0.34714   0.66545   0.00000  Uiso   1.00
H438   H     0.35806   0.55316   0.61568   0.00000  Uiso   1.00
H439   H     0.44909   0.60233   0.67289   0.00000  Uiso   1.00
H440   H     0.26152   0.58323   0.49326   0.00000  Uiso   1.00
H441   H     0.36201   0.48704   0.68741   0.00000  Uiso   1.00
H442   H     0.55241   0.63616   0.72595   0.00000  Uiso   1.00
H443   H     0.15691   0.59588   0.34720   0.00000  Uiso   1.00
H444   H     0.86880   0.89304   0.75660   0.00000  Uiso   1.00
H445   H     0.37665   0.39366   0.53600   0.00000  Uiso   1.00
H446   H     0.46870   0.43407   0.58884   0.00000  Uiso   1.00
H447   H     0.28113   0.41498   0.40921   0.00000  Uiso   1.00
H448   H     0.38161   0.31879   0.60336   0.00000  Uiso   1.00
H449   H     0.56832   0.49960   0.65773   0.00000  Uiso   1.00
H450   H     0.17282   0.45932   0.27898   0.00000  Uiso   1.00
H451   H     0.88471   0.75648   0.68838   0.00000  Uiso   1.00
O452   O     0.62057   0.59735   0.72801   0.00000  Uiso   1.00
O453   O     0.10169   0.54451   0.23112   0.00000  Uiso   1.00
O454   O     0.87969   0.77838   0.76823   0.00000  Uiso   1.00
N455   N     0.54353   0.59846   0.70265   0.00000  Uiso   1.00
N456   N     0.17376   0.56081   0.34855   0.00000  Uiso   1.00
N457   N     0.87185   0.87117   0.73128   0.00000  Uiso   1.00
N458   N     0.55209   0.52498   0.66595   0.00000  Uiso   1.00
N459   N     0.18232   0.48733   0.31184   0.00000  Uiso   1.00
N460   N     0.88041   0.79769   0.69457   0.00000  Uiso   1.00
C461   C     0.12716   0.70618   0.52892   0.00000  Uiso   1.00
C462   C     0.62293   0.26222   0.55108   0.00000  Uiso   1.00
C463   C     0.61945   0.26610   0.59271   0.00000  Uiso   1.00
C464   C     0.61587   0.32139   0.60705   0.00000  Uiso   1.00
C465   C     0.60929   0.40086   0.64544   0.00000  Uiso   1.00
C466   C     0.07812   0.70721   0.45107   0.00000  Uiso   1.00
C467   C     0.03697   0.66482   0.40861   0.00000  Uiso   1.00
C468   C     0.99567   0.67379   0.33876   0.00000  Uiso   1.00
C469   C     0.91954   0.66783   0.22188   0.00000  Uiso   1.00
C470   C     0.18030   0.71167   0.55132   0.00000  Uiso   1.00
C471   C     0.22506   0.67303   0.59314   0.00000  Uiso   1.00
C472   C     0.26978   0.68576   0.60767   0.00000  Uiso   1.00
C473   C     0.35230   0.68673   0.64644   0.00000  Uiso   1.00
C474   C     0.62698   0.29747   0.48035   0.00000  Uiso   1.00
C475   C     0.62283   0.31180   0.52470   0.00000  Uiso   1.00
C476   C     0.61925   0.36710   0.53897   0.00000  Uiso   1.00
C477   C     0.61577   0.37106   0.58062   0.00000  Uiso   1.00
C478   C     0.07802   0.75679   0.42468   0.00000  Uiso   1.00
C479   C     0.03677   0.76582   0.35488   0.00000  Uiso   1.00
C480   C     0.99557   0.72347   0.31233   0.00000  Uiso   1.00
C481   C     0.18020   0.76125   0.52493   0.00000  Uiso   1.00
C482   C     0.22485   0.77404   0.53940   0.00000  Uiso   1.00
C483   C     0.26968   0.73543   0.58124   0.00000  Uiso   1.00
H484   H     0.12723   0.66758   0.54946   0.00000  Uiso   1.00
H485   H     0.61953   0.22772   0.61312   0.00000  Uiso   1.00
H486   H     0.03706   0.62645   0.42905   0.00000  Uiso   1.00
H487   H     0.22512   0.63467   0.61354   0.00000  Uiso   1.00
H488   H     0.61092   0.31627   0.67204   0.00000  Uiso   1.00
H489   H     0.93704   0.60273   0.28392   0.00000  Uiso   1.00
H490   H     0.33360   0.62005   0.67297   0.00000  Uiso   1.00
H491   H     0.62690   0.33607   0.45980   0.00000  Uiso   1.00
H492   H     0.61918   0.40546   0.51855   0.00000  Uiso   1.00
H493   H     0.03671   0.80419   0.33448   0.00000  Uiso   1.00
H494   H     0.22476   0.81241   0.51897   0.00000  Uiso   1.00
H495   H     0.61063   0.46053   0.59528   0.00000  Uiso   1.00
H496   H     0.93676   0.74699   0.20716   0.00000  Uiso   1.00
H497   H     0.33331   0.76431   0.59621   0.00000  Uiso   1.00
O498   O     0.60568   0.43100   0.67390   0.00000  Uiso   1.00
O499   O     0.87757   0.65085   0.16471   0.00000  Uiso   1.00
O500   O     0.39784   0.67357   0.67513   0.00000  Uiso   1.00
N501   N     0.61192   0.34070   0.64592   0.00000  Uiso   1.00
N502   N     0.94935   0.64106   0.28306   0.00000  Uiso   1.00
N503   N     0.32009   0.65724   0.64677   0.00000  Uiso   1.00
N504   N     0.61177   0.41832   0.60462   0.00000  Uiso   1.00
N505   N     0.94920   0.71868   0.24175   0.00000  Uiso   1.00
N506   N     0.31994   0.73487   0.60546   0.00000  Uiso   1.00
C507   C     0.64981   0.85800   0.57858   0.00000  Uiso   1.00
C508   C     0.65739   0.80583   0.61559   0.00000  Uiso   1.00
C509   C     0.70437   0.77018   0.66126   0.00000  Uiso   1.00
C510   C     0.70314   0.72472   0.68967   0.00000  Uiso   1.00
C511   C     0.72198   0.64513   0.74964   0.00000  Uiso   1.00
C512   C     0.59592   0.84676   0.50260   0.00000  Uiso   1.00
C513   C     0.59121   0.84554   0.45328   0.00000  Uiso   1.00
C514   C     0.53823   0.83454   0.38657   0.00000  Uiso   1.00
C515   C     0.46163   0.81854   0.27112   0.00000  Uiso   1.00
C516   C     0.63736   0.90951   0.59648   0.00000  Uiso   1.00
C517   C     0.66749   0.96105   0.62607   0.00000  Uiso   1.00
C518   C     0.14939   0.50288   0.63839   0.00000  Uiso   1.00
C519   C     0.63714   0.08430   0.66870   0.00000  Uiso   1.00
C520   C     0.56408   0.84065   0.54782   0.00000  Uiso   1.00
C521   C     0.61082   0.79641   0.59887   0.00000  Uiso   1.00
C522   C     0.60952   0.75099   0.62723   0.00000  Uiso   1.00
C523   C     0.65649   0.71528   0.67294   0.00000  Uiso   1.00
C524   C     0.54935   0.83734   0.48589   0.00000  Uiso   1.00
C525   C     0.49636   0.82634   0.41924   0.00000  Uiso   1.00
C526   C     0.49158   0.82510   0.36983   0.00000  Uiso   1.00
C527   C     0.59080   0.90008   0.57977   0.00000  Uiso   1.00
C528   C     0.57265   0.94185   0.59204   0.00000  Uiso   1.00
C529   C     0.60274   0.99344   0.62165   0.00000  Uiso   1.00
H530   H     0.68605   0.86533   0.59159   0.00000  Uiso   1.00
H531   H     0.74039   0.77749   0.67417   0.00000  Uiso   1.00
H532   H     0.12725   0.35284   0.46622   0.00000  Uiso   1.00
H533   H     0.20352   0.46832   0.63899   0.00000  Uiso   1.00
H534   H     0.78009   0.67592   0.75835   0.00000  Uiso   1.00
H535   H     0.04152   0.33482   0.31987   0.00000  Uiso   1.00
H536   H     0.20236   0.57835   0.68419   0.00000  Uiso   1.00
H537   H     0.52782   0.83331   0.53481   0.00000  Uiso   1.00
H538   H     0.57348   0.74371   0.61428   0.00000  Uiso   1.00
H539   H     0.46034   0.81906   0.40633   0.00000  Uiso   1.00
H540   H     0.53661   0.93454   0.57910   0.00000  Uiso   1.00
H541   H     0.64462   0.64851   0.70974   0.00000  Uiso   1.00
H542   H     0.40605   0.80741   0.27125   0.00000  Uiso   1.00
H543   H     0.06688   0.55093   0.63558   0.00000  Uiso   1.00
O544   O     0.74524   0.60383   0.78733   0.00000  Uiso   1.00
O545   O     0.93224   0.31232   0.21206   0.00000  Uiso   1.00
O546   O     0.64325   0.13181   0.69005   0.00000  Uiso   1.00
N547   N     0.74195   0.68177   0.73601   0.00000  Uiso   1.00
N548   N     0.01890   0.33033   0.32606   0.00000  Uiso   1.00
N549   N     0.16926   0.55801   0.66665   0.00000  Uiso   1.00
N550   N     0.66905   0.66702   0.70986   0.00000  Uiso   1.00
N551   N     0.44601   0.81557   0.29990   0.00000  Uiso   1.00
N552   N     0.59636   0.04326   0.64050   0.00000  Uiso   1.00
C553   C     0.86232   0.98339   0.09743   0.00000  Uiso   1.00
C554   C     0.91436   0.97879   0.11747   0.00000  Uiso   1.00
C555   C     0.95334   0.93399   0.15475   0.00000  Uiso   1.00
C556   C     0.99803   0.93779   0.16778   0.00000  Uiso   1.00
C557   C     0.07799   0.92350   0.20243   0.00000  Uiso   1.00
C558   C     0.81245   0.98916   0.01987   0.00000  Uiso   1.00
C559   C     0.76574   0.95308   0.97510   0.00000  Uiso   1.00
C560   C     0.72465   0.96562   0.90597   0.00000  Uiso   1.00
C561   C     0.64637   0.96745   0.78910   0.00000  Uiso   1.00
C562   C     0.86705   0.04142   0.12536   0.00000  Uiso   1.00
C563   C     0.86624   0.04929   0.16927   0.00000  Uiso   1.00
C564   C     0.87111   0.10583   0.18895   0.00000  Uiso   1.00
C565   C     0.37760   0.68881   0.23587   0.00000  Uiso   1.00
C566   C     0.87239   0.06980   0.05426   0.00000  Uiso   1.00
C567   C     0.91982   0.02573   0.09401   0.00000  Uiso   1.00
C568   C     0.96448   0.02960   0.10699   0.00000  Uiso   1.00
C569   C     0.00351   0.98481   0.14429   0.00000  Uiso   1.00
C570   C     0.81792   0.03610   0.99642   0.00000  Uiso   1.00
C571   C     0.77688   0.04869   0.92734   0.00000  Uiso   1.00
C572   C     0.73013   0.01264   0.88248   0.00000  Uiso   1.00
C573   C     0.87252   0.08836   0.10191   0.00000  Uiso   1.00
C574   C     0.87738   0.14490   0.12151   0.00000  Uiso   1.00
C575   C     0.87658   0.15286   0.16545   0.00000  Uiso   1.00
H576   H     0.85806   0.94684   0.11568   0.00000  Uiso   1.00
H577   H     0.94909   0.89767   0.17289   0.00000  Uiso   1.00
H578   H     0.76152   0.91677   0.99326   0.00000  Uiso   1.00
H579   H     0.86201   0.01296   0.18741   0.00000  Uiso   1.00
H580   H     0.05241   0.86384   0.22595   0.00000  Uiso   1.00
H581   H     0.65691   0.90412   0.84720   0.00000  Uiso   1.00
H582   H     0.36880   0.60696   0.25660   0.00000  Uiso   1.00
H583   H     0.87665   0.10634   0.03600   0.00000  Uiso   1.00
H584   H     0.96870   0.06593   0.08884   0.00000  Uiso   1.00
H585   H     0.78113   0.08502   0.90921   0.00000  Uiso   1.00
H586   H     0.88161   0.18121   0.10336   0.00000  Uiso   1.00
H587   H     0.06832   0.00040   0.15773   0.00000  Uiso   1.00
H588   H     0.67282   0.04068   0.77898   0.00000  Uiso   1.00
H589   H     0.38471   0.74352   0.18838   0.00000  Uiso   1.00
O590   O     0.12057   0.90265   0.22801   0.00000  Uiso   1.00
O591   O     0.60169   0.95549   0.73112   0.00000  Uiso   1.00
O592   O     0.37969   0.72162   0.26823   0.00000  Uiso   1.00
N593   N     0.04353   0.90154   0.20265   0.00000  Uiso   1.00
N594   N     0.67376   0.93919   0.84855   0.00000  Uiso   1.00
N595   N     0.37185   0.62883   0.23128   0.00000  Uiso   1.00
N596   N     0.05209   0.97502   0.16595   0.00000  Uiso   1.00
N597   N     0.68232   0.01267   0.81184   0.00000  Uiso   1.00
N598   N     0.38041   0.70231   0.19457   0.00000  Uiso   1.00
C599   C     0.62716   0.79382   0.02892   0.00000  Uiso   1.00
C600   C     0.12293   0.23778   0.05108   0.00000  Uiso   1.00
C601   C     0.11945   0.23390   0.09271   0.00000  Uiso   1.00
C602   C     0.11587   0.17861   0.10705   0.00000  Uiso   1.00
C603   C     0.10929   0.09914   0.14544   0.00000  Uiso   1.00
C604   C     0.57812   0.79279   0.95107   0.00000  Uiso   1.00
C605   C     0.53697   0.83518   0.90861   0.00000  Uiso   1.00
C606   C     0.49567   0.82621   0.83876   0.00000  Uiso   1.00
C607   C     0.41954   0.83217   0.72188   0.00000  Uiso   1.00
C608   C     0.68030   0.78833   0.05132   0.00000  Uiso   1.00
C609   C     0.72506   0.82697   0.09314   0.00000  Uiso   1.00
C610   C     0.76978   0.81424   0.10767   0.00000  Uiso   1.00
C611   C     0.85230   0.81327   0.14644   0.00000  Uiso   1.00
C612   C     0.12698   0.20253   0.98035   0.00000  Uiso   1.00
C613   C     0.12283   0.18820   0.02470   0.00000  Uiso   1.00
C614   C     0.11925   0.13290   0.03897   0.00000  Uiso   1.00
C615   C     0.11577   0.12894   0.08062   0.00000  Uiso   1.00
C616   C     0.57802   0.74321   0.92468   0.00000  Uiso   1.00
C617   C     0.53677   0.73418   0.85488   0.00000  Uiso   1.00
C618   C     0.49557   0.77653   0.81233   0.00000  Uiso   1.00
C619   C     0.68020   0.73875   0.02493   0.00000  Uiso   1.00
C620   C     0.72485   0.72596   0.03940   0.00000  Uiso   1.00
C621   C     0.76968   0.76457   0.08124   0.00000  Uiso   1.00
H622   H     0.62723   0.83242   0.04946   0.00000  Uiso   1.00
H623   H     0.11953   0.27228   0.11312   0.00000  Uiso   1.00
H624   H     0.53706   0.87355   0.92905   0.00000  Uiso   1.00
H625   H     0.72512   0.86533   0.11354   0.00000  Uiso   1.00
H626   H     0.11092   0.18373   0.17204   0.00000  Uiso   1.00
H627   H     0.43704   0.89727   0.78392   0.00000  Uiso   1.00
H628   H     0.83360   0.87995   0.17297   0.00000  Uiso   1.00
H629   H     0.12690   0.16393   0.95980   0.00000  Uiso   1.00
H630   H     0.11918   0.09454   0.01855   0.00000  Uiso   1.00
H631   H     0.53671   0.69581   0.83448   0.00000  Uiso   1.00
H632   H     0.72476   0.68759   0.01897   0.00000  Uiso   1.00
H633   H     0.11063   0.03947   0.09528   0.00000  Uiso   1.00
H634   H     0.43676   0.75301   0.70716   0.00000  Uiso   1.00
H635   H     0.83331   0.73569   0.09621   0.00000  Uiso   1.00
O636   O     0.10568   0.06900   0.17390   0.00000  Uiso   1.00
O637   O     0.37757   0.84915   0.66471   0.00000  Uiso   1.00
O638   O     0.89784   0.82643   0.17513   0.00000  Uiso   1.00
N639   N     0.11192   0.15930   0.14592   0.00000  Uiso   1.00
N640   N     0.44935   0.85894   0.78306   0.00000  Uiso   1.00
N641   N     0.82009   0.84276   0.14677   0.00000  Uiso   1.00
N642   N     0.11177   0.08168   0.10462   0.00000  Uiso   1.00
N643   N     0.44920   0.78132   0.74175   0.00000  Uiso   1.00
N644   N     0.81994   0.76513   0.10546   0.00000  Uiso   1.00
C645   C     0.14981   0.64200   0.07858   0.00000  Uiso   1.00
C646   C     0.15739   0.69417   0.11559   0.00000  Uiso   1.00
C647   C     0.20437   0.72982   0.16126   0.00000  Uiso   1.00
C648   C     0.20314   0.77528   0.18967   0.00000  Uiso   1.00
C649   C     0.22198   0.85487   0.24964   0.00000  Uiso   1.00
C650   C     0.09592   0.65324   0.00260   0.00000  Uiso   1.00
C651   C     0.09121   0.65446   0.95328   0.00000  Uiso   1.00
C652   C     0.03823   0.66546   0.88657   0.00000  Uiso   1.00
C653   C     0.96163   0.68146   0.77112   0.00000  Uiso   1.00
C654   C     0.13736   0.59049   0.09648   0.00000  Uiso   1.00
C655   C     0.16749   0.53895   0.12607   0.00000  Uiso   1.00
C656   C     0.64939   0.99712   0.13839   0.00000  Uiso   1.00
C657   C     0.13714   0.41570   0.16870   0.00000  Uiso   1.00
C658   C     0.06408   0.65935   0.04782   0.00000  Uiso   1.00
C659   C     0.11082   0.70359   0.09887   0.00000  Uiso   1.00
C660   C     0.10952   0.74901   0.12723   0.00000  Uiso   1.00
C661   C     0.15649   0.78472   0.17294   0.00000  Uiso   1.00
C662   C     0.04935   0.66266   0.98589   0.00000  Uiso   1.00
C663   C     0.99636   0.67366   0.91924   0.00000  Uiso   1.00
C664   C     0.99158   0.67490   0.86983   0.00000  Uiso   1.00
C665   C     0.09080   0.59992   0.07977   0.00000  Uiso   1.00
C666   C     0.07265   0.55815   0.09204   0.00000  Uiso   1.00
C667   C     0.10274   0.50656   0.12165   0.00000  Uiso   1.00
H668   H     0.18605   0.63467   0.09159   0.00000  Uiso   1.00
H669   H     0.24039   0.72251   0.17417   0.00000  Uiso   1.00
H670   H     0.62725   0.14716   0.96622   0.00000  Uiso   1.00
H671   H     0.70352   0.03168   0.13899   0.00000  Uiso   1.00
H672   H     0.28009   0.82408   0.25835   0.00000  Uiso   1.00
H673   H     0.54152   0.16518   0.81987   0.00000  Uiso   1.00
H674   H     0.70236   0.92165   0.18419   0.00000  Uiso   1.00
H675   H     0.02782   0.66669   0.03481   0.00000  Uiso   1.00
H676   H     0.07348   0.75629   0.11428   0.00000  Uiso   1.00
H677   H     0.96034   0.68094   0.90633   0.00000  Uiso   1.00
H678   H     0.03661   0.56546   0.07910   0.00000  Uiso   1.00
H679   H     0.14462   0.85149   0.20974   0.00000  Uiso   1.00
H680   H     0.90605   0.69259   0.77125   0.00000  Uiso   1.00
H681   H     0.56688   0.94907   0.13558   0.00000  Uiso   1.00
O682   O     0.24524   0.89617   0.28733   0.00000  Uiso   1.00
O683   O     0.43224   0.18768   0.71206   0.00000  Uiso   1.00
O684   O     0.14325   0.36819   0.19005   0.00000  Uiso   1.00
N685   N     0.24195   0.81823   0.23601   0.00000  Uiso   1.00
N686   N     0.51890   0.16967   0.82606   0.00000  Uiso   1.00
N687   N     0.66926   0.94199   0.16665   0.00000  Uiso   1.00
N688   N     0.16905   0.83298   0.20986   0.00000  Uiso   1.00
N689   N     0.94601   0.68443   0.79990   0.00000  Uiso   1.00
N690   N     0.09636   0.45674   0.14050   0.00000  Uiso   1.00
C691   C     0.36232   0.48339   0.09743   0.00000  Uiso   1.00
C692   C     0.41436   0.47879   0.11747   0.00000  Uiso   1.00
C693   C     0.45334   0.43399   0.15475   0.00000  Uiso   1.00
C694   C     0.49803   0.43779   0.16778   0.00000  Uiso   1.00
C695   C     0.57799   0.42350   0.20243   0.00000  Uiso   1.00
C696   C     0.31245   0.48916   0.01987   0.00000  Uiso   1.00
C697   C     0.26574   0.45308   0.97510   0.00000  Uiso   1.00
C698   C     0.22465   0.46562   0.90597   0.00000  Uiso   1.00
C699   C     0.14637   0.46745   0.78910   0.00000  Uiso   1.00
C700   C     0.36705   0.54142   0.12536   0.00000  Uiso   1.00
C701   C     0.36624   0.54929   0.16927   0.00000  Uiso   1.00
C702   C     0.37111   0.60583   0.18895   0.00000  Uiso   1.00
C703   C     0.87760   0.18881   0.23587   0.00000  Uiso   1.00
C704   C     0.37239   0.56980   0.05426   0.00000  Uiso   1.00
C705   C     0.41982   0.52573   0.09401   0.00000  Uiso   1.00
C706   C     0.46448   0.52960   0.10699   0.00000  Uiso   1.00
C707   C     0.50351   0.48481   0.14429   0.00000  Uiso   1.00
C708   C     0.31792   0.53610   0.99642   0.00000  Uiso   1.00
C709   C     0.27688   0.54869   0.92734   0.00000  Uiso   1.00
C710   C     0.23013   0.51264   0.88248   0.00000  Uiso   1.00
C711   C     0.37252   0.58836   0.10191   0.00000  Uiso   1.00
C712   C     0.37738   0.64490   0.12151   0.00000  Uiso   1.00
C713   C     0.37658   0.65286   0.16545   0.00000  Uiso   1.00
H714   H     0.35806   0.44684   0.11568   0.00000  Uiso   1.00
H715   H     0.44909   0.39767   0.17289   0.00000  Uiso   1.00
H716   H     0.26152   0.41677   0.99326   0.00000  Uiso   1.00
H717   H     0.36201   0.51296   0.18741   0.00000  Uiso   1.00
H718   H     0.55241   0.36384   0.22595   0.00000  Uiso   1.00
H719   H     0.15691   0.40412   0.84720   0.00000  Uiso   1.00
H720   H     0.86880   0.10696   0.25660   0.00000  Uiso   1.00
H721   H     0.37665   0.60634   0.03600   0.00000  Uiso   1.00
H722   H     0.46870   0.56593   0.08884   0.00000  Uiso   1.00
H723   H     0.28113   0.58502   0.90921   0.00000  Uiso   1.00
H724   H     0.38161   0.68121   0.10336   0.00000  Uiso   1.00
H725   H     0.56832   0.50040   0.15773   0.00000  Uiso   1.00
H726   H     0.17282   0.54068   0.77898   0.00000  Uiso   1.00
H727   H     0.88471   0.24352   0.18838   0.00000  Uiso   1.00
O728   O     0.62057   0.40265   0.22801   0.00000  Uiso   1.00
O729   O     0.10169   0.45549   0.73112   0.00000  Uiso   1.00
O730   O     0.87969   0.22162   0.26823   0.00000  Uiso   1.00
N731   N     0.54353   0.40154   0.20265   0.00000  Uiso   1.00
N732   N     0.17376   0.43919   0.84855   0.00000  Uiso   1.00
N733   N     0.87185   0.12883   0.23128   0.00000  Uiso   1.00
N734   N     0.55209   0.47502   0.16595   0.00000  Uiso   1.00
N735   N     0.18232   0.51267   0.81184   0.00000  Uiso   1.00
N736   N     0.88041   0.20231   0.19457   0.00000  Uiso   1.00
C737   C     0.12716   0.29382   0.02892   0.00000  Uiso   1.00
C738   C     0.62293   0.73778   0.05108   0.00000  Uiso   1.00
C739   C     0.61945   0.73390   0.09271   0.00000  Uiso   1.00
C740   C     0.61587   0.67861   0.10705   0.00000  Uiso   1.00
C741   C     0.60929   0.59914   0.14544   0.00000  Uiso   1.00
C742   C     0.07812   0.29279   0.95107   0.00000  Uiso   1.00
C743   C     0.03697   0.33518   0.90861   0.00000  Uiso   1.00
C744   C     0.99567   0.32621   0.83876   0.00000  Uiso   1.00
C745   C     0.91954   0.33217   0.72188   0.00000  Uiso   1.00
C746   C     0.18030   0.28833   0.05132   0.00000  Uiso   1.00
C747   C     0.22506   0.32697   0.09314   0.00000  Uiso   1.00
C748   C     0.26978   0.31424   0.10767   0.00000  Uiso   1.00
C749   C     0.35230   0.31327   0.14644   0.00000  Uiso   1.00
C750   C     0.62698   0.70253   0.98035   0.00000  Uiso   1.00
C751   C     0.62283   0.68820   0.02470   0.00000  Uiso   1.00
C752   C     0.61925   0.63290   0.03897   0.00000  Uiso   1.00
C753   C     0.61577   0.62894   0.08062   0.00000  Uiso   1.00
C754   C     0.07802   0.24321   0.92468   0.00000  Uiso   1.00
C755   C     0.03677   0.23418   0.85488   0.00000  Uiso   1.00
C756   C     0.99557   0.27653   0.81233   0.00000  Uiso   1.00
C757   C     0.18020   0.23875   0.02493   0.00000  Uiso   1.00
C758   C     0.22485   0.22596   0.03940   0.00000  Uiso   1.00
C759   C     0.26968   0.26457   0.08124   0.00000  Uiso   1.00
H760   H     0.12723   0.33242   0.04946   0.00000  Uiso   1.00
H761   H     0.61953   0.77228   0.11312   0.00000  Uiso   1.00
H762   H     0.03706   0.37355   0.92905   0.00000  Uiso   1.00
H763   H     0.22512   0.36533   0.11354   0.00000  Uiso   1.00
H764   H     0.61092   0.68373   0.17204   0.00000  Uiso   1.00
H765   H     0.93704   0.39727   0.78392   0.00000  Uiso   1.00
H766   H     0.33360   0.37995   0.17297   0.00000  Uiso   1.00
H767   H     0.62690   0.66393   0.95980   0.00000  Uiso   1.00
H768   H     0.61918   0.59454   0.01855   0.00000  Uiso   1.00
H769   H     0.03671   0.19581   0.83448   0.00000  Uiso   1.00
H770   H     0.22476   0.18759   0.01897   0.00000  Uiso   1.00
H771   H     0.61063   0.53947   0.09528   0.00000  Uiso   1.00
H772   H     0.93676   0.25301   0.70716   0.00000  Uiso   1.00
H773   H     0.33331   0.23569   0.09621   0.00000  Uiso   1.00
O774   O     0.60568   0.56900   0.17390   0.00000  Uiso   1.00
O775   O     0.87757   0.34915   0.66471   0.00000  Uiso   1.00
O776   O     0.39784   0.32643   0.17513   0.00000  Uiso   1.00
N777   N     0.61192   0.65930   0.14592   0.00000  Uiso   1.00
N778   N     0.94935   0.35894   0.78306   0.00000  Uiso   1.00
N779   N     0.32009   0.34276   0.14677   0.00000  Uiso   1.00
N780   N     0.61177   0.58168   0.10462   0.00000  Uiso   1.00
N781   N     0.94920   0.28132   0.74175   0.00000  Uiso   1.00
N782   N     0.31994   0.26513   0.10546   0.00000  Uiso   1.00
C783   C     0.64981   0.14200   0.07858   0.00000  Uiso   1.00
C784   C     0.65739   0.19417   0.11559   0.00000  Uiso   1.00
C785   C     0.70437   0.22982   0.16126   0.00000  Uiso   1.00
C786   C     0.70314   0.27528   0.18967   0.00000  Uiso   1.00
C787   C     0.72198   0.35487   0.24964   0.00000  Uiso   1.00
C788   C     0.59592   0.15324   0.00260   0.00000  Uiso   1.00
C789   C     0.59121   0.15446   0.95328   0.00000  Uiso   1.00
C790   C     0.53823   0.16546   0.88657   0.00000  Uiso   1.00
C791   C     0.46163   0.18146   0.77112   0.00000  Uiso   1.00
C792   C     0.63736   0.09049   0.09648   0.00000  Uiso   1.00
C793   C     0.66749   0.03895   0.12607   0.00000  Uiso   1.00
C794   C     0.14939   0.49712   0.13839   0.00000  Uiso   1.00
C795   C     0.63714   0.91570   0.16870   0.00000  Uiso   1.00
C796   C     0.56408   0.15935   0.04782   0.00000  Uiso   1.00
C797   C     0.61082   0.20359   0.09887   0.00000  Uiso   1.00
C798   C     0.60952   0.24901   0.12723   0.00000  Uiso   1.00
C799   C     0.65649   0.28472   0.17294   0.00000  Uiso   1.00
C800   C     0.54935   0.16266   0.98589   0.00000  Uiso   1.00
C801   C     0.49636   0.17366   0.91924   0.00000  Uiso   1.00
C802   C     0.49158   0.17490   0.86983   0.00000  Uiso   1.00
C803   C     0.59080   0.09992   0.07977   0.00000  Uiso   1.00
C804   C     0.57265   0.05815   0.09204   0.00000  Uiso   1.00
C805   C     0.60274   0.00656   0.12165   0.00000  Uiso   1.00
H806   H     0.68605   0.13467   0.09159   0.00000  Uiso   1.00
H807   H     0.74039   0.22251   0.17417   0.00000  Uiso   1.00
H808   H     0.12725   0.64716   0.96622   0.00000  Uiso   1.00
H809   H     0.20352   0.53168   0.13899   0.00000  Uiso   1.00
H810   H     0.78009   0.32408   0.25835   0.00000  Uiso   1.00
H811   H     0.04152   0.66518   0.81987   0.00000  Uiso   1.00
H812   H     0.20236   0.42165   0.18419   0.00000  Uiso   1.00
H813   H     0.52782   0.16669   0.03481   0.00000  Uiso   1.00
H814   H     0.57348   0.25629   0.11428   0.00000  Uiso   1.00
H815   H     0.46034   0.18094   0.90633   0.00000  Uiso   1.00
H816   H     0.53661   0.06546   0.07910   0.00000  Uiso   1.00
H817   H     0.64462   0.35149   0.20974   0.00000  Uiso   1.00
H818   H     0.40605   0.19259   0.77125   0.00000  Uiso   1.00
H819   H     0.06688   0.44907   0.13558   0.00000  Uiso   1.00
O820   O     0.74524   0.39617   0.28733   0.00000  Uiso   1.00
O821   O     0.93224   0.68768   0.71206   0.00000  Uiso   1.00
O822   O     0.64325   0.86819   0.19005   0.00000  Uiso   1.00
N823   N     0.74195   0.31823   0.23601   0.00000  Uiso   1.00
N824   N     0.01890   0.66967   0.82606   0.00000  Uiso   1.00
N825   N     0.16926   0.44199   0.16665   0.00000  Uiso   1.00
N826   N     0.66905   0.33298   0.20986   0.00000  Uiso   1.00
N827   N     0.44601   0.18443   0.79990   0.00000  Uiso   1.00
N828   N     0.59636   0.95674   0.14050   0.00000  Uiso   1.00
C829   C     0.13768   0.98339   0.40257   0.00000  Uiso   1.00
C830   C     0.08564   0.97879   0.38253   0.00000  Uiso   1.00
C831   C     0.04666   0.93399   0.34525   0.00000  Uiso   1.00
C832   C     0.00197   0.93779   0.33222   0.00000  Uiso   1.00
C833   C     0.92201   0.92350   0.29757   0.00000  Uiso   1.00
C834   C     0.18755   0.98916   0.48013   0.00000  Uiso   1.00
C835   C     0.23426   0.95308   0.52490   0.00000  Uiso   1.00
C836   C     0.27535   0.96562   0.59403   0.00000  Uiso   1.00
C837   C     0.35363   0.96745   0.71090   0.00000  Uiso   1.00
C838   C     0.13295   0.04142   0.37464   0.00000  Uiso   1.00
C839   C     0.13376   0.04929   0.33073   0.00000  Uiso   1.00
C840   C     0.12889   0.10583   0.31105   0.00000  Uiso   1.00
C841   C     0.62240   0.68881   0.26413   0.00000  Uiso   1.00
C842   C     0.12761   0.06980   0.44574   0.00000  Uiso   1.00
C843   C     0.08018   0.02573   0.40599   0.00000  Uiso   1.00
C844   C     0.03552   0.02960   0.39301   0.00000  Uiso   1.00
C845   C     0.99649   0.98481   0.35571   0.00000  Uiso   1.00
C846   C     0.18208   0.03610   0.50358   0.00000  Uiso   1.00
C847   C     0.22312   0.04869   0.57266   0.00000  Uiso   1.00
C848   C     0.26987   0.01264   0.61752   0.00000  Uiso   1.00
C849   C     0.12748   0.08836   0.39809   0.00000  Uiso   1.00
C850   C     0.12262   0.14490   0.37849   0.00000  Uiso   1.00
C851   C     0.12342   0.15286   0.33455   0.00000  Uiso   1.00
H852   H     0.14194   0.94684   0.38432   0.00000  Uiso   1.00
H853   H     0.05091   0.89767   0.32711   0.00000  Uiso   1.00
H854   H     0.23848   0.91677   0.50674   0.00000  Uiso   1.00
H855   H     0.13799   0.01296   0.31259   0.00000  Uiso   1.00
H856   H     0.94759   0.86384   0.27405   0.00000  Uiso   1.00
H857   H     0.34309   0.90412   0.65280   0.00000  Uiso   1.00
H858   H     0.63120   0.60696   0.24340   0.00000  Uiso   1.00
H859   H     0.12335   0.10634   0.46400   0.00000  Uiso   1.00
H860   H     0.03130   0.06593   0.41116   0.00000  Uiso   1.00
H861   H     0.21887   0.08502   0.59079   0.00000  Uiso   1.00
H862   H     0.11839   0.18121   0.39664   0.00000  Uiso   1.00
H863   H     0.93168   0.00040   0.34227   0.00000  Uiso   1.00
H864   H     0.32718   0.04068   0.72102   0.00000  Uiso   1.00
H865   H     0.61529   0.74352   0.31162   0.00000  Uiso   1.00
O866   O     0.87943   0.90265   0.27199   0.00000  Uiso   1.00
O867   O     0.39831   0.95549   0.76888   0.00000  Uiso   1.00
O868   O     0.62031   0.72162   0.23177   0.00000  Uiso   1.00
N869   N     0.95647   0.90154   0.29735   0.00000  Uiso   1.00
N870   N     0.32624   0.93919   0.65145   0.00000  Uiso   1.00
N871   N     0.62815   0.62883   0.26872   0.00000  Uiso   1.00
N872   N     0.94791   0.97502   0.33405   0.00000  Uiso   1.00
N873   N     0.31768   0.01267   0.68816   0.00000  Uiso   1.00
N874   N     0.61959   0.70231   0.30543   0.00000  Uiso   1.00
C875   C     0.37284   0.79382   0.47108   0.00000  Uiso   1.00
C876   C     0.87707   0.23778   0.44892   0.00000  Uiso   1.00
C877   C     0.88055   0.23390   0.40729   0.00000  Uiso   1.00
C878   C     0.88413   0.17861   0.39295   0.00000  Uiso   1.00
C879   C     0.89071   0.09914   0.35456   0.00000  Uiso   1.00
C880   C     0.42188   0.79279   0.54893   0.00000  Uiso   1.00
C881   C     0.46303   0.83518   0.59139   0.00000  Uiso   1.00
C882   C     0.50433   0.82621   0.66124   0.00000  Uiso   1.00
C883   C     0.58046   0.83217   0.77812   0.00000  Uiso   1.00
C884   C     0.31970   0.78833   0.44868   0.00000  Uiso   1.00
C885   C     0.27494   0.82697   0.40686   0.00000  Uiso   1.00
C886   C     0.23022   0.81424   0.39233   0.00000  Uiso   1.00
C887   C     0.14770   0.81327   0.35356   0.00000  Uiso   1.00
C888   C     0.87302   0.20253   0.51965   0.00000  Uiso   1.00
C889   C     0.87717   0.18820   0.47530   0.00000  Uiso   1.00
C890   C     0.88075   0.13290   0.46103   0.00000  Uiso   1.00
C891   C     0.88423   0.12894   0.41938   0.00000  Uiso   1.00
C892   C     0.42198   0.74321   0.57532   0.00000  Uiso   1.00
C893   C     0.46323   0.73418   0.64512   0.00000  Uiso   1.00
C894   C     0.50443   0.77653   0.68767   0.00000  Uiso   1.00
C895   C     0.31980   0.73875   0.47507   0.00000  Uiso   1.00
C896   C     0.27515   0.72596   0.46060   0.00000  Uiso   1.00
C897   C     0.23032   0.76457   0.41876   0.00000  Uiso   1.00
H898   H     0.37277   0.83242   0.45054   0.00000  Uiso   1.00
H899   H     0.88047   0.27228   0.38688   0.00000  Uiso   1.00
H900   H     0.46294   0.87355   0.57095   0.00000  Uiso   1.00
H901   H     0.27488   0.86533   0.38646   0.00000  Uiso   1.00
H902   H     0.88908   0.18373   0.32796   0.00000  Uiso   1.00
H903   H     0.56296   0.89727   0.71608   0.00000  Uiso   1.00
H904   H     0.16640   0.87995   0.32703   0.00000  Uiso   1.00
H905   H     0.87310   0.16393   0.54020   0.00000  Uiso   1.00
H906   H     0.88082   0.09454   0.48145   0.00000  Uiso   1.00
H907   H     0.46329   0.69581   0.66552   0.00000  Uiso   1.00
H908   H     0.27524   0.68759   0.48103   0.00000  Uiso   1.00
H909   H     0.88937   0.03947   0.40472   0.00000  Uiso   1.00
H910   H     0.56324   0.75301   0.79284   0.00000  Uiso   1.00
H911   H     0.16669   0.73569   0.40379   0.00000  Uiso   1.00
O912   O     0.89432   0.06900   0.32610   0.00000  Uiso   1.00
O913   O     0.62243   0.84915   0.83529   0.00000  Uiso   1.00
O914   O     0.10216   0.82643   0.32487   0.00000  Uiso   1.00
N915   N     0.88808   0.15930   0.35408   0.00000  Uiso   1.00
N916   N     0.55065   0.85894   0.71694   0.00000  Uiso   1.00
N917   N     0.17991   0.84276   0.35323   0.00000  Uiso   1.00
N918   N     0.88823   0.08168   0.39538   0.00000  Uiso   1.00
N919   N     0.55080   0.78132   0.75825   0.00000  Uiso   1.00
N920   N     0.18006   0.76513   0.39454   0.00000  Uiso   1.00
C921   C     0.85019   0.64200   0.42142   0.00000  Uiso   1.00
C922   C     0.84261   0.69417   0.38441   0.00000  Uiso   1.00
C923   C     0.79563   0.72982   0.33874   0.00000  Uiso   1.00
C924   C     0.79686   0.77528   0.31033   0.00000  Uiso   1.00
C925   C     0.77802   0.85487   0.25036   0.00000  Uiso   1.00
C926   C     0.90408   0.65324   0.49740   0.00000  Uiso   1.00
C927   C     0.90879   0.65446   0.54672   0.00000  Uiso   1.00
C928   C     0.96177   0.66546   0.61343   0.00000  Uiso   1.00
C929   C     0.03837   0.68146   0.72888   0.00000  Uiso   1.00
C930   C     0.86264   0.59049   0.40352   0.00000  Uiso   1.00
C931   C     0.83251   0.53895   0.37393   0.00000  Uiso   1.00
C932   C     0.35061   0.99712   0.36161   0.00000  Uiso   1.00
C933   C     0.86286   0.41570   0.33130   0.00000  Uiso   1.00
C934   C     0.93592   0.65935   0.45218   0.00000  Uiso   1.00
C935   C     0.88918   0.70359   0.40113   0.00000  Uiso   1.00
C936   C     0.89048   0.74901   0.37277   0.00000  Uiso   1.00
C937   C     0.84351   0.78472   0.32706   0.00000  Uiso   1.00
C938   C     0.95065   0.66266   0.51411   0.00000  Uiso   1.00
C939   C     0.00364   0.67366   0.58076   0.00000  Uiso   1.00
C940   C     0.00842   0.67490   0.63017   0.00000  Uiso   1.00
C941   C     0.90920   0.59992   0.42023   0.00000  Uiso   1.00
C942   C     0.92735   0.55815   0.40796   0.00000  Uiso   1.00
C943   C     0.89726   0.50656   0.37835   0.00000  Uiso   1.00
H944   H     0.81395   0.63467   0.40841   0.00000  Uiso   1.00
H945   H     0.75961   0.72251   0.32583   0.00000  Uiso   1.00
H946   H     0.37275   0.14716   0.53378   0.00000  Uiso   1.00
H947   H     0.29648   0.03168   0.36101   0.00000  Uiso   1.00
H948   H     0.71991   0.82408   0.24165   0.00000  Uiso   1.00
H949   H     0.45848   0.16518   0.68013   0.00000  Uiso   1.00
H950   H     0.29764   0.92165   0.31581   0.00000  Uiso   1.00
H951   H     0.97218   0.66669   0.46519   0.00000  Uiso   1.00
H952   H     0.92652   0.75629   0.38572   0.00000  Uiso   1.00
H953   H     0.03966   0.68094   0.59367   0.00000  Uiso   1.00
H954   H     0.96339   0.56546   0.42090   0.00000  Uiso   1.00
H955   H     0.85538   0.85149   0.29026   0.00000  Uiso   1.00
H956   H     0.09395   0.69259   0.72875   0.00000  Uiso   1.00
H957   H     0.43312   0.94907   0.36442   0.00000  Uiso   1.00
O958   O     0.75476   0.89617   0.21267   0.00000  Uiso   1.00
O959   O     0.56776   0.18768   0.78794   0.00000  Uiso   1.00
O960   O     0.85675   0.36819   0.30995   0.00000  Uiso   1.00
N961   N     0.75805   0.81823   0.26399   0.00000  Uiso   1.00
N962   N     0.48110   0.16967   0.67394   0.00000  Uiso   1.00
N963   N     0.33074   0.94199   0.33335   0.00000  Uiso   1.00
N964   N     0.83095   0.83298   0.29014   0.00000  Uiso   1.00
N965   N     0.05399   0.68443   0.70010   0.00000  Uiso   1.00
N966   N     0.90364   0.45674   0.35950   0.00000  Uiso   1.00
C967   C     0.63768   0.48339   0.40257   0.00000  Uiso   1.00
C968   C     0.58564   0.47879   0.38253   0.00000  Uiso   1.00
C969   C     0.54666   0.43399   0.34525   0.00000  Uiso   1.00
C970   C     0.50197   0.43779   0.33222   0.00000  Uiso   1.00
C971   C     0.42201   0.42350   0.29757   0.00000  Uiso   1.00
C972   C     0.68755   0.48916   0.48013   0.00000  Uiso   1.00
C973   C     0.73426   0.45308   0.52490   0.00000  Uiso   1.00
C974   C     0.77535   0.46562   0.59403   0.00000  Uiso   1.00
C975   C     0.85363   0.46745   0.71090   0.00000  Uiso   1.00
C976   C     0.63295   0.54142   0.37464   0.00000  Uiso   1.00
C977   C     0.63376   0.54929   0.33073   0.00000  Uiso   1.00
C978   C     0.62889   0.60583   0.31105   0.00000  Uiso   1.00
C979   C     0.12240   0.18881   0.26413   0.00000  Uiso   1.00
C980   C     0.62761   0.56980   0.44574   0.00000  Uiso   1.00
C981   C     0.58018   0.52573   0.40599   0.00000  Uiso   1.00
C982   C     0.53552   0.52960   0.39301   0.00000  Uiso   1.00
C983   C     0.49649   0.48481   0.35571   0.00000  Uiso   1.00
C984   C     0.68208   0.53610   0.50358   0.00000  Uiso   1.00
C985   C     0.72312   0.54869   0.57266   0.00000  Uiso   1.00
C986   C     0.76987   0.51264   0.61752   0.00000  Uiso   1.00
C987   C     0.62748   0.58836   0.39809   0.00000  Uiso   1.00
C988   C     0.62262   0.64490   0.37849   0.00000  Uiso   1.00
C989   C     0.62342   0.65286   0.33455   0.00000  Uiso   1.00
H990   H     0.64194   0.44684   0.38432   0.00000  Uiso   1.00
H991   H     0.55091   0.39767   0.32711   0.00000  Uiso   1.00
H992   H     0.73848   0.41677   0.50674   0.00000  Uiso   1.00
H993   H     0.63799   0.51296   0.31259   0.00000  Uiso   1.00
H994   H     0.44759   0.36384   0.27405   0.00000  Uiso   1.00
H995   H     0.84309   0.40412   0.65280   0.00000  Uiso   1.00
H996   H     0.13120   0.10696   0.24340   0.00000  Uiso   1.00
H997   H     0.62335   0.60634   0.46400   0.00000  Uiso   1.00
H998   H     0.53130   0.56593   0.41116   0.00000  Uiso   1.00
H999   H     0.71887   0.58502   0.59079   0.00000  Uiso   1.00
H1000  H     0.61839   0.68121   0.39664   0.00000  Uiso   1.00
H1001  H     0.43168   0.50040   0.34227   0.00000  Uiso   1.00
H1002  H     0.82718   0.54068   0.72102   0.00000  Uiso   1.00
H1003  H     0.11529   0.24352   0.31162   0.00000  Uiso   1.00
O1004  O     0.37943   0.40265   0.27199   0.00000  Uiso   1.00
O1005  O     0.89831   0.45549   0.76888   0.00000  Uiso   1.00
O1006  O     0.12031   0.22162   0.23177   0.00000  Uiso   1.00
N1007  N     0.45647   0.40154   0.29735   0.00000  Uiso   1.00
N1008  N     0.82624   0.43919   0.65145   0.00000  Uiso   1.00
N1009  N     0.12815   0.12883   0.26872   0.00000  Uiso   1.00
N1010  N     0.44791   0.47502   0.33405   0.00000  Uiso   1.00
N1011  N     0.81768   0.51267   0.68816   0.00000  Uiso   1.00
N1012  N     0.11959   0.20231   0.30543   0.00000  Uiso   1.00
C1013  C     0.87284   0.29382   0.47108   0.00000  Uiso   1.00
C1014  C     0.37707   0.73778   0.44892   0.00000  Uiso   1.00
C1015  C     0.38055   0.73390   0.40729   0.00000  Uiso   1.00
C1016  C     0.38413   0.67861   0.39295   0.00000  Uiso   1.00
C1017  C     0.39071   0.59914   0.35456   0.00000  Uiso   1.00
C1018  C     0.92188   0.29279   0.54893   0.00000  Uiso   1.00
C1019  C     0.96303   0.33518   0.59139   0.00000  Uiso   1.00
C1020  C     0.00433   0.32621   0.66124   0.00000  Uiso   1.00
C1021  C     0.08046   0.33217   0.77812   0.00000  Uiso   1.00
C1022  C     0.81970   0.28833   0.44868   0.00000  Uiso   1.00
C1023  C     0.77494   0.32697   0.40686   0.00000  Uiso   1.00
C1024  C     0.73022   0.31424   0.39233   0.00000  Uiso   1.00
C1025  C     0.64770   0.31327   0.35356   0.00000  Uiso   1.00
C1026  C     0.37302   0.70253   0.51965   0.00000  Uiso   1.00
C1027  C     0.37717   0.68820   0.47530   0.00000  Uiso   1.00
C1028  C     0.38075   0.63290   0.46103   0.00000  Uiso   1.00
C1029  C     0.38423   0.62894   0.41938   0.00000  Uiso   1.00
C1030  C     0.92198   0.24321   0.57532   0.00000  Uiso   1.00
C1031  C     0.96323   0.23418   0.64512   0.00000  Uiso   1.00
C1032  C     0.00443   0.27653   0.68767   0.00000  Uiso   1.00
C1033  C     0.81980   0.23875   0.47507   0.00000  Uiso   1.00
C1034  C     0.77515   0.22596   0.46060   0.00000  Uiso   1.00
C1035  C     0.73032   0.26457   0.41876   0.00000  Uiso   1.00
H1036  H     0.87277   0.33242   0.45054   0.00000  Uiso   1.00
H1037  H     0.38047   0.77228   0.38688   0.00000  Uiso   1.00
H1038  H     0.96294   0.37355   0.57095   0.00000  Uiso   1.00
H1039  H     0.77488   0.36533   0.38646   0.00000  Uiso   1.00
H1040  H     0.38908   0.68373   0.32796   0.00000  Uiso   1.00
H1041  H     0.06296   0.39727   0.71608   0.00000  Uiso   1.00
H1042  H     0.66640   0.37995   0.32703   0.00000  Uiso   1.00
H1043  H     0.37310   0.66393   0.54020   0.00000  Uiso   1.00
H1044  H     0.38082   0.59454   0.48145   0.00000  Uiso   1.00
H1045  H     0.96329   0.19581   0.66552   0.00000  Uiso   1.00
H1046  H     0.77524   0.18759   0.48103   0.00000  Uiso   1.00
H1047  H     0.38937   0.53947   0.40472   0.00000  Uiso   1.00
H1048  H     0.06324   0.25301   0.79284   0.00000  Uiso   1.00
H1049  H     0.66669   0.23569   0.40379   0.00000  Uiso   1.00
O1050  O     0.39432   0.56900   0.32610   0.00000  Uiso   1.00
O1051  O     0.12243   0.34915   0.83529   0.00000  Uiso   1.00
O1052  O     0.60216   0.32643   0.32487   0.00000  Uiso   1.00
N1053  N     0.38808   0.65930   0.35408   0.00000  Uiso   1.00
N1054  N     0.05065   0.35894   0.71694   0.00000  Uiso   1.00
N1055  N     0.67991   0.34276   0.35323   0.00000  Uiso   1.00
N1056  N     0.38823   0.58168   0.39538   0.00000  Uiso   1.00
N1057  N     0.05080   0.28132   0.75825   0.00000  Uiso   1.00
N1058  N     0.68006   0.26513   0.39454   0.00000  Uiso   1.00
C1059  C     0.35019   0.14200   0.42142   0.00000  Uiso   1.00
C1060  C     0.34261   0.19417   0.38441   0.00000  Uiso   1.00
C1061  C     0.29563   0.22982   0.33874   0.00000  Uiso   1.00
C1062  C     0.29686   0.27528   0.31033   0.00000  Uiso   1.00
C1063  C     0.27802   0.35487   0.25036   0.00000  Uiso   1.00
C1064  C     0.40408   0.15324   0.49740   0.00000  Uiso   1.00
C1065  C     0.40879   0.15446   0.54672   0.00000  Uiso   1.00
C1066  C     0.46177   0.16546   0.61343   0.00000  Uiso   1.00
C1067  C     0.53837   0.18146   0.72888   0.00000  Uiso   1.00
C1068  C     0.36264   0.09049   0.40352   0.00000  Uiso   1.00
C1069  C     0.33251   0.03895   0.37393   0.00000  Uiso   1.00
C1070  C     0.85061   0.49712   0.36161   0.00000  Uiso   1.00
C1071  C     0.36286   0.91570   0.33130   0.00000  Uiso   1.00
C1072  C     0.43592   0.15935   0.45218   0.00000  Uiso   1.00
C1073  C     0.38918   0.20359   0.40113   0.00000  Uiso   1.00
C1074  C     0.39048   0.24901   0.37277   0.00000  Uiso   1.00
C1075  C     0.34351   0.28472   0.32706   0.00000  Uiso   1.00
C1076  C     0.45065   0.16266   0.51411   0.00000  Uiso   1.00
C1077  C     0.50364   0.17366   0.58076   0.00000  Uiso   1.00
C1078  C     0.50842   0.17490   0.63017   0.00000  Uiso   1.00
C1079  C     0.40920   0.09992   0.42023   0.00000  Uiso   1.00
C1080  C     0.42735   0.05815   0.40796   0.00000  Uiso   1.00
C1081  C     0.39726   0.00656   0.37835   0.00000  Uiso   1.00
H1082  H     0.31395   0.13467   0.40841   0.00000  Uiso   1.00
H1083  H     0.25961   0.22251   0.32583   0.00000  Uiso   1.00
H1084  H     0.87275   0.64716   0.53378   0.00000  Uiso   1.00
H1085  H     0.79648   0.53168   0.36101   0.00000  Uiso   1.00
H1086  H     0.21991   0.32408   0.24165   0.00000  Uiso   1.00
H1087  H     0.95848   0.66518   0.68013   0.00000  Uiso   1.00
H1088  H     0.79764   0.42165   0.31581   0.00000  Uiso   1.00
H1089  H     0.47218   0.16669   0.46519   0.00000  Uiso   1.00
H1090  H     0.42652   0.25629   0.38572   0.00000  Uiso   1.00
H1091  H     0.53966   0.18094   0.59367   0.00000  Uiso   1.00
H1092  H     0.46339   0.06546   0.42090   0.00000  Uiso   1.00
H1093  H     0.35538   0.35149   0.29026   0.00000  Uiso   1.00
H1094  H     0.59395   0.19259   0.72875   0.00000  Uiso   1.00
H1095  H     0.93312   0.44907   0.36442   0.00000  Uiso   1.00
O1096  O     0.25476   0.39617   0.21267   0.00000  Uiso   1.00
O1097  O     0.06776   0.68768   0.78794   0.00000  Uiso   1.00
O1098  O     0.35675   0.86819   0.30995   0.00000  Uiso   1.00
N1099  N     0.25805   0.31823   0.26399   0.00000  Uiso   1.00
N1100  N     0.98110   0.66967   0.67394   0.00000  Uiso   1.00
N1101  N     0.83074   0.44199   0.33335   0.00000  Uiso   1.00
N1102  N     0.33095   0.33298   0.29014   0.00000  Uiso   1.00
N1103  N     0.55399   0.18443   0.70010   0.00000  Uiso   1.00
N1104  N     0.40364   0.95674   0.35950   0.00000  Uiso   1.00
