data_job_05226
_audit_creation_date              2018-12-19
_audit_creation_method            'Materials Studio'
_symmetry_space_group_name_H-M    'P1'
_symmetry_Int_Tables_number       1
_symmetry_cell_setting            triclinic
loop_
_symmetry_equiv_pos_as_xyz
  x,y,z
_cell_length_a                    25.9251
_cell_length_b                    29.7295
_cell_length_c                    12.1988
_cell_angle_alpha                 90.0000
_cell_angle_beta                  90.0000
_cell_angle_gamma                 90.0000
loop_
_atom_site_label
_atom_site_type_symbol
_atom_site_fract_x
_atom_site_fract_y
_atom_site_fract_z
_atom_site_U_iso_or_equiv
_atom_site_adp_type
_atom_site_occupancy
C1     C     0.84352   0.59838   0.27303   0.00000  Uiso   1.00
C2     C     0.79166   0.59084   0.32907   0.00000  Uiso   1.00
C3     C     0.76708   0.54969   0.34166   0.00000  Uiso   1.00
C4     C     0.71985   0.54987   0.39529   0.00000  Uiso   1.00
C5     C     0.64262   0.53209   0.47624   0.00000  Uiso   1.00
C6     C     0.83375   0.63278   0.18268   0.00000  Uiso   1.00
C7     C     0.84457   0.62691   0.07218   0.00000  Uiso   1.00
C8     C     0.83278   0.66241   0.00258   0.00000  Uiso   1.00
C9     C     0.82094   0.70977   0.85627   0.00000  Uiso   1.00
C10    C     0.87762   0.62186   0.35727   0.00000  Uiso   1.00
C11    C     0.92533   0.60682   0.39355   0.00000  Uiso   1.00
C12    C     0.95048   0.63312   0.47094   0.00000  Uiso   1.00
C13    C     0.00676   0.66353   0.59570   0.00000  Uiso   1.00
C14    C     0.80335   0.67186   0.34591   0.00000  Uiso   1.00
C15    C     0.76984   0.63075   0.36865   0.00000  Uiso   1.00
C16    C     0.72263   0.63099   0.42229   0.00000  Uiso   1.00
C17    C     0.69799   0.58985   0.43496   0.00000  Uiso   1.00
C18    C     0.81193   0.67270   0.22226   0.00000  Uiso   1.00
C19    C     0.80012   0.70821   0.15282   0.00000  Uiso   1.00
C20    C     0.81092   0.70239   0.04224   0.00000  Uiso   1.00
C21    C     0.85580   0.66178   0.39686   0.00000  Uiso   1.00
C22    C     0.88088   0.68811   0.47419   0.00000  Uiso   1.00
C23    C     0.92862   0.67311   0.51059   0.00000  Uiso   1.00
H24    H     0.86051   0.56730   0.24220   0.00000  Uiso   1.00
H25    H     0.78398   0.51881   0.31100   0.00000  Uiso   1.00
H26    H     0.86146   0.59602   0.04157   0.00000  Uiso   1.00
H27    H     0.94221   0.57593   0.36290   0.00000  Uiso   1.00
H28    H     0.68949   0.48265   0.40470   0.00000  Uiso   1.00
H29    H     0.85289   0.64546   0.83659   0.00000  Uiso   1.00
H30    H     0.02316   0.60309   0.51418   0.00000  Uiso   1.00
H31    H     0.78636   0.70293   0.37673   0.00000  Uiso   1.00
H32    H     0.70576   0.66188   0.45292   0.00000  Uiso   1.00
H33    H     0.78324   0.73909   0.18348   0.00000  Uiso   1.00
H34    H     0.86399   0.71900   0.50481   0.00000  Uiso   1.00
H35    H     0.62600   0.59877   0.51988   0.00000  Uiso   1.00
H36    H     0.78940   0.76158   0.95177   0.00000  Uiso   1.00
H37    H     0.95967   0.71921   0.62936   0.00000  Uiso   1.00
O38    O     0.60605   0.51126   0.50994   0.00000  Uiso   1.00
O39    O     0.82043   0.72486   0.76462   0.00000  Uiso   1.00
O40    O     0.04382   0.66927   0.65360   0.00000  Uiso   1.00
N41    N     0.68562   0.51561   0.42137   0.00000  Uiso   1.00
N42    N     0.83837   0.66783   0.89022   0.00000  Uiso   1.00
N43    N     0.99757   0.62822   0.52369   0.00000  Uiso   1.00
N44    N     0.65145   0.57810   0.48335   0.00000  Uiso   1.00
N45    N     0.80421   0.73031   0.95220   0.00000  Uiso   1.00
N46    N     0.96341   0.69070   0.58567   0.00000  Uiso   1.00
C47    C     0.12627   0.90654   0.22003   0.00000  Uiso   1.00
C48    C     0.18080   0.91267   0.26443   0.00000  Uiso   1.00
C49    C     0.20306   0.95326   0.29470   0.00000  Uiso   1.00
C50    C     0.25340   0.95178   0.33338   0.00000  Uiso   1.00
C51    C     0.33397   0.96748   0.40104   0.00000  Uiso   1.00
C52    C     0.13210   0.88284   0.10987   0.00000  Uiso   1.00
C53    C     0.11342   0.89835   0.01018   0.00000  Uiso   1.00
C54    C     0.12276   0.87175   0.91875   0.00000  Uiso   1.00
C55    C     0.12770   0.84113   0.74646   0.00000  Uiso   1.00
C56    C     0.10002   0.87284   0.29599   0.00000  Uiso   1.00
C57    C     0.05436   0.87993   0.35277   0.00000  Uiso   1.00
C58    C     0.03668   0.84491   0.41803   0.00000  Uiso   1.00
C59    C     0.99181   0.79876   0.53472   0.00000  Uiso   1.00
C60    C     0.17607   0.83172   0.23492   0.00000  Uiso   1.00
C61    C     0.20785   0.87203   0.27251   0.00000  Uiso   1.00
C62    C     0.25817   0.87049   0.31117   0.00000  Uiso   1.00
C63    C     0.28050   0.91107   0.34149   0.00000  Uiso   1.00
C64    C     0.15915   0.84220   0.11795   0.00000  Uiso   1.00
C65    C     0.16852   0.81557   0.02665   0.00000  Uiso   1.00
C66    C     0.14986   0.83104   0.92685   0.00000  Uiso   1.00
C67    C     0.12707   0.83220   0.30408   0.00000  Uiso   1.00
C68    C     0.10946   0.79716   0.36925   0.00000  Uiso   1.00
C69    C     0.06378   0.80420   0.42613   0.00000  Uiso   1.00
H70    H     0.10521   0.93818   0.21373   0.00000  Uiso   1.00
H71    H     0.18212   0.98471   0.28841   0.00000  Uiso   1.00
H72    H     0.09248   0.92980   0.00395   0.00000  Uiso   1.00
H73    H     0.03343   0.91139   0.34649   0.00000  Uiso   1.00
H74    H     0.27933   0.01837   0.37475   0.00000  Uiso   1.00
H75    H     0.09031   0.90259   0.77494   0.00000  Uiso   1.00
H76    H     0.96579   0.86376   0.49726   0.00000  Uiso   1.00
H77    H     0.19713   0.80008   0.24121   0.00000  Uiso   1.00
H78    H     0.27909   0.83903   0.31742   0.00000  Uiso   1.00
H79    H     0.18945   0.78413   0.03294   0.00000  Uiso   1.00
H80    H     0.13040   0.76571   0.37549   0.00000  Uiso   1.00
H81    H     0.35803   0.90014   0.39828   0.00000  Uiso   1.00
H82    H     0.16901   0.78436   0.79847   0.00000  Uiso   1.00
H83    H     0.04450   0.74553   0.52079   0.00000  Uiso   1.00
O84    O     0.37094   0.98737   0.43611   0.00000  Uiso   1.00
O85    O     0.12295   0.83547   0.64919   0.00000  Uiso   1.00
O86    O     0.95959   0.78453   0.59686   0.00000  Uiso   1.00
N87    N     0.28660   0.98520   0.36985   0.00000  Uiso   1.00
N88    N     0.10989   0.87695   0.80906   0.00000  Uiso   1.00
N89    N     0.99346   0.84065   0.48435   0.00000  Uiso   1.00
N90    N     0.32895   0.92158   0.38252   0.00000  Uiso   1.00
N91    N     0.15224   0.81333   0.82172   0.00000  Uiso   1.00
N92    N     0.03582   0.77703   0.49701   0.00000  Uiso   1.00
C93    C     0.65648   0.90162   0.77303   0.00000  Uiso   1.00
C94    C     0.70834   0.90916   0.82907   0.00000  Uiso   1.00
C95    C     0.73292   0.95031   0.84166   0.00000  Uiso   1.00
C96    C     0.78015   0.95013   0.89529   0.00000  Uiso   1.00
C97    C     0.85738   0.96791   0.97624   0.00000  Uiso   1.00
C98    C     0.66625   0.86722   0.68268   0.00000  Uiso   1.00
C99    C     0.65543   0.87309   0.57218   0.00000  Uiso   1.00
C100   C     0.66722   0.83759   0.50258   0.00000  Uiso   1.00
C101   C     0.67906   0.79023   0.35627   0.00000  Uiso   1.00
C102   C     0.62238   0.87814   0.85727   0.00000  Uiso   1.00
C103   C     0.57467   0.89318   0.89355   0.00000  Uiso   1.00
C104   C     0.54952   0.86688   0.97094   0.00000  Uiso   1.00
C105   C     0.49324   0.83647   0.09570   0.00000  Uiso   1.00
C106   C     0.69665   0.82814   0.84591   0.00000  Uiso   1.00
C107   C     0.73016   0.86925   0.86865   0.00000  Uiso   1.00
C108   C     0.77737   0.86901   0.92229   0.00000  Uiso   1.00
C109   C     0.80201   0.91015   0.93496   0.00000  Uiso   1.00
C110   C     0.68807   0.82730   0.72226   0.00000  Uiso   1.00
C111   C     0.69988   0.79179   0.65282   0.00000  Uiso   1.00
C112   C     0.68908   0.79761   0.54224   0.00000  Uiso   1.00
C113   C     0.64420   0.83822   0.89686   0.00000  Uiso   1.00
C114   C     0.61912   0.81189   0.97419   0.00000  Uiso   1.00
C115   C     0.57138   0.82689   0.01059   0.00000  Uiso   1.00
H116   H     0.63949   0.93270   0.74220   0.00000  Uiso   1.00
H117   H     0.71602   0.98119   0.81100   0.00000  Uiso   1.00
H118   H     0.63854   0.90398   0.54157   0.00000  Uiso   1.00
H119   H     0.55779   0.92407   0.86290   0.00000  Uiso   1.00
H120   H     0.81051   0.01735   0.90470   0.00000  Uiso   1.00
H121   H     0.64711   0.85454   0.33659   0.00000  Uiso   1.00
H122   H     0.47684   0.89691   0.01418   0.00000  Uiso   1.00
H123   H     0.71364   0.79707   0.87673   0.00000  Uiso   1.00
H124   H     0.79424   0.83812   0.95292   0.00000  Uiso   1.00
H125   H     0.71676   0.76091   0.68348   0.00000  Uiso   1.00
H126   H     0.63601   0.78100   0.00481   0.00000  Uiso   1.00
H127   H     0.87400   0.90123   0.01988   0.00000  Uiso   1.00
H128   H     0.71060   0.73842   0.45177   0.00000  Uiso   1.00
H129   H     0.54033   0.78079   0.12936   0.00000  Uiso   1.00
O130   O     0.89395   0.98874   0.00994   0.00000  Uiso   1.00
O131   O     0.67957   0.77514   0.26462   0.00000  Uiso   1.00
O132   O     0.45618   0.83073   0.15360   0.00000  Uiso   1.00
N133   N     0.81438   0.98439   0.92137   0.00000  Uiso   1.00
N134   N     0.66163   0.83217   0.39022   0.00000  Uiso   1.00
N135   N     0.50243   0.87178   0.02369   0.00000  Uiso   1.00
N136   N     0.84855   0.92190   0.98335   0.00000  Uiso   1.00
N137   N     0.69579   0.76969   0.45220   0.00000  Uiso   1.00
N138   N     0.53659   0.80930   0.08567   0.00000  Uiso   1.00
C139   C     0.37373   0.59346   0.72003   0.00000  Uiso   1.00
C140   C     0.31920   0.58733   0.76443   0.00000  Uiso   1.00
C141   C     0.29694   0.54674   0.79470   0.00000  Uiso   1.00
C142   C     0.24660   0.54822   0.83338   0.00000  Uiso   1.00
C143   C     0.16603   0.53252   0.90104   0.00000  Uiso   1.00
C144   C     0.36790   0.61716   0.60987   0.00000  Uiso   1.00
C145   C     0.38658   0.60165   0.51018   0.00000  Uiso   1.00
C146   C     0.37724   0.62825   0.41875   0.00000  Uiso   1.00
C147   C     0.37230   0.65887   0.24646   0.00000  Uiso   1.00
C148   C     0.39998   0.62716   0.79599   0.00000  Uiso   1.00
C149   C     0.44564   0.62007   0.85277   0.00000  Uiso   1.00
C150   C     0.46332   0.65509   0.91803   0.00000  Uiso   1.00
C151   C     0.50819   0.70124   0.03472   0.00000  Uiso   1.00
C152   C     0.32393   0.66828   0.73492   0.00000  Uiso   1.00
C153   C     0.29215   0.62797   0.77251   0.00000  Uiso   1.00
C154   C     0.24183   0.62951   0.81117   0.00000  Uiso   1.00
C155   C     0.21950   0.58893   0.84149   0.00000  Uiso   1.00
C156   C     0.34085   0.65780   0.61795   0.00000  Uiso   1.00
C157   C     0.33148   0.68443   0.52665   0.00000  Uiso   1.00
C158   C     0.35014   0.66896   0.42685   0.00000  Uiso   1.00
C159   C     0.37293   0.66780   0.80408   0.00000  Uiso   1.00
C160   C     0.39054   0.70284   0.86925   0.00000  Uiso   1.00
C161   C     0.43622   0.69580   0.92613   0.00000  Uiso   1.00
H162   H     0.39479   0.56182   0.71373   0.00000  Uiso   1.00
H163   H     0.31788   0.51529   0.78841   0.00000  Uiso   1.00
H164   H     0.40752   0.57020   0.50395   0.00000  Uiso   1.00
H165   H     0.46657   0.58861   0.84649   0.00000  Uiso   1.00
H166   H     0.22067   0.48163   0.87475   0.00000  Uiso   1.00
H167   H     0.40969   0.59741   0.27494   0.00000  Uiso   1.00
H168   H     0.53421   0.63624   0.99726   0.00000  Uiso   1.00
H169   H     0.30287   0.69992   0.74121   0.00000  Uiso   1.00
H170   H     0.22091   0.66097   0.81742   0.00000  Uiso   1.00
H171   H     0.31055   0.71587   0.53294   0.00000  Uiso   1.00
H172   H     0.36960   0.73429   0.87549   0.00000  Uiso   1.00
H173   H     0.14197   0.59986   0.89828   0.00000  Uiso   1.00
H174   H     0.33099   0.71564   0.29847   0.00000  Uiso   1.00
H175   H     0.45550   0.75447   0.02079   0.00000  Uiso   1.00
O176   O     0.12906   0.51263   0.93611   0.00000  Uiso   1.00
O177   O     0.37705   0.66453   0.14919   0.00000  Uiso   1.00
O178   O     0.54041   0.71547   0.09686   0.00000  Uiso   1.00
N179   N     0.21340   0.51480   0.86985   0.00000  Uiso   1.00
N180   N     0.39011   0.62305   0.30906   0.00000  Uiso   1.00
N181   N     0.50654   0.65935   0.98435   0.00000  Uiso   1.00
N182   N     0.17105   0.57842   0.88252   0.00000  Uiso   1.00
N183   N     0.34776   0.68667   0.32172   0.00000  Uiso   1.00
N184   N     0.46418   0.72297   0.99701   0.00000  Uiso   1.00
C185   C     0.15648   0.59838   0.22697   0.00000  Uiso   1.00
C186   C     0.20834   0.59084   0.17093   0.00000  Uiso   1.00
C187   C     0.23292   0.54969   0.15834   0.00000  Uiso   1.00
C188   C     0.28015   0.54987   0.10471   0.00000  Uiso   1.00
C189   C     0.35738   0.53209   0.02376   0.00000  Uiso   1.00
C190   C     0.16625   0.63278   0.31732   0.00000  Uiso   1.00
C191   C     0.15543   0.62691   0.42782   0.00000  Uiso   1.00
C192   C     0.16722   0.66241   0.49742   0.00000  Uiso   1.00
C193   C     0.17906   0.70977   0.64373   0.00000  Uiso   1.00
C194   C     0.12238   0.62186   0.14273   0.00000  Uiso   1.00
C195   C     0.07467   0.60682   0.10645   0.00000  Uiso   1.00
C196   C     0.04952   0.63312   0.02906   0.00000  Uiso   1.00
C197   C     0.99324   0.66353   0.90430   0.00000  Uiso   1.00
C198   C     0.19665   0.67186   0.15409   0.00000  Uiso   1.00
C199   C     0.23016   0.63075   0.13135   0.00000  Uiso   1.00
C200   C     0.27737   0.63099   0.07771   0.00000  Uiso   1.00
C201   C     0.30201   0.58985   0.06504   0.00000  Uiso   1.00
C202   C     0.18807   0.67270   0.27774   0.00000  Uiso   1.00
C203   C     0.19988   0.70821   0.34718   0.00000  Uiso   1.00
C204   C     0.18908   0.70239   0.45776   0.00000  Uiso   1.00
C205   C     0.14420   0.66178   0.10314   0.00000  Uiso   1.00
C206   C     0.11912   0.68811   0.02581   0.00000  Uiso   1.00
C207   C     0.07138   0.67311   0.98941   0.00000  Uiso   1.00
H208   H     0.13949   0.56730   0.25780   0.00000  Uiso   1.00
H209   H     0.21602   0.51881   0.18900   0.00000  Uiso   1.00
H210   H     0.13854   0.59602   0.45843   0.00000  Uiso   1.00
H211   H     0.05779   0.57593   0.13710   0.00000  Uiso   1.00
H212   H     0.31051   0.48265   0.09530   0.00000  Uiso   1.00
H213   H     0.14711   0.64546   0.66341   0.00000  Uiso   1.00
H214   H     0.97684   0.60309   0.98582   0.00000  Uiso   1.00
H215   H     0.21364   0.70293   0.12327   0.00000  Uiso   1.00
H216   H     0.29424   0.66188   0.04708   0.00000  Uiso   1.00
H217   H     0.21676   0.73909   0.31652   0.00000  Uiso   1.00
H218   H     0.13601   0.71900   0.99519   0.00000  Uiso   1.00
H219   H     0.37400   0.59877   0.98012   0.00000  Uiso   1.00
H220   H     0.21060   0.76158   0.54823   0.00000  Uiso   1.00
H221   H     0.04033   0.71921   0.87064   0.00000  Uiso   1.00
O222   O     0.39395   0.51126   0.99006   0.00000  Uiso   1.00
O223   O     0.17957   0.72486   0.73538   0.00000  Uiso   1.00
O224   O     0.95618   0.66927   0.84640   0.00000  Uiso   1.00
N225   N     0.31438   0.51561   0.07863   0.00000  Uiso   1.00
N226   N     0.16163   0.66783   0.60978   0.00000  Uiso   1.00
N227   N     0.00243   0.62822   0.97631   0.00000  Uiso   1.00
N228   N     0.34855   0.57810   0.01665   0.00000  Uiso   1.00
N229   N     0.19579   0.73031   0.54780   0.00000  Uiso   1.00
N230   N     0.03659   0.69070   0.91433   0.00000  Uiso   1.00
C231   C     0.87373   0.90654   0.27997   0.00000  Uiso   1.00
C232   C     0.81920   0.91267   0.23557   0.00000  Uiso   1.00
C233   C     0.79694   0.95326   0.20530   0.00000  Uiso   1.00
C234   C     0.74660   0.95178   0.16662   0.00000  Uiso   1.00
C235   C     0.66603   0.96748   0.09896   0.00000  Uiso   1.00
C236   C     0.86790   0.88284   0.39013   0.00000  Uiso   1.00
C237   C     0.88658   0.89835   0.48982   0.00000  Uiso   1.00
C238   C     0.87724   0.87175   0.58125   0.00000  Uiso   1.00
C239   C     0.87230   0.84113   0.75354   0.00000  Uiso   1.00
C240   C     0.89998   0.87284   0.20401   0.00000  Uiso   1.00
C241   C     0.94564   0.87993   0.14723   0.00000  Uiso   1.00
C242   C     0.96332   0.84491   0.08197   0.00000  Uiso   1.00
C243   C     0.00819   0.79876   0.96528   0.00000  Uiso   1.00
C244   C     0.82393   0.83172   0.26508   0.00000  Uiso   1.00
C245   C     0.79215   0.87203   0.22749   0.00000  Uiso   1.00
C246   C     0.74183   0.87049   0.18883   0.00000  Uiso   1.00
C247   C     0.71950   0.91107   0.15851   0.00000  Uiso   1.00
C248   C     0.84085   0.84220   0.38205   0.00000  Uiso   1.00
C249   C     0.83148   0.81557   0.47335   0.00000  Uiso   1.00
C250   C     0.85014   0.83104   0.57315   0.00000  Uiso   1.00
C251   C     0.87293   0.83220   0.19592   0.00000  Uiso   1.00
C252   C     0.89054   0.79716   0.13075   0.00000  Uiso   1.00
C253   C     0.93622   0.80420   0.07387   0.00000  Uiso   1.00
H254   H     0.89479   0.93818   0.28627   0.00000  Uiso   1.00
H255   H     0.81788   0.98471   0.21159   0.00000  Uiso   1.00
H256   H     0.90752   0.92980   0.49605   0.00000  Uiso   1.00
H257   H     0.96657   0.91139   0.15351   0.00000  Uiso   1.00
H258   H     0.72067   0.01837   0.12525   0.00000  Uiso   1.00
H259   H     0.90969   0.90259   0.72506   0.00000  Uiso   1.00
H260   H     0.03421   0.86376   0.00274   0.00000  Uiso   1.00
H261   H     0.80287   0.80008   0.25879   0.00000  Uiso   1.00
H262   H     0.72091   0.83903   0.18258   0.00000  Uiso   1.00
H263   H     0.81055   0.78413   0.46706   0.00000  Uiso   1.00
H264   H     0.86960   0.76571   0.12451   0.00000  Uiso   1.00
H265   H     0.64197   0.90014   0.10172   0.00000  Uiso   1.00
H266   H     0.83099   0.78436   0.70153   0.00000  Uiso   1.00
H267   H     0.95550   0.74553   0.97921   0.00000  Uiso   1.00
O268   O     0.62906   0.98737   0.06389   0.00000  Uiso   1.00
O269   O     0.87705   0.83547   0.85081   0.00000  Uiso   1.00
O270   O     0.04041   0.78453   0.90314   0.00000  Uiso   1.00
N271   N     0.71340   0.98520   0.13015   0.00000  Uiso   1.00
N272   N     0.89011   0.87695   0.69094   0.00000  Uiso   1.00
N273   N     0.00654   0.84065   0.01565   0.00000  Uiso   1.00
N274   N     0.67105   0.92158   0.11748   0.00000  Uiso   1.00
N275   N     0.84776   0.81333   0.67828   0.00000  Uiso   1.00
N276   N     0.96418   0.77703   0.00299   0.00000  Uiso   1.00
C277   C     0.34352   0.90162   0.72697   0.00000  Uiso   1.00
C278   C     0.29166   0.90916   0.67093   0.00000  Uiso   1.00
C279   C     0.26708   0.95031   0.65834   0.00000  Uiso   1.00
C280   C     0.21985   0.95013   0.60471   0.00000  Uiso   1.00
C281   C     0.14262   0.96791   0.52376   0.00000  Uiso   1.00
C282   C     0.33375   0.86722   0.81732   0.00000  Uiso   1.00
C283   C     0.34457   0.87309   0.92782   0.00000  Uiso   1.00
C284   C     0.33278   0.83759   0.99742   0.00000  Uiso   1.00
C285   C     0.32094   0.79023   0.14373   0.00000  Uiso   1.00
C286   C     0.37762   0.87814   0.64273   0.00000  Uiso   1.00
C287   C     0.42533   0.89318   0.60645   0.00000  Uiso   1.00
C288   C     0.45048   0.86688   0.52906   0.00000  Uiso   1.00
C289   C     0.50676   0.83647   0.40430   0.00000  Uiso   1.00
C290   C     0.30335   0.82814   0.65409   0.00000  Uiso   1.00
C291   C     0.26984   0.86925   0.63135   0.00000  Uiso   1.00
C292   C     0.22263   0.86901   0.57771   0.00000  Uiso   1.00
C293   C     0.19799   0.91015   0.56504   0.00000  Uiso   1.00
C294   C     0.31193   0.82730   0.77774   0.00000  Uiso   1.00
C295   C     0.30012   0.79179   0.84718   0.00000  Uiso   1.00
C296   C     0.31092   0.79761   0.95776   0.00000  Uiso   1.00
C297   C     0.35580   0.83822   0.60314   0.00000  Uiso   1.00
C298   C     0.38088   0.81189   0.52581   0.00000  Uiso   1.00
C299   C     0.42862   0.82689   0.48941   0.00000  Uiso   1.00
H300   H     0.36051   0.93270   0.75780   0.00000  Uiso   1.00
H301   H     0.28398   0.98119   0.68900   0.00000  Uiso   1.00
H302   H     0.36146   0.90398   0.95843   0.00000  Uiso   1.00
H303   H     0.44221   0.92407   0.63710   0.00000  Uiso   1.00
H304   H     0.18949   0.01735   0.59530   0.00000  Uiso   1.00
H305   H     0.35289   0.85454   0.16341   0.00000  Uiso   1.00
H306   H     0.52316   0.89691   0.48582   0.00000  Uiso   1.00
H307   H     0.28636   0.79707   0.62327   0.00000  Uiso   1.00
H308   H     0.20576   0.83812   0.54708   0.00000  Uiso   1.00
H309   H     0.28324   0.76091   0.81652   0.00000  Uiso   1.00
H310   H     0.36399   0.78100   0.49519   0.00000  Uiso   1.00
H311   H     0.12600   0.90123   0.48012   0.00000  Uiso   1.00
H312   H     0.28940   0.73842   0.04823   0.00000  Uiso   1.00
H313   H     0.45967   0.78079   0.37064   0.00000  Uiso   1.00
O314   O     0.10605   0.98874   0.49006   0.00000  Uiso   1.00
O315   O     0.32043   0.77514   0.23538   0.00000  Uiso   1.00
O316   O     0.54382   0.83073   0.34640   0.00000  Uiso   1.00
N317   N     0.18562   0.98439   0.57863   0.00000  Uiso   1.00
N318   N     0.33837   0.83217   0.10978   0.00000  Uiso   1.00
N319   N     0.49757   0.87178   0.47631   0.00000  Uiso   1.00
N320   N     0.15145   0.92190   0.51665   0.00000  Uiso   1.00
N321   N     0.30421   0.76969   0.04780   0.00000  Uiso   1.00
N322   N     0.46341   0.80930   0.41433   0.00000  Uiso   1.00
C323   C     0.62627   0.59346   0.77997   0.00000  Uiso   1.00
C324   C     0.68080   0.58733   0.73557   0.00000  Uiso   1.00
C325   C     0.70306   0.54674   0.70530   0.00000  Uiso   1.00
C326   C     0.75340   0.54822   0.66662   0.00000  Uiso   1.00
C327   C     0.83397   0.53252   0.59896   0.00000  Uiso   1.00
C328   C     0.63210   0.61716   0.89013   0.00000  Uiso   1.00
C329   C     0.61342   0.60165   0.98982   0.00000  Uiso   1.00
C330   C     0.62276   0.62825   0.08125   0.00000  Uiso   1.00
C331   C     0.62770   0.65887   0.25354   0.00000  Uiso   1.00
C332   C     0.60002   0.62716   0.70401   0.00000  Uiso   1.00
C333   C     0.55436   0.62007   0.64723   0.00000  Uiso   1.00
C334   C     0.53668   0.65509   0.58197   0.00000  Uiso   1.00
C335   C     0.49181   0.70124   0.46528   0.00000  Uiso   1.00
C336   C     0.67607   0.66828   0.76508   0.00000  Uiso   1.00
C337   C     0.70785   0.62797   0.72749   0.00000  Uiso   1.00
C338   C     0.75817   0.62951   0.68883   0.00000  Uiso   1.00
C339   C     0.78050   0.58893   0.65851   0.00000  Uiso   1.00
C340   C     0.65915   0.65780   0.88205   0.00000  Uiso   1.00
C341   C     0.66852   0.68443   0.97335   0.00000  Uiso   1.00
C342   C     0.64986   0.66896   0.07315   0.00000  Uiso   1.00
C343   C     0.62707   0.66780   0.69592   0.00000  Uiso   1.00
C344   C     0.60946   0.70284   0.63075   0.00000  Uiso   1.00
C345   C     0.56378   0.69580   0.57387   0.00000  Uiso   1.00
H346   H     0.60521   0.56182   0.78627   0.00000  Uiso   1.00
H347   H     0.68212   0.51529   0.71159   0.00000  Uiso   1.00
H348   H     0.59248   0.57020   0.99605   0.00000  Uiso   1.00
H349   H     0.53343   0.58861   0.65351   0.00000  Uiso   1.00
H350   H     0.77933   0.48163   0.62525   0.00000  Uiso   1.00
H351   H     0.59031   0.59741   0.22506   0.00000  Uiso   1.00
H352   H     0.46579   0.63624   0.50274   0.00000  Uiso   1.00
H353   H     0.69713   0.69992   0.75879   0.00000  Uiso   1.00
H354   H     0.77909   0.66097   0.68258   0.00000  Uiso   1.00
H355   H     0.68945   0.71587   0.96706   0.00000  Uiso   1.00
H356   H     0.63040   0.73429   0.62451   0.00000  Uiso   1.00
H357   H     0.85803   0.59986   0.60172   0.00000  Uiso   1.00
H358   H     0.66901   0.71564   0.20153   0.00000  Uiso   1.00
H359   H     0.54450   0.75447   0.47921   0.00000  Uiso   1.00
O360   O     0.87094   0.51263   0.56389   0.00000  Uiso   1.00
O361   O     0.62295   0.66453   0.35081   0.00000  Uiso   1.00
O362   O     0.45959   0.71547   0.40314   0.00000  Uiso   1.00
N363   N     0.78660   0.51480   0.63015   0.00000  Uiso   1.00
N364   N     0.60989   0.62305   0.19094   0.00000  Uiso   1.00
N365   N     0.49346   0.65935   0.51565   0.00000  Uiso   1.00
N366   N     0.82895   0.57842   0.61748   0.00000  Uiso   1.00
N367   N     0.65224   0.68667   0.17828   0.00000  Uiso   1.00
N368   N     0.53582   0.72297   0.50299   0.00000  Uiso   1.00
C369   C     0.15648   0.40162   0.72697   0.00000  Uiso   1.00
C370   C     0.20834   0.40916   0.67093   0.00000  Uiso   1.00
C371   C     0.23292   0.45031   0.65834   0.00000  Uiso   1.00
C372   C     0.28015   0.45013   0.60471   0.00000  Uiso   1.00
C373   C     0.35738   0.46791   0.52376   0.00000  Uiso   1.00
C374   C     0.16625   0.36722   0.81732   0.00000  Uiso   1.00
C375   C     0.15543   0.37309   0.92782   0.00000  Uiso   1.00
C376   C     0.16722   0.33759   0.99742   0.00000  Uiso   1.00
C377   C     0.17906   0.29023   0.14373   0.00000  Uiso   1.00
C378   C     0.12238   0.37814   0.64273   0.00000  Uiso   1.00
C379   C     0.07467   0.39318   0.60645   0.00000  Uiso   1.00
C380   C     0.04952   0.36688   0.52906   0.00000  Uiso   1.00
C381   C     0.99324   0.33647   0.40430   0.00000  Uiso   1.00
C382   C     0.19665   0.32814   0.65409   0.00000  Uiso   1.00
C383   C     0.23016   0.36925   0.63135   0.00000  Uiso   1.00
C384   C     0.27737   0.36901   0.57771   0.00000  Uiso   1.00
C385   C     0.30201   0.41015   0.56504   0.00000  Uiso   1.00
C386   C     0.18807   0.32730   0.77774   0.00000  Uiso   1.00
C387   C     0.19988   0.29179   0.84718   0.00000  Uiso   1.00
C388   C     0.18908   0.29761   0.95776   0.00000  Uiso   1.00
C389   C     0.14420   0.33822   0.60314   0.00000  Uiso   1.00
C390   C     0.11912   0.31189   0.52581   0.00000  Uiso   1.00
C391   C     0.07138   0.32689   0.48941   0.00000  Uiso   1.00
H392   H     0.13949   0.43270   0.75780   0.00000  Uiso   1.00
H393   H     0.21602   0.48119   0.68900   0.00000  Uiso   1.00
H394   H     0.13854   0.40398   0.95843   0.00000  Uiso   1.00
H395   H     0.05779   0.42407   0.63710   0.00000  Uiso   1.00
H396   H     0.31051   0.51735   0.59530   0.00000  Uiso   1.00
H397   H     0.14711   0.35454   0.16341   0.00000  Uiso   1.00
H398   H     0.97684   0.39691   0.48582   0.00000  Uiso   1.00
H399   H     0.21364   0.29707   0.62327   0.00000  Uiso   1.00
H400   H     0.29424   0.33812   0.54708   0.00000  Uiso   1.00
H401   H     0.21676   0.26091   0.81652   0.00000  Uiso   1.00
H402   H     0.13601   0.28100   0.49519   0.00000  Uiso   1.00
H403   H     0.37400   0.40123   0.48012   0.00000  Uiso   1.00
H404   H     0.21060   0.23842   0.04823   0.00000  Uiso   1.00
H405   H     0.04033   0.28079   0.37064   0.00000  Uiso   1.00
O406   O     0.39395   0.48874   0.49006   0.00000  Uiso   1.00
O407   O     0.17957   0.27514   0.23538   0.00000  Uiso   1.00
O408   O     0.95618   0.33073   0.34640   0.00000  Uiso   1.00
N409   N     0.31438   0.48439   0.57863   0.00000  Uiso   1.00
N410   N     0.16163   0.33217   0.10978   0.00000  Uiso   1.00
N411   N     0.00243   0.37178   0.47631   0.00000  Uiso   1.00
N412   N     0.34855   0.42190   0.51665   0.00000  Uiso   1.00
N413   N     0.19579   0.26969   0.04780   0.00000  Uiso   1.00
N414   N     0.03659   0.30930   0.41433   0.00000  Uiso   1.00
C415   C     0.87373   0.09346   0.77997   0.00000  Uiso   1.00
C416   C     0.81920   0.08733   0.73557   0.00000  Uiso   1.00
C417   C     0.79694   0.04674   0.70530   0.00000  Uiso   1.00
C418   C     0.74660   0.04822   0.66662   0.00000  Uiso   1.00
C419   C     0.66603   0.03252   0.59896   0.00000  Uiso   1.00
C420   C     0.86790   0.11716   0.89013   0.00000  Uiso   1.00
C421   C     0.88658   0.10165   0.98982   0.00000  Uiso   1.00
C422   C     0.87724   0.12825   0.08125   0.00000  Uiso   1.00
C423   C     0.87230   0.15887   0.25354   0.00000  Uiso   1.00
C424   C     0.89998   0.12716   0.70401   0.00000  Uiso   1.00
C425   C     0.94564   0.12007   0.64723   0.00000  Uiso   1.00
C426   C     0.96332   0.15509   0.58197   0.00000  Uiso   1.00
C427   C     0.00819   0.20124   0.46528   0.00000  Uiso   1.00
C428   C     0.82393   0.16828   0.76508   0.00000  Uiso   1.00
C429   C     0.79215   0.12797   0.72749   0.00000  Uiso   1.00
C430   C     0.74183   0.12951   0.68883   0.00000  Uiso   1.00
C431   C     0.71950   0.08893   0.65851   0.00000  Uiso   1.00
C432   C     0.84085   0.15780   0.88205   0.00000  Uiso   1.00
C433   C     0.83148   0.18443   0.97335   0.00000  Uiso   1.00
C434   C     0.85014   0.16896   0.07315   0.00000  Uiso   1.00
C435   C     0.87293   0.16780   0.69592   0.00000  Uiso   1.00
C436   C     0.89054   0.20284   0.63075   0.00000  Uiso   1.00
C437   C     0.93622   0.19580   0.57387   0.00000  Uiso   1.00
H438   H     0.89479   0.06182   0.78627   0.00000  Uiso   1.00
H439   H     0.81788   0.01529   0.71159   0.00000  Uiso   1.00
H440   H     0.90752   0.07020   0.99605   0.00000  Uiso   1.00
H441   H     0.96657   0.08861   0.65351   0.00000  Uiso   1.00
H442   H     0.72067   0.98163   0.62525   0.00000  Uiso   1.00
H443   H     0.90969   0.09741   0.22506   0.00000  Uiso   1.00
H444   H     0.03421   0.13624   0.50274   0.00000  Uiso   1.00
H445   H     0.80287   0.19992   0.75879   0.00000  Uiso   1.00
H446   H     0.72091   0.16097   0.68258   0.00000  Uiso   1.00
H447   H     0.81055   0.21587   0.96706   0.00000  Uiso   1.00
H448   H     0.86960   0.23429   0.62451   0.00000  Uiso   1.00
H449   H     0.64197   0.09986   0.60172   0.00000  Uiso   1.00
H450   H     0.83099   0.21564   0.20153   0.00000  Uiso   1.00
H451   H     0.95550   0.25447   0.47921   0.00000  Uiso   1.00
O452   O     0.62906   0.01263   0.56389   0.00000  Uiso   1.00
O453   O     0.87705   0.16453   0.35081   0.00000  Uiso   1.00
O454   O     0.04041   0.21547   0.40314   0.00000  Uiso   1.00
N455   N     0.71340   0.01480   0.63015   0.00000  Uiso   1.00
N456   N     0.89011   0.12305   0.19094   0.00000  Uiso   1.00
N457   N     0.00654   0.15935   0.51565   0.00000  Uiso   1.00
N458   N     0.67105   0.07842   0.61748   0.00000  Uiso   1.00
N459   N     0.84776   0.18667   0.17828   0.00000  Uiso   1.00
N460   N     0.96418   0.22297   0.50299   0.00000  Uiso   1.00
C461   C     0.34352   0.09838   0.22697   0.00000  Uiso   1.00
C462   C     0.29166   0.09084   0.17093   0.00000  Uiso   1.00
C463   C     0.26708   0.04969   0.15834   0.00000  Uiso   1.00
C464   C     0.21985   0.04987   0.10471   0.00000  Uiso   1.00
C465   C     0.14262   0.03209   0.02376   0.00000  Uiso   1.00
C466   C     0.33375   0.13278   0.31732   0.00000  Uiso   1.00
C467   C     0.34457   0.12691   0.42782   0.00000  Uiso   1.00
C468   C     0.33278   0.16241   0.49742   0.00000  Uiso   1.00
C469   C     0.32094   0.20977   0.64373   0.00000  Uiso   1.00
C470   C     0.37762   0.12186   0.14273   0.00000  Uiso   1.00
C471   C     0.42533   0.10682   0.10645   0.00000  Uiso   1.00
C472   C     0.45048   0.13312   0.02906   0.00000  Uiso   1.00
C473   C     0.50676   0.16353   0.90430   0.00000  Uiso   1.00
C474   C     0.30335   0.17186   0.15409   0.00000  Uiso   1.00
C475   C     0.26984   0.13075   0.13135   0.00000  Uiso   1.00
C476   C     0.22263   0.13099   0.07771   0.00000  Uiso   1.00
C477   C     0.19799   0.08985   0.06504   0.00000  Uiso   1.00
C478   C     0.31193   0.17270   0.27774   0.00000  Uiso   1.00
C479   C     0.30012   0.20821   0.34718   0.00000  Uiso   1.00
C480   C     0.31092   0.20239   0.45776   0.00000  Uiso   1.00
C481   C     0.35580   0.16178   0.10314   0.00000  Uiso   1.00
C482   C     0.38088   0.18811   0.02581   0.00000  Uiso   1.00
C483   C     0.42862   0.17311   0.98941   0.00000  Uiso   1.00
H484   H     0.36051   0.06730   0.25780   0.00000  Uiso   1.00
H485   H     0.28398   0.01881   0.18900   0.00000  Uiso   1.00
H486   H     0.36146   0.09602   0.45843   0.00000  Uiso   1.00
H487   H     0.44221   0.07593   0.13710   0.00000  Uiso   1.00
H488   H     0.18949   0.98265   0.09530   0.00000  Uiso   1.00
H489   H     0.35289   0.14546   0.66341   0.00000  Uiso   1.00
H490   H     0.52316   0.10309   0.98582   0.00000  Uiso   1.00
H491   H     0.28636   0.20293   0.12327   0.00000  Uiso   1.00
H492   H     0.20576   0.16188   0.04708   0.00000  Uiso   1.00
H493   H     0.28324   0.23909   0.31652   0.00000  Uiso   1.00
H494   H     0.36399   0.21900   0.99519   0.00000  Uiso   1.00
H495   H     0.12600   0.09877   0.98012   0.00000  Uiso   1.00
H496   H     0.28940   0.26158   0.54823   0.00000  Uiso   1.00
H497   H     0.45967   0.21921   0.87064   0.00000  Uiso   1.00
O498   O     0.10605   0.01126   0.99006   0.00000  Uiso   1.00
O499   O     0.32043   0.22486   0.73538   0.00000  Uiso   1.00
O500   O     0.54382   0.16927   0.84640   0.00000  Uiso   1.00
N501   N     0.18562   0.01561   0.07863   0.00000  Uiso   1.00
N502   N     0.33837   0.16783   0.60978   0.00000  Uiso   1.00
N503   N     0.49757   0.12822   0.97631   0.00000  Uiso   1.00
N504   N     0.15145   0.07810   0.01665   0.00000  Uiso   1.00
N505   N     0.30421   0.23031   0.54780   0.00000  Uiso   1.00
N506   N     0.46341   0.19070   0.91433   0.00000  Uiso   1.00
C507   C     0.62627   0.40654   0.27997   0.00000  Uiso   1.00
C508   C     0.68080   0.41267   0.23557   0.00000  Uiso   1.00
C509   C     0.70306   0.45326   0.20530   0.00000  Uiso   1.00
C510   C     0.75340   0.45178   0.16662   0.00000  Uiso   1.00
C511   C     0.83397   0.46748   0.09896   0.00000  Uiso   1.00
C512   C     0.63210   0.38284   0.39013   0.00000  Uiso   1.00
C513   C     0.61342   0.39835   0.48982   0.00000  Uiso   1.00
C514   C     0.62276   0.37175   0.58125   0.00000  Uiso   1.00
C515   C     0.62770   0.34113   0.75354   0.00000  Uiso   1.00
C516   C     0.60002   0.37284   0.20401   0.00000  Uiso   1.00
C517   C     0.55436   0.37993   0.14723   0.00000  Uiso   1.00
C518   C     0.53668   0.34491   0.08197   0.00000  Uiso   1.00
C519   C     0.49181   0.29876   0.96528   0.00000  Uiso   1.00
C520   C     0.67607   0.33172   0.26508   0.00000  Uiso   1.00
C521   C     0.70785   0.37203   0.22749   0.00000  Uiso   1.00
C522   C     0.75817   0.37049   0.18883   0.00000  Uiso   1.00
C523   C     0.78050   0.41107   0.15851   0.00000  Uiso   1.00
C524   C     0.65915   0.34220   0.38205   0.00000  Uiso   1.00
C525   C     0.66852   0.31557   0.47335   0.00000  Uiso   1.00
C526   C     0.64986   0.33104   0.57315   0.00000  Uiso   1.00
C527   C     0.62707   0.33220   0.19592   0.00000  Uiso   1.00
C528   C     0.60946   0.29716   0.13075   0.00000  Uiso   1.00
C529   C     0.56378   0.30420   0.07387   0.00000  Uiso   1.00
H530   H     0.60521   0.43818   0.28627   0.00000  Uiso   1.00
H531   H     0.68212   0.48471   0.21159   0.00000  Uiso   1.00
H532   H     0.59248   0.42980   0.49605   0.00000  Uiso   1.00
H533   H     0.53343   0.41139   0.15351   0.00000  Uiso   1.00
H534   H     0.77933   0.51837   0.12525   0.00000  Uiso   1.00
H535   H     0.59031   0.40259   0.72506   0.00000  Uiso   1.00
H536   H     0.46579   0.36376   0.00274   0.00000  Uiso   1.00
H537   H     0.69713   0.30008   0.25879   0.00000  Uiso   1.00
H538   H     0.77909   0.33903   0.18258   0.00000  Uiso   1.00
H539   H     0.68945   0.28413   0.46706   0.00000  Uiso   1.00
H540   H     0.63040   0.26571   0.12451   0.00000  Uiso   1.00
H541   H     0.85803   0.40014   0.10172   0.00000  Uiso   1.00
H542   H     0.66901   0.28436   0.70153   0.00000  Uiso   1.00
H543   H     0.54450   0.24553   0.97921   0.00000  Uiso   1.00
O544   O     0.87094   0.48737   0.06389   0.00000  Uiso   1.00
O545   O     0.62295   0.33547   0.85081   0.00000  Uiso   1.00
O546   O     0.45959   0.28453   0.90314   0.00000  Uiso   1.00
N547   N     0.78660   0.48520   0.13015   0.00000  Uiso   1.00
N548   N     0.60989   0.37695   0.69094   0.00000  Uiso   1.00
N549   N     0.49346   0.34065   0.01565   0.00000  Uiso   1.00
N550   N     0.82895   0.42158   0.11748   0.00000  Uiso   1.00
N551   N     0.65224   0.31333   0.67828   0.00000  Uiso   1.00
N552   N     0.53582   0.27703   0.00299   0.00000  Uiso   1.00
C553   C     0.84352   0.40162   0.77303   0.00000  Uiso   1.00
C554   C     0.79166   0.40916   0.82907   0.00000  Uiso   1.00
C555   C     0.76708   0.45031   0.84166   0.00000  Uiso   1.00
C556   C     0.71985   0.45013   0.89529   0.00000  Uiso   1.00
C557   C     0.64262   0.46791   0.97624   0.00000  Uiso   1.00
C558   C     0.83375   0.36722   0.68268   0.00000  Uiso   1.00
C559   C     0.84457   0.37309   0.57218   0.00000  Uiso   1.00
C560   C     0.83278   0.33759   0.50258   0.00000  Uiso   1.00
C561   C     0.82094   0.29023   0.35627   0.00000  Uiso   1.00
C562   C     0.87762   0.37814   0.85727   0.00000  Uiso   1.00
C563   C     0.92533   0.39318   0.89355   0.00000  Uiso   1.00
C564   C     0.95048   0.36688   0.97094   0.00000  Uiso   1.00
C565   C     0.00676   0.33647   0.09570   0.00000  Uiso   1.00
C566   C     0.80335   0.32814   0.84591   0.00000  Uiso   1.00
C567   C     0.76984   0.36925   0.86865   0.00000  Uiso   1.00
C568   C     0.72263   0.36901   0.92229   0.00000  Uiso   1.00
C569   C     0.69799   0.41015   0.93496   0.00000  Uiso   1.00
C570   C     0.81193   0.32730   0.72226   0.00000  Uiso   1.00
C571   C     0.80012   0.29179   0.65282   0.00000  Uiso   1.00
C572   C     0.81092   0.29761   0.54224   0.00000  Uiso   1.00
C573   C     0.85580   0.33822   0.89686   0.00000  Uiso   1.00
C574   C     0.88088   0.31189   0.97419   0.00000  Uiso   1.00
C575   C     0.92862   0.32689   0.01059   0.00000  Uiso   1.00
H576   H     0.86051   0.43270   0.74220   0.00000  Uiso   1.00
H577   H     0.78398   0.48119   0.81100   0.00000  Uiso   1.00
H578   H     0.86146   0.40398   0.54157   0.00000  Uiso   1.00
H579   H     0.94221   0.42407   0.86290   0.00000  Uiso   1.00
H580   H     0.68949   0.51735   0.90470   0.00000  Uiso   1.00
H581   H     0.85289   0.35454   0.33659   0.00000  Uiso   1.00
H582   H     0.02316   0.39691   0.01418   0.00000  Uiso   1.00
H583   H     0.78636   0.29707   0.87673   0.00000  Uiso   1.00
H584   H     0.70576   0.33812   0.95292   0.00000  Uiso   1.00
H585   H     0.78324   0.26091   0.68348   0.00000  Uiso   1.00
H586   H     0.86399   0.28100   0.00481   0.00000  Uiso   1.00
H587   H     0.62600   0.40123   0.01988   0.00000  Uiso   1.00
H588   H     0.78940   0.23842   0.45177   0.00000  Uiso   1.00
H589   H     0.95967   0.28079   0.12936   0.00000  Uiso   1.00
O590   O     0.60605   0.48874   0.00994   0.00000  Uiso   1.00
O591   O     0.82043   0.27514   0.26462   0.00000  Uiso   1.00
O592   O     0.04382   0.33073   0.15360   0.00000  Uiso   1.00
N593   N     0.68562   0.48439   0.92137   0.00000  Uiso   1.00
N594   N     0.83837   0.33217   0.39022   0.00000  Uiso   1.00
N595   N     0.99757   0.37178   0.02369   0.00000  Uiso   1.00
N596   N     0.65145   0.42190   0.98335   0.00000  Uiso   1.00
N597   N     0.80421   0.26969   0.45220   0.00000  Uiso   1.00
N598   N     0.96341   0.30930   0.08567   0.00000  Uiso   1.00
C599   C     0.12627   0.09346   0.72003   0.00000  Uiso   1.00
C600   C     0.18080   0.08733   0.76443   0.00000  Uiso   1.00
C601   C     0.20306   0.04674   0.79470   0.00000  Uiso   1.00
C602   C     0.25340   0.04822   0.83338   0.00000  Uiso   1.00
C603   C     0.33397   0.03252   0.90104   0.00000  Uiso   1.00
C604   C     0.13210   0.11716   0.60987   0.00000  Uiso   1.00
C605   C     0.11342   0.10165   0.51018   0.00000  Uiso   1.00
C606   C     0.12276   0.12825   0.41875   0.00000  Uiso   1.00
C607   C     0.12770   0.15887   0.24646   0.00000  Uiso   1.00
C608   C     0.10002   0.12716   0.79599   0.00000  Uiso   1.00
C609   C     0.05436   0.12007   0.85277   0.00000  Uiso   1.00
C610   C     0.03668   0.15509   0.91803   0.00000  Uiso   1.00
C611   C     0.99181   0.20124   0.03472   0.00000  Uiso   1.00
C612   C     0.17607   0.16828   0.73492   0.00000  Uiso   1.00
C613   C     0.20785   0.12797   0.77251   0.00000  Uiso   1.00
C614   C     0.25817   0.12951   0.81117   0.00000  Uiso   1.00
C615   C     0.28050   0.08893   0.84149   0.00000  Uiso   1.00
C616   C     0.15915   0.15780   0.61795   0.00000  Uiso   1.00
C617   C     0.16852   0.18443   0.52665   0.00000  Uiso   1.00
C618   C     0.14986   0.16896   0.42685   0.00000  Uiso   1.00
C619   C     0.12707   0.16780   0.80408   0.00000  Uiso   1.00
C620   C     0.10946   0.20284   0.86925   0.00000  Uiso   1.00
C621   C     0.06378   0.19580   0.92613   0.00000  Uiso   1.00
H622   H     0.10521   0.06182   0.71373   0.00000  Uiso   1.00
H623   H     0.18212   0.01529   0.78841   0.00000  Uiso   1.00
H624   H     0.09248   0.07020   0.50395   0.00000  Uiso   1.00
H625   H     0.03343   0.08861   0.84649   0.00000  Uiso   1.00
H626   H     0.27933   0.98163   0.87475   0.00000  Uiso   1.00
H627   H     0.09031   0.09741   0.27494   0.00000  Uiso   1.00
H628   H     0.96579   0.13624   0.99726   0.00000  Uiso   1.00
H629   H     0.19713   0.19992   0.74121   0.00000  Uiso   1.00
H630   H     0.27909   0.16097   0.81742   0.00000  Uiso   1.00
H631   H     0.18945   0.21587   0.53294   0.00000  Uiso   1.00
H632   H     0.13040   0.23429   0.87549   0.00000  Uiso   1.00
H633   H     0.35803   0.09986   0.89828   0.00000  Uiso   1.00
H634   H     0.16901   0.21564   0.29847   0.00000  Uiso   1.00
H635   H     0.04450   0.25447   0.02079   0.00000  Uiso   1.00
O636   O     0.37094   0.01263   0.93611   0.00000  Uiso   1.00
O637   O     0.12295   0.16453   0.14919   0.00000  Uiso   1.00
O638   O     0.95959   0.21547   0.09686   0.00000  Uiso   1.00
N639   N     0.28660   0.01480   0.86985   0.00000  Uiso   1.00
N640   N     0.10989   0.12305   0.30906   0.00000  Uiso   1.00
N641   N     0.99346   0.15935   0.98435   0.00000  Uiso   1.00
N642   N     0.32895   0.07842   0.88252   0.00000  Uiso   1.00
N643   N     0.15224   0.18667   0.32172   0.00000  Uiso   1.00
N644   N     0.03582   0.22297   0.99701   0.00000  Uiso   1.00
C645   C     0.65648   0.09838   0.27303   0.00000  Uiso   1.00
C646   C     0.70834   0.09084   0.32907   0.00000  Uiso   1.00
C647   C     0.73292   0.04969   0.34166   0.00000  Uiso   1.00
C648   C     0.78015   0.04987   0.39529   0.00000  Uiso   1.00
C649   C     0.85738   0.03209   0.47624   0.00000  Uiso   1.00
C650   C     0.66625   0.13278   0.18268   0.00000  Uiso   1.00
C651   C     0.65543   0.12691   0.07218   0.00000  Uiso   1.00
C652   C     0.66722   0.16241   0.00258   0.00000  Uiso   1.00
C653   C     0.67906   0.20977   0.85627   0.00000  Uiso   1.00
C654   C     0.62238   0.12186   0.35727   0.00000  Uiso   1.00
C655   C     0.57467   0.10682   0.39355   0.00000  Uiso   1.00
C656   C     0.54952   0.13312   0.47094   0.00000  Uiso   1.00
C657   C     0.49324   0.16353   0.59570   0.00000  Uiso   1.00
C658   C     0.69665   0.17186   0.34591   0.00000  Uiso   1.00
C659   C     0.73016   0.13075   0.36865   0.00000  Uiso   1.00
C660   C     0.77737   0.13099   0.42229   0.00000  Uiso   1.00
C661   C     0.80201   0.08985   0.43496   0.00000  Uiso   1.00
C662   C     0.68807   0.17270   0.22226   0.00000  Uiso   1.00
C663   C     0.69988   0.20821   0.15282   0.00000  Uiso   1.00
C664   C     0.68908   0.20239   0.04224   0.00000  Uiso   1.00
C665   C     0.64420   0.16178   0.39686   0.00000  Uiso   1.00
C666   C     0.61912   0.18811   0.47419   0.00000  Uiso   1.00
C667   C     0.57138   0.17311   0.51059   0.00000  Uiso   1.00
H668   H     0.63949   0.06730   0.24220   0.00000  Uiso   1.00
H669   H     0.71602   0.01881   0.31100   0.00000  Uiso   1.00
H670   H     0.63854   0.09602   0.04157   0.00000  Uiso   1.00
H671   H     0.55779   0.07593   0.36290   0.00000  Uiso   1.00
H672   H     0.81051   0.98265   0.40470   0.00000  Uiso   1.00
H673   H     0.64711   0.14546   0.83659   0.00000  Uiso   1.00
H674   H     0.47684   0.10309   0.51418   0.00000  Uiso   1.00
H675   H     0.71364   0.20293   0.37673   0.00000  Uiso   1.00
H676   H     0.79424   0.16188   0.45292   0.00000  Uiso   1.00
H677   H     0.71676   0.23909   0.18348   0.00000  Uiso   1.00
H678   H     0.63601   0.21900   0.50481   0.00000  Uiso   1.00
H679   H     0.87400   0.09877   0.51988   0.00000  Uiso   1.00
H680   H     0.71060   0.26158   0.95177   0.00000  Uiso   1.00
H681   H     0.54033   0.21921   0.62936   0.00000  Uiso   1.00
O682   O     0.89395   0.01126   0.50994   0.00000  Uiso   1.00
O683   O     0.67957   0.22486   0.76462   0.00000  Uiso   1.00
O684   O     0.45618   0.16927   0.65360   0.00000  Uiso   1.00
N685   N     0.81438   0.01561   0.42137   0.00000  Uiso   1.00
N686   N     0.66163   0.16783   0.89022   0.00000  Uiso   1.00
N687   N     0.50243   0.12822   0.52369   0.00000  Uiso   1.00
N688   N     0.84855   0.07810   0.48335   0.00000  Uiso   1.00
N689   N     0.69579   0.23031   0.95220   0.00000  Uiso   1.00
N690   N     0.53659   0.19070   0.58567   0.00000  Uiso   1.00
C691   C     0.37373   0.40654   0.22003   0.00000  Uiso   1.00
C692   C     0.31920   0.41267   0.26443   0.00000  Uiso   1.00
C693   C     0.29694   0.45326   0.29470   0.00000  Uiso   1.00
C694   C     0.24660   0.45178   0.33338   0.00000  Uiso   1.00
C695   C     0.16603   0.46748   0.40104   0.00000  Uiso   1.00
C696   C     0.36790   0.38284   0.10987   0.00000  Uiso   1.00
C697   C     0.38658   0.39835   0.01018   0.00000  Uiso   1.00
C698   C     0.37724   0.37175   0.91875   0.00000  Uiso   1.00
C699   C     0.37230   0.34113   0.74646   0.00000  Uiso   1.00
C700   C     0.39998   0.37284   0.29599   0.00000  Uiso   1.00
C701   C     0.44564   0.37993   0.35277   0.00000  Uiso   1.00
C702   C     0.46332   0.34491   0.41803   0.00000  Uiso   1.00
C703   C     0.50819   0.29876   0.53472   0.00000  Uiso   1.00
C704   C     0.32393   0.33172   0.23492   0.00000  Uiso   1.00
C705   C     0.29215   0.37203   0.27251   0.00000  Uiso   1.00
C706   C     0.24183   0.37049   0.31117   0.00000  Uiso   1.00
C707   C     0.21950   0.41107   0.34149   0.00000  Uiso   1.00
C708   C     0.34085   0.34220   0.11795   0.00000  Uiso   1.00
C709   C     0.33148   0.31557   0.02665   0.00000  Uiso   1.00
C710   C     0.35014   0.33104   0.92685   0.00000  Uiso   1.00
C711   C     0.37293   0.33220   0.30408   0.00000  Uiso   1.00
C712   C     0.39054   0.29716   0.36925   0.00000  Uiso   1.00
C713   C     0.43622   0.30420   0.42613   0.00000  Uiso   1.00
H714   H     0.39479   0.43818   0.21373   0.00000  Uiso   1.00
H715   H     0.31788   0.48471   0.28841   0.00000  Uiso   1.00
H716   H     0.40752   0.42980   0.00395   0.00000  Uiso   1.00
H717   H     0.46657   0.41139   0.34649   0.00000  Uiso   1.00
H718   H     0.22067   0.51837   0.37475   0.00000  Uiso   1.00
H719   H     0.40969   0.40259   0.77494   0.00000  Uiso   1.00
H720   H     0.53421   0.36376   0.49726   0.00000  Uiso   1.00
H721   H     0.30287   0.30008   0.24121   0.00000  Uiso   1.00
H722   H     0.22091   0.33903   0.31742   0.00000  Uiso   1.00
H723   H     0.31055   0.28413   0.03294   0.00000  Uiso   1.00
H724   H     0.36960   0.26571   0.37549   0.00000  Uiso   1.00
H725   H     0.14197   0.40014   0.39828   0.00000  Uiso   1.00
H726   H     0.33099   0.28436   0.79847   0.00000  Uiso   1.00
H727   H     0.45550   0.24553   0.52079   0.00000  Uiso   1.00
O728   O     0.12906   0.48737   0.43611   0.00000  Uiso   1.00
O729   O     0.37705   0.33547   0.64919   0.00000  Uiso   1.00
O730   O     0.54041   0.28453   0.59686   0.00000  Uiso   1.00
N731   N     0.21340   0.48520   0.36985   0.00000  Uiso   1.00
N732   N     0.39011   0.37695   0.80906   0.00000  Uiso   1.00
N733   N     0.50654   0.34065   0.48435   0.00000  Uiso   1.00
N734   N     0.17105   0.42158   0.38252   0.00000  Uiso   1.00
N735   N     0.34776   0.31333   0.82172   0.00000  Uiso   1.00
N736   N     0.46418   0.27703   0.49701   0.00000  Uiso   1.00
