data_job_01373
_audit_creation_date              2018-12-19
_audit_creation_method            'Materials Studio'
_symmetry_space_group_name_H-M    'P1'
_symmetry_Int_Tables_number       1
_symmetry_cell_setting            triclinic
loop_
_symmetry_equiv_pos_as_xyz
  x,y,z
_cell_length_a                    17.3945
_cell_length_b                    17.3945
_cell_length_c                    40.1955
_cell_angle_alpha                 90.0000
_cell_angle_beta                  90.0000
_cell_angle_gamma                 90.0000
loop_
_atom_site_label
_atom_site_type_symbol
_atom_site_fract_x
_atom_site_fract_y
_atom_site_fract_z
_atom_site_U_iso_or_equiv
_atom_site_adp_type
_atom_site_occupancy
C1     C     0.71867   0.18824   0.22679   0.00000  Uiso   1.00
C2     C     0.71418   0.14273   0.19442   0.00000  Uiso   1.00
C3     C     0.64751   0.12631   0.17684   0.00000  Uiso   1.00
C4     C     0.65552   0.08389   0.14779   0.00000  Uiso   1.00
C5     C     0.63757   0.01700   0.09922   0.00000  Uiso   1.00
C6     C     0.75876   0.13592   0.25181   0.00000  Uiso   1.00
C7     C     0.72956   0.11379   0.28248   0.00000  Uiso   1.00
C8     C     0.77509   0.06564   0.30173   0.00000  Uiso   1.00
C9     C     0.82637   0.98823   0.34226   0.00000  Uiso   1.00
C10    C     0.77408   0.25445   0.22020   0.00000  Uiso   1.00
C11    C     0.75778   0.33197   0.22431   0.00000  Uiso   1.00
C12    C     0.81623   0.38362   0.21697   0.00000  Uiso   1.00
C13    C     0.89130   0.49024   0.20843   0.00000  Uiso   1.00
C14    C     0.85147   0.14211   0.20645   0.00000  Uiso   1.00
C15    C     0.78631   0.11767   0.18338   0.00000  Uiso   1.00
C16    C     0.79443   0.07527   0.15434   0.00000  Uiso   1.00
C17    C     0.72778   0.05879   0.13672   0.00000  Uiso   1.00
C18    C     0.83088   0.11087   0.24076   0.00000  Uiso   1.00
C19    C     0.87648   0.06275   0.25997   0.00000  Uiso   1.00
C20    C     0.84735   0.04054   0.29067   0.00000  Uiso   1.00
C21    C     0.84621   0.22939   0.20916   0.00000  Uiso   1.00
C22    C     0.90470   0.28093   0.20181   0.00000  Uiso   1.00
C23    C     0.88849   0.35852   0.20590   0.00000  Uiso   1.00
H24    H     0.66252   0.20775   0.23539   0.00000  Uiso   1.00
H25    H     0.59170   0.14570   0.18540   0.00000  Uiso   1.00
H26    H     0.67374   0.13319   0.29102   0.00000  Uiso   1.00
H27    H     0.70196   0.35134   0.23286   0.00000  Uiso   1.00
H28    H     0.54499   0.06584   0.12512   0.00000  Uiso   1.00
H29    H     0.71799   0.03948   0.34782   0.00000  Uiso   1.00
H30    H     0.77749   0.49949   0.22519   0.00000  Uiso   1.00
H31    H     0.90762   0.12260   0.19785   0.00000  Uiso   1.00
H32    H     0.85025   0.05589   0.14580   0.00000  Uiso   1.00
H33    H     0.93229   0.04337   0.25142   0.00000  Uiso   1.00
H34    H     0.96051   0.26152   0.19326   0.00000  Uiso   1.00
H35    H     0.75484   0.99294   0.09297   0.00000  Uiso   1.00
H36    H     0.92784   0.96658   0.31568   0.00000  Uiso   1.00
H37    H     0.98734   0.42659   0.19304   0.00000  Uiso   1.00
O38    O     0.60775   0.98702   0.07549   0.00000  Uiso   1.00
O39    O     0.83472   0.95245   0.36767   0.00000  Uiso   1.00
O40    O     0.91278   0.55597   0.20677   0.00000  Uiso   1.00
N41    N     0.60225   0.05786   0.12469   0.00000  Uiso   1.00
N42    N     0.76399   0.03320   0.33290   0.00000  Uiso   1.00
N43    N     0.81962   0.46327   0.21826   0.00000  Uiso   1.00
N44    N     0.71517   0.01863   0.10739   0.00000  Uiso   1.00
N45    N     0.87691   0.99397   0.31561   0.00000  Uiso   1.00
N46    N     0.93254   0.42404   0.20096   0.00000  Uiso   1.00
C47    C     0.21867   0.68824   0.72679   0.00000  Uiso   1.00
C48    C     0.21418   0.64273   0.69442   0.00000  Uiso   1.00
C49    C     0.14751   0.62631   0.67684   0.00000  Uiso   1.00
C50    C     0.15552   0.58389   0.64779   0.00000  Uiso   1.00
C51    C     0.13757   0.51700   0.59922   0.00000  Uiso   1.00
C52    C     0.25876   0.63592   0.75181   0.00000  Uiso   1.00
C53    C     0.22956   0.61379   0.78248   0.00000  Uiso   1.00
C54    C     0.27509   0.56564   0.80173   0.00000  Uiso   1.00
C55    C     0.32637   0.48823   0.84226   0.00000  Uiso   1.00
C56    C     0.27408   0.75445   0.72020   0.00000  Uiso   1.00
C57    C     0.25778   0.83197   0.72431   0.00000  Uiso   1.00
C58    C     0.31623   0.88362   0.71697   0.00000  Uiso   1.00
C59    C     0.39130   0.99024   0.70843   0.00000  Uiso   1.00
C60    C     0.35147   0.64211   0.70645   0.00000  Uiso   1.00
C61    C     0.28631   0.61767   0.68338   0.00000  Uiso   1.00
C62    C     0.29443   0.57527   0.65434   0.00000  Uiso   1.00
C63    C     0.22778   0.55879   0.63672   0.00000  Uiso   1.00
C64    C     0.33088   0.61087   0.74076   0.00000  Uiso   1.00
C65    C     0.37648   0.56275   0.75997   0.00000  Uiso   1.00
C66    C     0.34735   0.54054   0.79067   0.00000  Uiso   1.00
C67    C     0.34621   0.72939   0.70916   0.00000  Uiso   1.00
C68    C     0.40470   0.78093   0.70181   0.00000  Uiso   1.00
C69    C     0.38849   0.85852   0.70590   0.00000  Uiso   1.00
H70    H     0.16252   0.70775   0.73539   0.00000  Uiso   1.00
H71    H     0.09170   0.64570   0.68540   0.00000  Uiso   1.00
H72    H     0.17374   0.63319   0.79102   0.00000  Uiso   1.00
H73    H     0.20196   0.85134   0.73286   0.00000  Uiso   1.00
H74    H     0.04499   0.56584   0.62512   0.00000  Uiso   1.00
H75    H     0.21799   0.53948   0.84782   0.00000  Uiso   1.00
H76    H     0.27749   0.99949   0.72519   0.00000  Uiso   1.00
H77    H     0.40762   0.62260   0.69785   0.00000  Uiso   1.00
H78    H     0.35025   0.55589   0.64580   0.00000  Uiso   1.00
H79    H     0.43229   0.54337   0.75142   0.00000  Uiso   1.00
H80    H     0.46051   0.76152   0.69326   0.00000  Uiso   1.00
H81    H     0.25484   0.49294   0.59297   0.00000  Uiso   1.00
H82    H     0.42784   0.46658   0.81568   0.00000  Uiso   1.00
H83    H     0.48734   0.92659   0.69304   0.00000  Uiso   1.00
O84    O     0.10775   0.48702   0.57549   0.00000  Uiso   1.00
O85    O     0.33472   0.45245   0.86767   0.00000  Uiso   1.00
O86    O     0.41278   0.05597   0.70677   0.00000  Uiso   1.00
N87    N     0.10225   0.55786   0.62469   0.00000  Uiso   1.00
N88    N     0.26399   0.53320   0.83290   0.00000  Uiso   1.00
N89    N     0.31962   0.96327   0.71826   0.00000  Uiso   1.00
N90    N     0.21517   0.51863   0.60739   0.00000  Uiso   1.00
N91    N     0.37691   0.49397   0.81561   0.00000  Uiso   1.00
N92    N     0.43254   0.92404   0.70096   0.00000  Uiso   1.00
C93    C     0.78133   0.31176   0.72679   0.00000  Uiso   1.00
C94    C     0.78582   0.35727   0.69442   0.00000  Uiso   1.00
C95    C     0.85249   0.37369   0.67684   0.00000  Uiso   1.00
C96    C     0.84448   0.41611   0.64779   0.00000  Uiso   1.00
C97    C     0.86243   0.48300   0.59922   0.00000  Uiso   1.00
C98    C     0.74124   0.36408   0.75181   0.00000  Uiso   1.00
C99    C     0.77044   0.38621   0.78248   0.00000  Uiso   1.00
C100   C     0.72491   0.43436   0.80173   0.00000  Uiso   1.00
C101   C     0.67363   0.51177   0.84226   0.00000  Uiso   1.00
C102   C     0.72592   0.24555   0.72020   0.00000  Uiso   1.00
C103   C     0.74222   0.16803   0.72431   0.00000  Uiso   1.00
C104   C     0.68377   0.11638   0.71697   0.00000  Uiso   1.00
C105   C     0.60870   0.00976   0.70843   0.00000  Uiso   1.00
C106   C     0.64853   0.35789   0.70645   0.00000  Uiso   1.00
C107   C     0.71369   0.38233   0.68338   0.00000  Uiso   1.00
C108   C     0.70557   0.42473   0.65434   0.00000  Uiso   1.00
C109   C     0.77222   0.44121   0.63672   0.00000  Uiso   1.00
C110   C     0.66912   0.38913   0.74076   0.00000  Uiso   1.00
C111   C     0.62352   0.43725   0.75997   0.00000  Uiso   1.00
C112   C     0.65265   0.45946   0.79067   0.00000  Uiso   1.00
C113   C     0.65379   0.27061   0.70916   0.00000  Uiso   1.00
C114   C     0.59530   0.21907   0.70181   0.00000  Uiso   1.00
C115   C     0.61151   0.14148   0.70590   0.00000  Uiso   1.00
H116   H     0.83748   0.29225   0.73539   0.00000  Uiso   1.00
H117   H     0.90830   0.35430   0.68540   0.00000  Uiso   1.00
H118   H     0.82626   0.36681   0.79102   0.00000  Uiso   1.00
H119   H     0.79804   0.14866   0.73286   0.00000  Uiso   1.00
H120   H     0.95501   0.43416   0.62512   0.00000  Uiso   1.00
H121   H     0.78201   0.46052   0.84782   0.00000  Uiso   1.00
H122   H     0.72251   0.00051   0.72519   0.00000  Uiso   1.00
H123   H     0.59238   0.37740   0.69785   0.00000  Uiso   1.00
H124   H     0.64975   0.44411   0.64580   0.00000  Uiso   1.00
H125   H     0.56771   0.45663   0.75142   0.00000  Uiso   1.00
H126   H     0.53949   0.23848   0.69326   0.00000  Uiso   1.00
H127   H     0.74516   0.50706   0.59297   0.00000  Uiso   1.00
H128   H     0.57216   0.53342   0.81568   0.00000  Uiso   1.00
H129   H     0.51266   0.07341   0.69304   0.00000  Uiso   1.00
O130   O     0.89225   0.51298   0.57549   0.00000  Uiso   1.00
O131   O     0.66528   0.54755   0.86767   0.00000  Uiso   1.00
O132   O     0.58722   0.94403   0.70677   0.00000  Uiso   1.00
N133   N     0.89775   0.44214   0.62469   0.00000  Uiso   1.00
N134   N     0.73601   0.46680   0.83290   0.00000  Uiso   1.00
N135   N     0.68038   0.03673   0.71826   0.00000  Uiso   1.00
N136   N     0.78483   0.48137   0.60739   0.00000  Uiso   1.00
N137   N     0.62309   0.50603   0.81561   0.00000  Uiso   1.00
N138   N     0.56746   0.07596   0.70096   0.00000  Uiso   1.00
C139   C     0.28133   0.81176   0.22679   0.00000  Uiso   1.00
C140   C     0.28582   0.85727   0.19442   0.00000  Uiso   1.00
C141   C     0.35249   0.87369   0.17684   0.00000  Uiso   1.00
C142   C     0.34448   0.91611   0.14779   0.00000  Uiso   1.00
C143   C     0.36243   0.98300   0.09922   0.00000  Uiso   1.00
C144   C     0.24124   0.86408   0.25181   0.00000  Uiso   1.00
C145   C     0.27044   0.88621   0.28248   0.00000  Uiso   1.00
C146   C     0.22491   0.93436   0.30173   0.00000  Uiso   1.00
C147   C     0.17363   0.01177   0.34226   0.00000  Uiso   1.00
C148   C     0.22592   0.74555   0.22020   0.00000  Uiso   1.00
C149   C     0.24222   0.66803   0.22431   0.00000  Uiso   1.00
C150   C     0.18377   0.61638   0.21697   0.00000  Uiso   1.00
C151   C     0.10870   0.50976   0.20843   0.00000  Uiso   1.00
C152   C     0.14853   0.85789   0.20645   0.00000  Uiso   1.00
C153   C     0.21369   0.88233   0.18338   0.00000  Uiso   1.00
C154   C     0.20557   0.92473   0.15434   0.00000  Uiso   1.00
C155   C     0.27222   0.94121   0.13672   0.00000  Uiso   1.00
C156   C     0.16912   0.88913   0.24076   0.00000  Uiso   1.00
C157   C     0.12352   0.93725   0.25997   0.00000  Uiso   1.00
C158   C     0.15265   0.95946   0.29067   0.00000  Uiso   1.00
C159   C     0.15379   0.77061   0.20916   0.00000  Uiso   1.00
C160   C     0.09530   0.71907   0.20181   0.00000  Uiso   1.00
C161   C     0.11151   0.64148   0.20590   0.00000  Uiso   1.00
H162   H     0.33748   0.79225   0.23539   0.00000  Uiso   1.00
H163   H     0.40830   0.85430   0.18540   0.00000  Uiso   1.00
H164   H     0.32626   0.86681   0.29102   0.00000  Uiso   1.00
H165   H     0.29804   0.64866   0.23286   0.00000  Uiso   1.00
H166   H     0.45501   0.93416   0.12512   0.00000  Uiso   1.00
H167   H     0.28201   0.96052   0.34782   0.00000  Uiso   1.00
H168   H     0.22251   0.50051   0.22519   0.00000  Uiso   1.00
H169   H     0.09238   0.87740   0.19785   0.00000  Uiso   1.00
H170   H     0.14975   0.94411   0.14580   0.00000  Uiso   1.00
H171   H     0.06771   0.95663   0.25142   0.00000  Uiso   1.00
H172   H     0.03949   0.73848   0.19326   0.00000  Uiso   1.00
H173   H     0.24516   0.00706   0.09297   0.00000  Uiso   1.00
H174   H     0.07216   0.03342   0.31568   0.00000  Uiso   1.00
H175   H     0.01266   0.57341   0.19304   0.00000  Uiso   1.00
O176   O     0.39225   0.01298   0.07549   0.00000  Uiso   1.00
O177   O     0.16528   0.04755   0.36767   0.00000  Uiso   1.00
O178   O     0.08722   0.44403   0.20677   0.00000  Uiso   1.00
N179   N     0.39775   0.94214   0.12469   0.00000  Uiso   1.00
N180   N     0.23601   0.96680   0.33290   0.00000  Uiso   1.00
N181   N     0.18038   0.53673   0.21826   0.00000  Uiso   1.00
N182   N     0.28483   0.98137   0.10739   0.00000  Uiso   1.00
N183   N     0.12309   0.00603   0.31561   0.00000  Uiso   1.00
N184   N     0.06746   0.57596   0.20096   0.00000  Uiso   1.00
C185   C     0.81176   0.21867   0.47679   0.00000  Uiso   1.00
C186   C     0.85727   0.21418   0.44442   0.00000  Uiso   1.00
C187   C     0.87369   0.14751   0.42684   0.00000  Uiso   1.00
C188   C     0.91611   0.15552   0.39779   0.00000  Uiso   1.00
C189   C     0.98300   0.13757   0.34922   0.00000  Uiso   1.00
C190   C     0.86408   0.25876   0.50181   0.00000  Uiso   1.00
C191   C     0.88621   0.22956   0.53248   0.00000  Uiso   1.00
C192   C     0.93436   0.27509   0.55173   0.00000  Uiso   1.00
C193   C     0.01177   0.32637   0.59226   0.00000  Uiso   1.00
C194   C     0.74555   0.27408   0.47020   0.00000  Uiso   1.00
C195   C     0.66803   0.25778   0.47431   0.00000  Uiso   1.00
C196   C     0.61638   0.31623   0.46697   0.00000  Uiso   1.00
C197   C     0.50976   0.39130   0.45843   0.00000  Uiso   1.00
C198   C     0.85789   0.35147   0.45645   0.00000  Uiso   1.00
C199   C     0.88233   0.28631   0.43338   0.00000  Uiso   1.00
C200   C     0.92473   0.29443   0.40434   0.00000  Uiso   1.00
C201   C     0.94121   0.22778   0.38672   0.00000  Uiso   1.00
C202   C     0.88913   0.33088   0.49076   0.00000  Uiso   1.00
C203   C     0.93725   0.37648   0.50997   0.00000  Uiso   1.00
C204   C     0.95946   0.34735   0.54067   0.00000  Uiso   1.00
C205   C     0.77061   0.34621   0.45916   0.00000  Uiso   1.00
C206   C     0.71907   0.40470   0.45181   0.00000  Uiso   1.00
C207   C     0.64148   0.38849   0.45590   0.00000  Uiso   1.00
H208   H     0.79225   0.16252   0.48539   0.00000  Uiso   1.00
H209   H     0.85430   0.09170   0.43540   0.00000  Uiso   1.00
H210   H     0.86681   0.17374   0.54102   0.00000  Uiso   1.00
H211   H     0.64866   0.20196   0.48286   0.00000  Uiso   1.00
H212   H     0.93416   0.04499   0.37512   0.00000  Uiso   1.00
H213   H     0.96052   0.21799   0.59782   0.00000  Uiso   1.00
H214   H     0.50051   0.27749   0.47519   0.00000  Uiso   1.00
H215   H     0.87740   0.40762   0.44785   0.00000  Uiso   1.00
H216   H     0.94411   0.35025   0.39580   0.00000  Uiso   1.00
H217   H     0.95663   0.43229   0.50142   0.00000  Uiso   1.00
H218   H     0.73848   0.46051   0.44326   0.00000  Uiso   1.00
H219   H     0.00706   0.25484   0.34297   0.00000  Uiso   1.00
H220   H     0.03342   0.42784   0.56568   0.00000  Uiso   1.00
H221   H     0.57341   0.48734   0.44304   0.00000  Uiso   1.00
O222   O     0.01298   0.10775   0.32549   0.00000  Uiso   1.00
O223   O     0.04755   0.33472   0.61767   0.00000  Uiso   1.00
O224   O     0.44403   0.41278   0.45677   0.00000  Uiso   1.00
N225   N     0.94214   0.10225   0.37469   0.00000  Uiso   1.00
N226   N     0.96680   0.26399   0.58290   0.00000  Uiso   1.00
N227   N     0.53673   0.31962   0.46826   0.00000  Uiso   1.00
N228   N     0.98137   0.21517   0.35739   0.00000  Uiso   1.00
N229   N     0.00603   0.37691   0.56561   0.00000  Uiso   1.00
N230   N     0.57596   0.43254   0.45096   0.00000  Uiso   1.00
C231   C     0.31176   0.71867   0.97679   0.00000  Uiso   1.00
C232   C     0.35727   0.71418   0.94442   0.00000  Uiso   1.00
C233   C     0.37369   0.64751   0.92684   0.00000  Uiso   1.00
C234   C     0.41611   0.65552   0.89779   0.00000  Uiso   1.00
C235   C     0.48300   0.63757   0.84922   0.00000  Uiso   1.00
C236   C     0.36408   0.75876   0.00181   0.00000  Uiso   1.00
C237   C     0.38621   0.72956   0.03248   0.00000  Uiso   1.00
C238   C     0.43436   0.77509   0.05173   0.00000  Uiso   1.00
C239   C     0.51177   0.82637   0.09226   0.00000  Uiso   1.00
C240   C     0.24555   0.77408   0.97020   0.00000  Uiso   1.00
C241   C     0.16803   0.75778   0.97431   0.00000  Uiso   1.00
C242   C     0.11638   0.81623   0.96697   0.00000  Uiso   1.00
C243   C     0.00976   0.89130   0.95843   0.00000  Uiso   1.00
C244   C     0.35789   0.85147   0.95645   0.00000  Uiso   1.00
C245   C     0.38233   0.78631   0.93338   0.00000  Uiso   1.00
C246   C     0.42473   0.79443   0.90434   0.00000  Uiso   1.00
C247   C     0.44121   0.72778   0.88672   0.00000  Uiso   1.00
C248   C     0.38913   0.83088   0.99076   0.00000  Uiso   1.00
C249   C     0.43725   0.87648   0.00997   0.00000  Uiso   1.00
C250   C     0.45946   0.84735   0.04067   0.00000  Uiso   1.00
C251   C     0.27061   0.84621   0.95916   0.00000  Uiso   1.00
C252   C     0.21907   0.90470   0.95181   0.00000  Uiso   1.00
C253   C     0.14148   0.88849   0.95590   0.00000  Uiso   1.00
H254   H     0.29225   0.66252   0.98539   0.00000  Uiso   1.00
H255   H     0.35430   0.59170   0.93540   0.00000  Uiso   1.00
H256   H     0.36681   0.67374   0.04102   0.00000  Uiso   1.00
H257   H     0.14866   0.70196   0.98286   0.00000  Uiso   1.00
H258   H     0.43416   0.54499   0.87512   0.00000  Uiso   1.00
H259   H     0.46052   0.71799   0.09782   0.00000  Uiso   1.00
H260   H     0.00051   0.77749   0.97519   0.00000  Uiso   1.00
H261   H     0.37740   0.90762   0.94785   0.00000  Uiso   1.00
H262   H     0.44411   0.85025   0.89580   0.00000  Uiso   1.00
H263   H     0.45663   0.93229   0.00142   0.00000  Uiso   1.00
H264   H     0.23848   0.96051   0.94326   0.00000  Uiso   1.00
H265   H     0.50706   0.75484   0.84297   0.00000  Uiso   1.00
H266   H     0.53342   0.92784   0.06568   0.00000  Uiso   1.00
H267   H     0.07341   0.98734   0.94304   0.00000  Uiso   1.00
O268   O     0.51298   0.60775   0.82549   0.00000  Uiso   1.00
O269   O     0.54755   0.83472   0.11767   0.00000  Uiso   1.00
O270   O     0.94403   0.91278   0.95677   0.00000  Uiso   1.00
N271   N     0.44214   0.60225   0.87469   0.00000  Uiso   1.00
N272   N     0.46680   0.76399   0.08290   0.00000  Uiso   1.00
N273   N     0.03673   0.81962   0.96826   0.00000  Uiso   1.00
N274   N     0.48137   0.71517   0.85739   0.00000  Uiso   1.00
N275   N     0.50603   0.87691   0.06561   0.00000  Uiso   1.00
N276   N     0.07596   0.93254   0.95096   0.00000  Uiso   1.00
C277   C     0.68824   0.28133   0.97679   0.00000  Uiso   1.00
C278   C     0.64273   0.28582   0.94442   0.00000  Uiso   1.00
C279   C     0.62631   0.35249   0.92684   0.00000  Uiso   1.00
C280   C     0.58389   0.34448   0.89779   0.00000  Uiso   1.00
C281   C     0.51700   0.36243   0.84922   0.00000  Uiso   1.00
C282   C     0.63592   0.24124   0.00181   0.00000  Uiso   1.00
C283   C     0.61379   0.27044   0.03248   0.00000  Uiso   1.00
C284   C     0.56564   0.22491   0.05173   0.00000  Uiso   1.00
C285   C     0.48823   0.17363   0.09226   0.00000  Uiso   1.00
C286   C     0.75445   0.22592   0.97020   0.00000  Uiso   1.00
C287   C     0.83197   0.24222   0.97431   0.00000  Uiso   1.00
C288   C     0.88362   0.18377   0.96697   0.00000  Uiso   1.00
C289   C     0.99024   0.10870   0.95843   0.00000  Uiso   1.00
C290   C     0.64211   0.14853   0.95645   0.00000  Uiso   1.00
C291   C     0.61767   0.21369   0.93338   0.00000  Uiso   1.00
C292   C     0.57527   0.20557   0.90434   0.00000  Uiso   1.00
C293   C     0.55879   0.27222   0.88672   0.00000  Uiso   1.00
C294   C     0.61087   0.16912   0.99076   0.00000  Uiso   1.00
C295   C     0.56275   0.12352   0.00997   0.00000  Uiso   1.00
C296   C     0.54054   0.15265   0.04067   0.00000  Uiso   1.00
C297   C     0.72939   0.15379   0.95916   0.00000  Uiso   1.00
C298   C     0.78093   0.09530   0.95181   0.00000  Uiso   1.00
C299   C     0.85852   0.11151   0.95590   0.00000  Uiso   1.00
H300   H     0.70775   0.33748   0.98539   0.00000  Uiso   1.00
H301   H     0.64570   0.40830   0.93540   0.00000  Uiso   1.00
H302   H     0.63319   0.32626   0.04102   0.00000  Uiso   1.00
H303   H     0.85134   0.29804   0.98286   0.00000  Uiso   1.00
H304   H     0.56584   0.45501   0.87512   0.00000  Uiso   1.00
H305   H     0.53948   0.28201   0.09782   0.00000  Uiso   1.00
H306   H     0.99949   0.22251   0.97519   0.00000  Uiso   1.00
H307   H     0.62260   0.09238   0.94785   0.00000  Uiso   1.00
H308   H     0.55589   0.14975   0.89580   0.00000  Uiso   1.00
H309   H     0.54337   0.06771   0.00142   0.00000  Uiso   1.00
H310   H     0.76152   0.03949   0.94326   0.00000  Uiso   1.00
H311   H     0.49294   0.24516   0.84297   0.00000  Uiso   1.00
H312   H     0.46658   0.07216   0.06568   0.00000  Uiso   1.00
H313   H     0.92659   0.01266   0.94304   0.00000  Uiso   1.00
O314   O     0.48702   0.39225   0.82549   0.00000  Uiso   1.00
O315   O     0.45245   0.16528   0.11767   0.00000  Uiso   1.00
O316   O     0.05597   0.08722   0.95677   0.00000  Uiso   1.00
N317   N     0.55786   0.39775   0.87469   0.00000  Uiso   1.00
N318   N     0.53320   0.23601   0.08290   0.00000  Uiso   1.00
N319   N     0.96327   0.18038   0.96826   0.00000  Uiso   1.00
N320   N     0.51863   0.28483   0.85739   0.00000  Uiso   1.00
N321   N     0.49397   0.12309   0.06561   0.00000  Uiso   1.00
N322   N     0.92404   0.06746   0.95096   0.00000  Uiso   1.00
C323   C     0.18824   0.78133   0.47679   0.00000  Uiso   1.00
C324   C     0.14273   0.78582   0.44442   0.00000  Uiso   1.00
C325   C     0.12631   0.85249   0.42684   0.00000  Uiso   1.00
C326   C     0.08389   0.84448   0.39779   0.00000  Uiso   1.00
C327   C     0.01700   0.86243   0.34922   0.00000  Uiso   1.00
C328   C     0.13592   0.74124   0.50181   0.00000  Uiso   1.00
C329   C     0.11379   0.77044   0.53248   0.00000  Uiso   1.00
C330   C     0.06564   0.72491   0.55173   0.00000  Uiso   1.00
C331   C     0.98823   0.67363   0.59226   0.00000  Uiso   1.00
C332   C     0.25445   0.72592   0.47020   0.00000  Uiso   1.00
C333   C     0.33197   0.74222   0.47431   0.00000  Uiso   1.00
C334   C     0.38362   0.68377   0.46697   0.00000  Uiso   1.00
C335   C     0.49024   0.60870   0.45843   0.00000  Uiso   1.00
C336   C     0.14211   0.64853   0.45645   0.00000  Uiso   1.00
C337   C     0.11767   0.71369   0.43338   0.00000  Uiso   1.00
C338   C     0.07527   0.70557   0.40434   0.00000  Uiso   1.00
C339   C     0.05879   0.77222   0.38672   0.00000  Uiso   1.00
C340   C     0.11087   0.66912   0.49076   0.00000  Uiso   1.00
C341   C     0.06275   0.62352   0.50997   0.00000  Uiso   1.00
C342   C     0.04054   0.65265   0.54067   0.00000  Uiso   1.00
C343   C     0.22939   0.65379   0.45916   0.00000  Uiso   1.00
C344   C     0.28093   0.59530   0.45181   0.00000  Uiso   1.00
C345   C     0.35852   0.61151   0.45590   0.00000  Uiso   1.00
H346   H     0.20775   0.83748   0.48539   0.00000  Uiso   1.00
H347   H     0.14570   0.90830   0.43540   0.00000  Uiso   1.00
H348   H     0.13319   0.82626   0.54102   0.00000  Uiso   1.00
H349   H     0.35134   0.79804   0.48286   0.00000  Uiso   1.00
H350   H     0.06584   0.95501   0.37512   0.00000  Uiso   1.00
H351   H     0.03948   0.78201   0.59782   0.00000  Uiso   1.00
H352   H     0.49949   0.72251   0.47519   0.00000  Uiso   1.00
H353   H     0.12260   0.59238   0.44785   0.00000  Uiso   1.00
H354   H     0.05589   0.64975   0.39580   0.00000  Uiso   1.00
H355   H     0.04337   0.56771   0.50142   0.00000  Uiso   1.00
H356   H     0.26152   0.53949   0.44326   0.00000  Uiso   1.00
H357   H     0.99294   0.74516   0.34297   0.00000  Uiso   1.00
H358   H     0.96658   0.57216   0.56568   0.00000  Uiso   1.00
H359   H     0.42659   0.51266   0.44304   0.00000  Uiso   1.00
O360   O     0.98702   0.89225   0.32549   0.00000  Uiso   1.00
O361   O     0.95245   0.66528   0.61767   0.00000  Uiso   1.00
O362   O     0.55597   0.58722   0.45677   0.00000  Uiso   1.00
N363   N     0.05786   0.89775   0.37469   0.00000  Uiso   1.00
N364   N     0.03320   0.73601   0.58290   0.00000  Uiso   1.00
N365   N     0.46327   0.68038   0.46826   0.00000  Uiso   1.00
N366   N     0.01863   0.78483   0.35739   0.00000  Uiso   1.00
N367   N     0.99397   0.62309   0.56561   0.00000  Uiso   1.00
N368   N     0.42404   0.56746   0.45096   0.00000  Uiso   1.00
C369   C     0.28133   0.31176   0.02321   0.00000  Uiso   1.00
C370   C     0.28582   0.35727   0.05558   0.00000  Uiso   1.00
C371   C     0.35249   0.37369   0.07316   0.00000  Uiso   1.00
C372   C     0.34448   0.41611   0.10221   0.00000  Uiso   1.00
C373   C     0.36243   0.48300   0.15078   0.00000  Uiso   1.00
C374   C     0.24124   0.36408   0.99819   0.00000  Uiso   1.00
C375   C     0.27044   0.38621   0.96752   0.00000  Uiso   1.00
C376   C     0.22491   0.43436   0.94827   0.00000  Uiso   1.00
C377   C     0.17363   0.51177   0.90774   0.00000  Uiso   1.00
C378   C     0.22592   0.24555   0.02980   0.00000  Uiso   1.00
C379   C     0.24222   0.16803   0.02569   0.00000  Uiso   1.00
C380   C     0.18377   0.11638   0.03303   0.00000  Uiso   1.00
C381   C     0.10870   0.00976   0.04157   0.00000  Uiso   1.00
C382   C     0.14853   0.35789   0.04355   0.00000  Uiso   1.00
C383   C     0.21369   0.38233   0.06662   0.00000  Uiso   1.00
C384   C     0.20557   0.42473   0.09566   0.00000  Uiso   1.00
C385   C     0.27222   0.44121   0.11328   0.00000  Uiso   1.00
C386   C     0.16912   0.38913   0.00924   0.00000  Uiso   1.00
C387   C     0.12352   0.43725   0.99003   0.00000  Uiso   1.00
C388   C     0.15265   0.45946   0.95933   0.00000  Uiso   1.00
C389   C     0.15379   0.27061   0.04084   0.00000  Uiso   1.00
C390   C     0.09530   0.21907   0.04819   0.00000  Uiso   1.00
C391   C     0.11151   0.14148   0.04410   0.00000  Uiso   1.00
H392   H     0.33748   0.29225   0.01461   0.00000  Uiso   1.00
H393   H     0.40830   0.35430   0.06460   0.00000  Uiso   1.00
H394   H     0.32626   0.36681   0.95898   0.00000  Uiso   1.00
H395   H     0.29804   0.14866   0.01714   0.00000  Uiso   1.00
H396   H     0.45501   0.43416   0.12488   0.00000  Uiso   1.00
H397   H     0.28201   0.46052   0.90218   0.00000  Uiso   1.00
H398   H     0.22251   0.00051   0.02481   0.00000  Uiso   1.00
H399   H     0.09238   0.37740   0.05215   0.00000  Uiso   1.00
H400   H     0.14975   0.44411   0.10420   0.00000  Uiso   1.00
H401   H     0.06771   0.45663   0.99858   0.00000  Uiso   1.00
H402   H     0.03949   0.23848   0.05674   0.00000  Uiso   1.00
H403   H     0.24516   0.50706   0.15703   0.00000  Uiso   1.00
H404   H     0.07216   0.53342   0.93432   0.00000  Uiso   1.00
H405   H     0.01266   0.07341   0.05696   0.00000  Uiso   1.00
O406   O     0.39225   0.51298   0.17451   0.00000  Uiso   1.00
O407   O     0.16528   0.54755   0.88233   0.00000  Uiso   1.00
O408   O     0.08722   0.94403   0.04323   0.00000  Uiso   1.00
N409   N     0.39775   0.44214   0.12531   0.00000  Uiso   1.00
N410   N     0.23601   0.46680   0.91710   0.00000  Uiso   1.00
N411   N     0.18038   0.03673   0.03174   0.00000  Uiso   1.00
N412   N     0.28483   0.48137   0.14261   0.00000  Uiso   1.00
N413   N     0.12309   0.50603   0.93439   0.00000  Uiso   1.00
N414   N     0.06746   0.07596   0.04904   0.00000  Uiso   1.00
C415   C     0.78133   0.81176   0.52321   0.00000  Uiso   1.00
C416   C     0.78582   0.85727   0.55558   0.00000  Uiso   1.00
C417   C     0.85249   0.87369   0.57316   0.00000  Uiso   1.00
C418   C     0.84448   0.91611   0.60221   0.00000  Uiso   1.00
C419   C     0.86243   0.98300   0.65078   0.00000  Uiso   1.00
C420   C     0.74124   0.86408   0.49819   0.00000  Uiso   1.00
C421   C     0.77044   0.88621   0.46752   0.00000  Uiso   1.00
C422   C     0.72491   0.93436   0.44827   0.00000  Uiso   1.00
C423   C     0.67363   0.01177   0.40774   0.00000  Uiso   1.00
C424   C     0.72592   0.74555   0.52980   0.00000  Uiso   1.00
C425   C     0.74222   0.66803   0.52569   0.00000  Uiso   1.00
C426   C     0.68377   0.61638   0.53303   0.00000  Uiso   1.00
C427   C     0.60870   0.50976   0.54157   0.00000  Uiso   1.00
C428   C     0.64853   0.85789   0.54355   0.00000  Uiso   1.00
C429   C     0.71369   0.88233   0.56662   0.00000  Uiso   1.00
C430   C     0.70557   0.92473   0.59566   0.00000  Uiso   1.00
C431   C     0.77222   0.94121   0.61328   0.00000  Uiso   1.00
C432   C     0.66912   0.88913   0.50924   0.00000  Uiso   1.00
C433   C     0.62352   0.93725   0.49003   0.00000  Uiso   1.00
C434   C     0.65265   0.95946   0.45933   0.00000  Uiso   1.00
C435   C     0.65379   0.77061   0.54084   0.00000  Uiso   1.00
C436   C     0.59530   0.71907   0.54819   0.00000  Uiso   1.00
C437   C     0.61151   0.64148   0.54410   0.00000  Uiso   1.00
H438   H     0.83748   0.79225   0.51461   0.00000  Uiso   1.00
H439   H     0.90830   0.85430   0.56460   0.00000  Uiso   1.00
H440   H     0.82626   0.86681   0.45898   0.00000  Uiso   1.00
H441   H     0.79804   0.64866   0.51714   0.00000  Uiso   1.00
H442   H     0.95501   0.93416   0.62488   0.00000  Uiso   1.00
H443   H     0.78201   0.96052   0.40218   0.00000  Uiso   1.00
H444   H     0.72251   0.50051   0.52481   0.00000  Uiso   1.00
H445   H     0.59238   0.87740   0.55215   0.00000  Uiso   1.00
H446   H     0.64975   0.94411   0.60420   0.00000  Uiso   1.00
H447   H     0.56771   0.95663   0.49858   0.00000  Uiso   1.00
H448   H     0.53949   0.73848   0.55674   0.00000  Uiso   1.00
H449   H     0.74516   0.00706   0.65703   0.00000  Uiso   1.00
H450   H     0.57216   0.03342   0.43432   0.00000  Uiso   1.00
H451   H     0.51266   0.57341   0.55696   0.00000  Uiso   1.00
O452   O     0.89225   0.01298   0.67451   0.00000  Uiso   1.00
O453   O     0.66528   0.04755   0.38233   0.00000  Uiso   1.00
O454   O     0.58722   0.44403   0.54323   0.00000  Uiso   1.00
N455   N     0.89775   0.94214   0.62531   0.00000  Uiso   1.00
N456   N     0.73601   0.96680   0.41710   0.00000  Uiso   1.00
N457   N     0.68038   0.53673   0.53174   0.00000  Uiso   1.00
N458   N     0.78483   0.98137   0.64261   0.00000  Uiso   1.00
N459   N     0.62309   0.00603   0.43439   0.00000  Uiso   1.00
N460   N     0.56746   0.57596   0.54904   0.00000  Uiso   1.00
C461   C     0.21867   0.18824   0.52321   0.00000  Uiso   1.00
C462   C     0.21418   0.14273   0.55558   0.00000  Uiso   1.00
C463   C     0.14751   0.12631   0.57316   0.00000  Uiso   1.00
C464   C     0.15552   0.08389   0.60221   0.00000  Uiso   1.00
C465   C     0.13757   0.01700   0.65078   0.00000  Uiso   1.00
C466   C     0.25876   0.13592   0.49819   0.00000  Uiso   1.00
C467   C     0.22956   0.11379   0.46752   0.00000  Uiso   1.00
C468   C     0.27509   0.06564   0.44827   0.00000  Uiso   1.00
C469   C     0.32637   0.98823   0.40774   0.00000  Uiso   1.00
C470   C     0.27408   0.25445   0.52980   0.00000  Uiso   1.00
C471   C     0.25778   0.33197   0.52569   0.00000  Uiso   1.00
C472   C     0.31623   0.38362   0.53303   0.00000  Uiso   1.00
C473   C     0.39130   0.49024   0.54157   0.00000  Uiso   1.00
C474   C     0.35147   0.14211   0.54355   0.00000  Uiso   1.00
C475   C     0.28631   0.11767   0.56662   0.00000  Uiso   1.00
C476   C     0.29443   0.07527   0.59566   0.00000  Uiso   1.00
C477   C     0.22778   0.05879   0.61328   0.00000  Uiso   1.00
C478   C     0.33088   0.11087   0.50924   0.00000  Uiso   1.00
C479   C     0.37648   0.06275   0.49003   0.00000  Uiso   1.00
C480   C     0.34735   0.04054   0.45933   0.00000  Uiso   1.00
C481   C     0.34621   0.22939   0.54084   0.00000  Uiso   1.00
C482   C     0.40470   0.28093   0.54819   0.00000  Uiso   1.00
C483   C     0.38849   0.35852   0.54410   0.00000  Uiso   1.00
H484   H     0.16252   0.20775   0.51461   0.00000  Uiso   1.00
H485   H     0.09170   0.14570   0.56460   0.00000  Uiso   1.00
H486   H     0.17374   0.13319   0.45898   0.00000  Uiso   1.00
H487   H     0.20196   0.35134   0.51714   0.00000  Uiso   1.00
H488   H     0.04499   0.06584   0.62488   0.00000  Uiso   1.00
H489   H     0.21799   0.03948   0.40218   0.00000  Uiso   1.00
H490   H     0.27749   0.49949   0.52481   0.00000  Uiso   1.00
H491   H     0.40762   0.12260   0.55215   0.00000  Uiso   1.00
H492   H     0.35025   0.05589   0.60420   0.00000  Uiso   1.00
H493   H     0.43229   0.04337   0.49858   0.00000  Uiso   1.00
H494   H     0.46051   0.26152   0.55674   0.00000  Uiso   1.00
H495   H     0.25484   0.99294   0.65703   0.00000  Uiso   1.00
H496   H     0.42784   0.96658   0.43432   0.00000  Uiso   1.00
H497   H     0.48734   0.42659   0.55696   0.00000  Uiso   1.00
O498   O     0.10775   0.98702   0.67451   0.00000  Uiso   1.00
O499   O     0.33472   0.95245   0.38233   0.00000  Uiso   1.00
O500   O     0.41278   0.55597   0.54323   0.00000  Uiso   1.00
N501   N     0.10225   0.05786   0.62531   0.00000  Uiso   1.00
N502   N     0.26399   0.03320   0.41710   0.00000  Uiso   1.00
N503   N     0.31962   0.46327   0.53174   0.00000  Uiso   1.00
N504   N     0.21517   0.01863   0.64261   0.00000  Uiso   1.00
N505   N     0.37691   0.99397   0.43439   0.00000  Uiso   1.00
N506   N     0.43254   0.42404   0.54904   0.00000  Uiso   1.00
C507   C     0.71867   0.68824   0.02321   0.00000  Uiso   1.00
C508   C     0.71418   0.64273   0.05558   0.00000  Uiso   1.00
C509   C     0.64751   0.62631   0.07316   0.00000  Uiso   1.00
C510   C     0.65552   0.58389   0.10221   0.00000  Uiso   1.00
C511   C     0.63757   0.51700   0.15078   0.00000  Uiso   1.00
C512   C     0.75876   0.63592   0.99819   0.00000  Uiso   1.00
C513   C     0.72956   0.61379   0.96752   0.00000  Uiso   1.00
C514   C     0.77509   0.56564   0.94827   0.00000  Uiso   1.00
C515   C     0.82637   0.48823   0.90774   0.00000  Uiso   1.00
C516   C     0.77408   0.75445   0.02980   0.00000  Uiso   1.00
C517   C     0.75778   0.83197   0.02569   0.00000  Uiso   1.00
C518   C     0.81623   0.88362   0.03303   0.00000  Uiso   1.00
C519   C     0.89130   0.99024   0.04157   0.00000  Uiso   1.00
C520   C     0.85147   0.64211   0.04355   0.00000  Uiso   1.00
C521   C     0.78631   0.61767   0.06662   0.00000  Uiso   1.00
C522   C     0.79443   0.57527   0.09566   0.00000  Uiso   1.00
C523   C     0.72778   0.55879   0.11328   0.00000  Uiso   1.00
C524   C     0.83088   0.61087   0.00924   0.00000  Uiso   1.00
C525   C     0.87648   0.56275   0.99003   0.00000  Uiso   1.00
C526   C     0.84735   0.54054   0.95933   0.00000  Uiso   1.00
C527   C     0.84621   0.72939   0.04084   0.00000  Uiso   1.00
C528   C     0.90470   0.78093   0.04819   0.00000  Uiso   1.00
C529   C     0.88849   0.85852   0.04410   0.00000  Uiso   1.00
H530   H     0.66252   0.70775   0.01461   0.00000  Uiso   1.00
H531   H     0.59170   0.64570   0.06460   0.00000  Uiso   1.00
H532   H     0.67374   0.63319   0.95898   0.00000  Uiso   1.00
H533   H     0.70196   0.85134   0.01714   0.00000  Uiso   1.00
H534   H     0.54499   0.56584   0.12488   0.00000  Uiso   1.00
H535   H     0.71799   0.53948   0.90218   0.00000  Uiso   1.00
H536   H     0.77749   0.99949   0.02481   0.00000  Uiso   1.00
H537   H     0.90762   0.62260   0.05215   0.00000  Uiso   1.00
H538   H     0.85025   0.55589   0.10420   0.00000  Uiso   1.00
H539   H     0.93229   0.54337   0.99858   0.00000  Uiso   1.00
H540   H     0.96051   0.76152   0.05674   0.00000  Uiso   1.00
H541   H     0.75484   0.49294   0.15703   0.00000  Uiso   1.00
H542   H     0.92784   0.46658   0.93432   0.00000  Uiso   1.00
H543   H     0.98734   0.92659   0.05696   0.00000  Uiso   1.00
O544   O     0.60775   0.48702   0.17451   0.00000  Uiso   1.00
O545   O     0.83472   0.45245   0.88233   0.00000  Uiso   1.00
O546   O     0.91278   0.05597   0.04323   0.00000  Uiso   1.00
N547   N     0.60225   0.55786   0.12531   0.00000  Uiso   1.00
N548   N     0.76399   0.53320   0.91710   0.00000  Uiso   1.00
N549   N     0.81962   0.96327   0.03174   0.00000  Uiso   1.00
N550   N     0.71517   0.51863   0.14261   0.00000  Uiso   1.00
N551   N     0.87691   0.49397   0.93439   0.00000  Uiso   1.00
N552   N     0.93254   0.92404   0.04904   0.00000  Uiso   1.00
C553   C     0.18824   0.28133   0.77321   0.00000  Uiso   1.00
C554   C     0.14273   0.28582   0.80558   0.00000  Uiso   1.00
C555   C     0.12631   0.35249   0.82316   0.00000  Uiso   1.00
C556   C     0.08389   0.34448   0.85221   0.00000  Uiso   1.00
C557   C     0.01700   0.36243   0.90078   0.00000  Uiso   1.00
C558   C     0.13592   0.24124   0.74819   0.00000  Uiso   1.00
C559   C     0.11379   0.27044   0.71752   0.00000  Uiso   1.00
C560   C     0.06564   0.22491   0.69827   0.00000  Uiso   1.00
C561   C     0.98823   0.17363   0.65774   0.00000  Uiso   1.00
C562   C     0.25445   0.22592   0.77980   0.00000  Uiso   1.00
C563   C     0.33197   0.24222   0.77569   0.00000  Uiso   1.00
C564   C     0.38362   0.18377   0.78303   0.00000  Uiso   1.00
C565   C     0.49024   0.10870   0.79157   0.00000  Uiso   1.00
C566   C     0.14211   0.14853   0.79355   0.00000  Uiso   1.00
C567   C     0.11767   0.21369   0.81662   0.00000  Uiso   1.00
C568   C     0.07527   0.20557   0.84566   0.00000  Uiso   1.00
C569   C     0.05879   0.27222   0.86328   0.00000  Uiso   1.00
C570   C     0.11087   0.16912   0.75924   0.00000  Uiso   1.00
C571   C     0.06275   0.12352   0.74003   0.00000  Uiso   1.00
C572   C     0.04054   0.15265   0.70933   0.00000  Uiso   1.00
C573   C     0.22939   0.15379   0.79084   0.00000  Uiso   1.00
C574   C     0.28093   0.09530   0.79819   0.00000  Uiso   1.00
C575   C     0.35852   0.11151   0.79410   0.00000  Uiso   1.00
H576   H     0.20775   0.33748   0.76461   0.00000  Uiso   1.00
H577   H     0.14570   0.40830   0.81460   0.00000  Uiso   1.00
H578   H     0.13319   0.32626   0.70898   0.00000  Uiso   1.00
H579   H     0.35134   0.29804   0.76714   0.00000  Uiso   1.00
H580   H     0.06584   0.45501   0.87488   0.00000  Uiso   1.00
H581   H     0.03948   0.28201   0.65218   0.00000  Uiso   1.00
H582   H     0.49949   0.22251   0.77481   0.00000  Uiso   1.00
H583   H     0.12260   0.09238   0.80215   0.00000  Uiso   1.00
H584   H     0.05589   0.14975   0.85420   0.00000  Uiso   1.00
H585   H     0.04337   0.06771   0.74858   0.00000  Uiso   1.00
H586   H     0.26152   0.03949   0.80674   0.00000  Uiso   1.00
H587   H     0.99294   0.24516   0.90703   0.00000  Uiso   1.00
H588   H     0.96658   0.07216   0.68432   0.00000  Uiso   1.00
H589   H     0.42659   0.01266   0.80696   0.00000  Uiso   1.00
O590   O     0.98702   0.39225   0.92451   0.00000  Uiso   1.00
O591   O     0.95245   0.16528   0.63233   0.00000  Uiso   1.00
O592   O     0.55597   0.08722   0.79323   0.00000  Uiso   1.00
N593   N     0.05786   0.39775   0.87531   0.00000  Uiso   1.00
N594   N     0.03320   0.23601   0.66710   0.00000  Uiso   1.00
N595   N     0.46327   0.18038   0.78174   0.00000  Uiso   1.00
N596   N     0.01863   0.28483   0.89261   0.00000  Uiso   1.00
N597   N     0.99397   0.12309   0.68439   0.00000  Uiso   1.00
N598   N     0.42404   0.06746   0.79904   0.00000  Uiso   1.00
C599   C     0.68824   0.78133   0.27321   0.00000  Uiso   1.00
C600   C     0.64273   0.78582   0.30558   0.00000  Uiso   1.00
C601   C     0.62631   0.85249   0.32316   0.00000  Uiso   1.00
C602   C     0.58389   0.84448   0.35221   0.00000  Uiso   1.00
C603   C     0.51700   0.86243   0.40078   0.00000  Uiso   1.00
C604   C     0.63592   0.74124   0.24819   0.00000  Uiso   1.00
C605   C     0.61379   0.77044   0.21752   0.00000  Uiso   1.00
C606   C     0.56564   0.72491   0.19827   0.00000  Uiso   1.00
C607   C     0.48823   0.67363   0.15774   0.00000  Uiso   1.00
C608   C     0.75445   0.72592   0.27980   0.00000  Uiso   1.00
C609   C     0.83197   0.74222   0.27569   0.00000  Uiso   1.00
C610   C     0.88362   0.68377   0.28303   0.00000  Uiso   1.00
C611   C     0.99024   0.60870   0.29157   0.00000  Uiso   1.00
C612   C     0.64211   0.64853   0.29355   0.00000  Uiso   1.00
C613   C     0.61767   0.71369   0.31662   0.00000  Uiso   1.00
C614   C     0.57527   0.70557   0.34566   0.00000  Uiso   1.00
C615   C     0.55879   0.77222   0.36328   0.00000  Uiso   1.00
C616   C     0.61087   0.66912   0.25924   0.00000  Uiso   1.00
C617   C     0.56275   0.62352   0.24003   0.00000  Uiso   1.00
C618   C     0.54054   0.65265   0.20933   0.00000  Uiso   1.00
C619   C     0.72939   0.65379   0.29084   0.00000  Uiso   1.00
C620   C     0.78093   0.59530   0.29819   0.00000  Uiso   1.00
C621   C     0.85852   0.61151   0.29410   0.00000  Uiso   1.00
H622   H     0.70775   0.83748   0.26461   0.00000  Uiso   1.00
H623   H     0.64570   0.90830   0.31460   0.00000  Uiso   1.00
H624   H     0.63319   0.82626   0.20898   0.00000  Uiso   1.00
H625   H     0.85134   0.79804   0.26714   0.00000  Uiso   1.00
H626   H     0.56584   0.95501   0.37488   0.00000  Uiso   1.00
H627   H     0.53948   0.78201   0.15218   0.00000  Uiso   1.00
H628   H     0.99949   0.72251   0.27481   0.00000  Uiso   1.00
H629   H     0.62260   0.59238   0.30215   0.00000  Uiso   1.00
H630   H     0.55589   0.64975   0.35420   0.00000  Uiso   1.00
H631   H     0.54337   0.56771   0.24858   0.00000  Uiso   1.00
H632   H     0.76152   0.53949   0.30674   0.00000  Uiso   1.00
H633   H     0.49294   0.74516   0.40703   0.00000  Uiso   1.00
H634   H     0.46658   0.57216   0.18432   0.00000  Uiso   1.00
H635   H     0.92659   0.51266   0.30696   0.00000  Uiso   1.00
O636   O     0.48702   0.89225   0.42451   0.00000  Uiso   1.00
O637   O     0.45245   0.66528   0.13233   0.00000  Uiso   1.00
O638   O     0.05597   0.58722   0.29323   0.00000  Uiso   1.00
N639   N     0.55786   0.89775   0.37531   0.00000  Uiso   1.00
N640   N     0.53320   0.73601   0.16710   0.00000  Uiso   1.00
N641   N     0.96327   0.68038   0.28174   0.00000  Uiso   1.00
N642   N     0.51863   0.78483   0.39261   0.00000  Uiso   1.00
N643   N     0.49397   0.62309   0.18439   0.00000  Uiso   1.00
N644   N     0.92404   0.56746   0.29904   0.00000  Uiso   1.00
C645   C     0.31176   0.21867   0.27321   0.00000  Uiso   1.00
C646   C     0.35727   0.21418   0.30558   0.00000  Uiso   1.00
C647   C     0.37369   0.14751   0.32316   0.00000  Uiso   1.00
C648   C     0.41611   0.15552   0.35221   0.00000  Uiso   1.00
C649   C     0.48300   0.13757   0.40078   0.00000  Uiso   1.00
C650   C     0.36408   0.25876   0.24819   0.00000  Uiso   1.00
C651   C     0.38621   0.22956   0.21752   0.00000  Uiso   1.00
C652   C     0.43436   0.27509   0.19827   0.00000  Uiso   1.00
C653   C     0.51177   0.32637   0.15774   0.00000  Uiso   1.00
C654   C     0.24555   0.27408   0.27980   0.00000  Uiso   1.00
C655   C     0.16803   0.25778   0.27569   0.00000  Uiso   1.00
C656   C     0.11638   0.31623   0.28303   0.00000  Uiso   1.00
C657   C     0.00976   0.39130   0.29157   0.00000  Uiso   1.00
C658   C     0.35789   0.35147   0.29355   0.00000  Uiso   1.00
C659   C     0.38233   0.28631   0.31662   0.00000  Uiso   1.00
C660   C     0.42473   0.29443   0.34566   0.00000  Uiso   1.00
C661   C     0.44121   0.22778   0.36328   0.00000  Uiso   1.00
C662   C     0.38913   0.33088   0.25924   0.00000  Uiso   1.00
C663   C     0.43725   0.37648   0.24003   0.00000  Uiso   1.00
C664   C     0.45946   0.34735   0.20933   0.00000  Uiso   1.00
C665   C     0.27061   0.34621   0.29084   0.00000  Uiso   1.00
C666   C     0.21907   0.40470   0.29819   0.00000  Uiso   1.00
C667   C     0.14148   0.38849   0.29410   0.00000  Uiso   1.00
H668   H     0.29225   0.16252   0.26461   0.00000  Uiso   1.00
H669   H     0.35430   0.09170   0.31460   0.00000  Uiso   1.00
H670   H     0.36681   0.17374   0.20898   0.00000  Uiso   1.00
H671   H     0.14866   0.20196   0.26714   0.00000  Uiso   1.00
H672   H     0.43416   0.04499   0.37488   0.00000  Uiso   1.00
H673   H     0.46052   0.21799   0.15218   0.00000  Uiso   1.00
H674   H     0.00051   0.27749   0.27481   0.00000  Uiso   1.00
H675   H     0.37740   0.40762   0.30215   0.00000  Uiso   1.00
H676   H     0.44411   0.35025   0.35420   0.00000  Uiso   1.00
H677   H     0.45663   0.43229   0.24858   0.00000  Uiso   1.00
H678   H     0.23848   0.46051   0.30674   0.00000  Uiso   1.00
H679   H     0.50706   0.25484   0.40703   0.00000  Uiso   1.00
H680   H     0.53342   0.42784   0.18432   0.00000  Uiso   1.00
H681   H     0.07341   0.48734   0.30696   0.00000  Uiso   1.00
O682   O     0.51298   0.10775   0.42451   0.00000  Uiso   1.00
O683   O     0.54755   0.33472   0.13233   0.00000  Uiso   1.00
O684   O     0.94403   0.41278   0.29323   0.00000  Uiso   1.00
N685   N     0.44214   0.10225   0.37531   0.00000  Uiso   1.00
N686   N     0.46680   0.26399   0.16710   0.00000  Uiso   1.00
N687   N     0.03673   0.31962   0.28174   0.00000  Uiso   1.00
N688   N     0.48137   0.21517   0.39261   0.00000  Uiso   1.00
N689   N     0.50603   0.37691   0.18439   0.00000  Uiso   1.00
N690   N     0.07596   0.43254   0.29904   0.00000  Uiso   1.00
C691   C     0.81176   0.71867   0.77321   0.00000  Uiso   1.00
C692   C     0.85727   0.71418   0.80558   0.00000  Uiso   1.00
C693   C     0.87369   0.64751   0.82316   0.00000  Uiso   1.00
C694   C     0.91611   0.65552   0.85221   0.00000  Uiso   1.00
C695   C     0.98300   0.63757   0.90078   0.00000  Uiso   1.00
C696   C     0.86408   0.75876   0.74819   0.00000  Uiso   1.00
C697   C     0.88621   0.72956   0.71752   0.00000  Uiso   1.00
C698   C     0.93436   0.77509   0.69827   0.00000  Uiso   1.00
C699   C     0.01177   0.82637   0.65774   0.00000  Uiso   1.00
C700   C     0.74555   0.77408   0.77980   0.00000  Uiso   1.00
C701   C     0.66803   0.75778   0.77569   0.00000  Uiso   1.00
C702   C     0.61638   0.81623   0.78303   0.00000  Uiso   1.00
C703   C     0.50976   0.89130   0.79157   0.00000  Uiso   1.00
C704   C     0.85789   0.85147   0.79355   0.00000  Uiso   1.00
C705   C     0.88233   0.78631   0.81662   0.00000  Uiso   1.00
C706   C     0.92473   0.79443   0.84566   0.00000  Uiso   1.00
C707   C     0.94121   0.72778   0.86328   0.00000  Uiso   1.00
C708   C     0.88913   0.83088   0.75924   0.00000  Uiso   1.00
C709   C     0.93725   0.87648   0.74003   0.00000  Uiso   1.00
C710   C     0.95946   0.84735   0.70933   0.00000  Uiso   1.00
C711   C     0.77061   0.84621   0.79084   0.00000  Uiso   1.00
C712   C     0.71907   0.90470   0.79819   0.00000  Uiso   1.00
C713   C     0.64148   0.88849   0.79410   0.00000  Uiso   1.00
H714   H     0.79225   0.66252   0.76461   0.00000  Uiso   1.00
H715   H     0.85430   0.59170   0.81460   0.00000  Uiso   1.00
H716   H     0.86681   0.67374   0.70898   0.00000  Uiso   1.00
H717   H     0.64866   0.70196   0.76714   0.00000  Uiso   1.00
H718   H     0.93416   0.54499   0.87488   0.00000  Uiso   1.00
H719   H     0.96052   0.71799   0.65218   0.00000  Uiso   1.00
H720   H     0.50051   0.77749   0.77481   0.00000  Uiso   1.00
H721   H     0.87740   0.90762   0.80215   0.00000  Uiso   1.00
H722   H     0.94411   0.85025   0.85420   0.00000  Uiso   1.00
H723   H     0.95663   0.93229   0.74858   0.00000  Uiso   1.00
H724   H     0.73848   0.96051   0.80674   0.00000  Uiso   1.00
H725   H     0.00706   0.75484   0.90703   0.00000  Uiso   1.00
H726   H     0.03342   0.92784   0.68432   0.00000  Uiso   1.00
H727   H     0.57341   0.98734   0.80696   0.00000  Uiso   1.00
O728   O     0.01298   0.60775   0.92451   0.00000  Uiso   1.00
O729   O     0.04755   0.83472   0.63233   0.00000  Uiso   1.00
O730   O     0.44403   0.91278   0.79323   0.00000  Uiso   1.00
N731   N     0.94214   0.60225   0.87531   0.00000  Uiso   1.00
N732   N     0.96680   0.76399   0.66710   0.00000  Uiso   1.00
N733   N     0.53673   0.81962   0.78174   0.00000  Uiso   1.00
N734   N     0.98137   0.71517   0.89261   0.00000  Uiso   1.00
N735   N     0.00603   0.87691   0.68439   0.00000  Uiso   1.00
N736   N     0.57596   0.93254   0.79904   0.00000  Uiso   1.00
