data_job_03964
_audit_creation_date              2018-12-19
_audit_creation_method            'Materials Studio'
_symmetry_space_group_name_H-M    'P1'
_symmetry_Int_Tables_number       1
_symmetry_cell_setting            triclinic
loop_
_symmetry_equiv_pos_as_xyz
  x,y,z
_cell_length_a                    19.1901
_cell_length_b                    19.1901
_cell_length_c                    38.8534
_cell_angle_alpha                 90.0000
_cell_angle_beta                  90.0000
_cell_angle_gamma                 90.0000
loop_
_atom_site_label
_atom_site_type_symbol
_atom_site_fract_x
_atom_site_fract_y
_atom_site_fract_z
_atom_site_U_iso_or_equiv
_atom_site_adp_type
_atom_site_occupancy
C1     C     0.15934   0.81466   0.71288   0.00000  Uiso   1.00
C2     C     0.09287   0.85145   0.70138   0.00000  Uiso   1.00
C3     C     0.07127   0.86032   0.66757   0.00000  Uiso   1.00
C4     C     0.00889   0.89544   0.66241   0.00000  Uiso   1.00
C5     C     0.91167   0.94875   0.64034   0.00000  Uiso   1.00
C6     C     0.19923   0.86730   0.73471   0.00000  Uiso   1.00
C7     C     0.26707   0.88948   0.72892   0.00000  Uiso   1.00
C8     C     0.29422   0.93794   0.75182   0.00000  Uiso   1.00
C9     C     0.36216   0.01581   0.78150   0.00000  Uiso   1.00
C10    C     0.13633   0.75717   0.73748   0.00000  Uiso   1.00
C11    C     0.15128   0.68676   0.73403   0.00000  Uiso   1.00
C12    C     0.12549   0.64250   0.75927   0.00000  Uiso   1.00
C13    C     0.09575   0.54939   0.79326   0.00000  Uiso   1.00
C14    C     0.08696   0.86126   0.76383   0.00000  Uiso   1.00
C15    C     0.05356   0.87677   0.72905   0.00000  Uiso   1.00
C16    C     0.99119   0.91188   0.72394   0.00000  Uiso   1.00
C17    C     0.96950   0.92080   0.69014   0.00000  Uiso   1.00
C18    C     0.15992   0.89261   0.76238   0.00000  Uiso   1.00
C19    C     0.18699   0.94105   0.78529   0.00000  Uiso   1.00
C20    C     0.25484   0.96330   0.77954   0.00000  Uiso   1.00
C21    C     0.09701   0.78249   0.76515   0.00000  Uiso   1.00
C22    C     0.07120   0.73833   0.79040   0.00000  Uiso   1.00
C23    C     0.08610   0.66786   0.78699   0.00000  Uiso   1.00
H24    H     0.18995   0.79495   0.69134   0.00000  Uiso   1.00
H25    H     0.10171   0.84072   0.64617   0.00000  Uiso   1.00
H26    H     0.29748   0.86988   0.70751   0.00000  Uiso   1.00
H27    H     0.18170   0.66719   0.71261   0.00000  Uiso   1.00
H28    H     0.98655   0.90266   0.60829   0.00000  Uiso   1.00
H29    H     0.39935   0.96411   0.73764   0.00000  Uiso   1.00
H30    H     0.15522   0.53670   0.74840   0.00000  Uiso   1.00
H31    H     0.05636   0.88097   0.78538   0.00000  Uiso   1.00
H32    H     0.96078   0.93147   0.74536   0.00000  Uiso   1.00
H33    H     0.15655   0.96062   0.80671   0.00000  Uiso   1.00
H34    H     0.04078   0.75793   0.81181   0.00000  Uiso   1.00
H35    H     0.87217   0.97631   0.68880   0.00000  Uiso   1.00
H36    H     0.28497   0.03776   0.81815   0.00000  Uiso   1.00
H37    H     0.04084   0.61035   0.82892   0.00000  Uiso   1.00
O38    O     0.86891   0.97117   0.62052   0.00000  Uiso   1.00
O39    O     0.41049   0.05178   0.79023   0.00000  Uiso   1.00
O40    O     0.09019   0.49103   0.80435   0.00000  Uiso   1.00
N41    N     0.97274   0.91305   0.63273   0.00000  Uiso   1.00
N42    N     0.35868   0.97051   0.75366   0.00000  Uiso   1.00
N43    N     0.13045   0.57092   0.76373   0.00000  Uiso   1.00
N44    N     0.91119   0.95268   0.67605   0.00000  Uiso   1.00
N45    N     0.29713   0.01014   0.79698   0.00000  Uiso   1.00
N46    N     0.06891   0.61056   0.80705   0.00000  Uiso   1.00
C47    C     0.65934   0.31466   0.21288   0.00000  Uiso   1.00
C48    C     0.59287   0.35145   0.20138   0.00000  Uiso   1.00
C49    C     0.57127   0.36032   0.16757   0.00000  Uiso   1.00
C50    C     0.50889   0.39544   0.16241   0.00000  Uiso   1.00
C51    C     0.41167   0.44875   0.14034   0.00000  Uiso   1.00
C52    C     0.69923   0.36730   0.23471   0.00000  Uiso   1.00
C53    C     0.76707   0.38948   0.22892   0.00000  Uiso   1.00
C54    C     0.79422   0.43794   0.25182   0.00000  Uiso   1.00
C55    C     0.86216   0.51581   0.28150   0.00000  Uiso   1.00
C56    C     0.63633   0.25717   0.23748   0.00000  Uiso   1.00
C57    C     0.65128   0.18676   0.23403   0.00000  Uiso   1.00
C58    C     0.62549   0.14250   0.25927   0.00000  Uiso   1.00
C59    C     0.59575   0.04939   0.29326   0.00000  Uiso   1.00
C60    C     0.58696   0.36126   0.26383   0.00000  Uiso   1.00
C61    C     0.55356   0.37677   0.22905   0.00000  Uiso   1.00
C62    C     0.49119   0.41188   0.22394   0.00000  Uiso   1.00
C63    C     0.46950   0.42080   0.19014   0.00000  Uiso   1.00
C64    C     0.65992   0.39261   0.26238   0.00000  Uiso   1.00
C65    C     0.68699   0.44105   0.28529   0.00000  Uiso   1.00
C66    C     0.75484   0.46330   0.27954   0.00000  Uiso   1.00
C67    C     0.59701   0.28249   0.26515   0.00000  Uiso   1.00
C68    C     0.57120   0.23833   0.29040   0.00000  Uiso   1.00
C69    C     0.58610   0.16786   0.28699   0.00000  Uiso   1.00
H70    H     0.68995   0.29495   0.19134   0.00000  Uiso   1.00
H71    H     0.60171   0.34072   0.14617   0.00000  Uiso   1.00
H72    H     0.79748   0.36988   0.20751   0.00000  Uiso   1.00
H73    H     0.68170   0.16719   0.21261   0.00000  Uiso   1.00
H74    H     0.48655   0.40266   0.10829   0.00000  Uiso   1.00
H75    H     0.89935   0.46411   0.23764   0.00000  Uiso   1.00
H76    H     0.65522   0.03670   0.24840   0.00000  Uiso   1.00
H77    H     0.55636   0.38097   0.28538   0.00000  Uiso   1.00
H78    H     0.46078   0.43147   0.24536   0.00000  Uiso   1.00
H79    H     0.65655   0.46062   0.30671   0.00000  Uiso   1.00
H80    H     0.54078   0.25793   0.31181   0.00000  Uiso   1.00
H81    H     0.37217   0.47631   0.18880   0.00000  Uiso   1.00
H82    H     0.78497   0.53776   0.31815   0.00000  Uiso   1.00
H83    H     0.54084   0.11035   0.32892   0.00000  Uiso   1.00
O84    O     0.36891   0.47117   0.12052   0.00000  Uiso   1.00
O85    O     0.91049   0.55178   0.29023   0.00000  Uiso   1.00
O86    O     0.59019   0.99103   0.30435   0.00000  Uiso   1.00
N87    N     0.47274   0.41305   0.13273   0.00000  Uiso   1.00
N88    N     0.85868   0.47051   0.25366   0.00000  Uiso   1.00
N89    N     0.63045   0.07092   0.26373   0.00000  Uiso   1.00
N90    N     0.41119   0.45268   0.17605   0.00000  Uiso   1.00
N91    N     0.79713   0.51014   0.29698   0.00000  Uiso   1.00
N92    N     0.56891   0.11056   0.30705   0.00000  Uiso   1.00
C93    C     0.84066   0.18534   0.71288   0.00000  Uiso   1.00
C94    C     0.90713   0.14855   0.70138   0.00000  Uiso   1.00
C95    C     0.92873   0.13968   0.66757   0.00000  Uiso   1.00
C96    C     0.99111   0.10456   0.66241   0.00000  Uiso   1.00
C97    C     0.08833   0.05125   0.64034   0.00000  Uiso   1.00
C98    C     0.80077   0.13270   0.73471   0.00000  Uiso   1.00
C99    C     0.73293   0.11052   0.72892   0.00000  Uiso   1.00
C100   C     0.70578   0.06206   0.75182   0.00000  Uiso   1.00
C101   C     0.63784   0.98419   0.78150   0.00000  Uiso   1.00
C102   C     0.86367   0.24283   0.73748   0.00000  Uiso   1.00
C103   C     0.84872   0.31324   0.73403   0.00000  Uiso   1.00
C104   C     0.87451   0.35750   0.75927   0.00000  Uiso   1.00
C105   C     0.90425   0.45061   0.79326   0.00000  Uiso   1.00
C106   C     0.91304   0.13874   0.76383   0.00000  Uiso   1.00
C107   C     0.94644   0.12323   0.72905   0.00000  Uiso   1.00
C108   C     0.00881   0.08812   0.72394   0.00000  Uiso   1.00
C109   C     0.03050   0.07920   0.69014   0.00000  Uiso   1.00
C110   C     0.84008   0.10739   0.76238   0.00000  Uiso   1.00
C111   C     0.81301   0.05895   0.78529   0.00000  Uiso   1.00
C112   C     0.74516   0.03670   0.77954   0.00000  Uiso   1.00
C113   C     0.90299   0.21751   0.76515   0.00000  Uiso   1.00
C114   C     0.92880   0.26167   0.79040   0.00000  Uiso   1.00
C115   C     0.91390   0.33214   0.78699   0.00000  Uiso   1.00
H116   H     0.81005   0.20505   0.69134   0.00000  Uiso   1.00
H117   H     0.89829   0.15928   0.64617   0.00000  Uiso   1.00
H118   H     0.70252   0.13012   0.70751   0.00000  Uiso   1.00
H119   H     0.81830   0.33281   0.71261   0.00000  Uiso   1.00
H120   H     0.01345   0.09734   0.60829   0.00000  Uiso   1.00
H121   H     0.60065   0.03589   0.73764   0.00000  Uiso   1.00
H122   H     0.84478   0.46330   0.74840   0.00000  Uiso   1.00
H123   H     0.94364   0.11903   0.78538   0.00000  Uiso   1.00
H124   H     0.03922   0.06853   0.74536   0.00000  Uiso   1.00
H125   H     0.84345   0.03938   0.80671   0.00000  Uiso   1.00
H126   H     0.95922   0.24207   0.81181   0.00000  Uiso   1.00
H127   H     0.12783   0.02369   0.68880   0.00000  Uiso   1.00
H128   H     0.71503   0.96224   0.81815   0.00000  Uiso   1.00
H129   H     0.95916   0.38965   0.82892   0.00000  Uiso   1.00
O130   O     0.13109   0.02883   0.62052   0.00000  Uiso   1.00
O131   O     0.58951   0.94822   0.79023   0.00000  Uiso   1.00
O132   O     0.90981   0.50897   0.80435   0.00000  Uiso   1.00
N133   N     0.02726   0.08695   0.63273   0.00000  Uiso   1.00
N134   N     0.64132   0.02949   0.75366   0.00000  Uiso   1.00
N135   N     0.86955   0.42908   0.76373   0.00000  Uiso   1.00
N136   N     0.08881   0.04732   0.67605   0.00000  Uiso   1.00
N137   N     0.70287   0.98986   0.79698   0.00000  Uiso   1.00
N138   N     0.93109   0.38944   0.80705   0.00000  Uiso   1.00
C139   C     0.34066   0.68534   0.21288   0.00000  Uiso   1.00
C140   C     0.40713   0.64855   0.20138   0.00000  Uiso   1.00
C141   C     0.42873   0.63968   0.16757   0.00000  Uiso   1.00
C142   C     0.49111   0.60456   0.16241   0.00000  Uiso   1.00
C143   C     0.58833   0.55125   0.14034   0.00000  Uiso   1.00
C144   C     0.30077   0.63270   0.23471   0.00000  Uiso   1.00
C145   C     0.23293   0.61052   0.22892   0.00000  Uiso   1.00
C146   C     0.20578   0.56206   0.25182   0.00000  Uiso   1.00
C147   C     0.13784   0.48419   0.28150   0.00000  Uiso   1.00
C148   C     0.36367   0.74283   0.23748   0.00000  Uiso   1.00
C149   C     0.34872   0.81324   0.23403   0.00000  Uiso   1.00
C150   C     0.37451   0.85750   0.25927   0.00000  Uiso   1.00
C151   C     0.40425   0.95061   0.29326   0.00000  Uiso   1.00
C152   C     0.41304   0.63874   0.26383   0.00000  Uiso   1.00
C153   C     0.44644   0.62323   0.22905   0.00000  Uiso   1.00
C154   C     0.50881   0.58812   0.22394   0.00000  Uiso   1.00
C155   C     0.53050   0.57920   0.19014   0.00000  Uiso   1.00
C156   C     0.34008   0.60739   0.26238   0.00000  Uiso   1.00
C157   C     0.31301   0.55895   0.28529   0.00000  Uiso   1.00
C158   C     0.24516   0.53670   0.27954   0.00000  Uiso   1.00
C159   C     0.40299   0.71751   0.26515   0.00000  Uiso   1.00
C160   C     0.42880   0.76167   0.29040   0.00000  Uiso   1.00
C161   C     0.41390   0.83214   0.28699   0.00000  Uiso   1.00
H162   H     0.31005   0.70505   0.19134   0.00000  Uiso   1.00
H163   H     0.39829   0.65928   0.14617   0.00000  Uiso   1.00
H164   H     0.20252   0.63012   0.20751   0.00000  Uiso   1.00
H165   H     0.31830   0.83281   0.21261   0.00000  Uiso   1.00
H166   H     0.51345   0.59734   0.10829   0.00000  Uiso   1.00
H167   H     0.10065   0.53589   0.23764   0.00000  Uiso   1.00
H168   H     0.34478   0.96330   0.24840   0.00000  Uiso   1.00
H169   H     0.44364   0.61903   0.28538   0.00000  Uiso   1.00
H170   H     0.53922   0.56853   0.24536   0.00000  Uiso   1.00
H171   H     0.34345   0.53938   0.30671   0.00000  Uiso   1.00
H172   H     0.45922   0.74207   0.31181   0.00000  Uiso   1.00
H173   H     0.62783   0.52369   0.18880   0.00000  Uiso   1.00
H174   H     0.21503   0.46224   0.31815   0.00000  Uiso   1.00
H175   H     0.45916   0.88965   0.32892   0.00000  Uiso   1.00
O176   O     0.63109   0.52883   0.12052   0.00000  Uiso   1.00
O177   O     0.08951   0.44822   0.29023   0.00000  Uiso   1.00
O178   O     0.40981   0.00897   0.30435   0.00000  Uiso   1.00
N179   N     0.52726   0.58695   0.13273   0.00000  Uiso   1.00
N180   N     0.14132   0.52949   0.25366   0.00000  Uiso   1.00
N181   N     0.36955   0.92908   0.26373   0.00000  Uiso   1.00
N182   N     0.58881   0.54732   0.17605   0.00000  Uiso   1.00
N183   N     0.20287   0.48986   0.29698   0.00000  Uiso   1.00
N184   N     0.43109   0.88944   0.30705   0.00000  Uiso   1.00
C185   C     0.81466   0.84066   0.28712   0.00000  Uiso   1.00
C186   C     0.85145   0.90713   0.29862   0.00000  Uiso   1.00
C187   C     0.86032   0.92873   0.33243   0.00000  Uiso   1.00
C188   C     0.89544   0.99111   0.33759   0.00000  Uiso   1.00
C189   C     0.94875   0.08833   0.35966   0.00000  Uiso   1.00
C190   C     0.86730   0.80077   0.26529   0.00000  Uiso   1.00
C191   C     0.88948   0.73293   0.27108   0.00000  Uiso   1.00
C192   C     0.93794   0.70578   0.24818   0.00000  Uiso   1.00
C193   C     0.01581   0.63784   0.21850   0.00000  Uiso   1.00
C194   C     0.75717   0.86367   0.26252   0.00000  Uiso   1.00
C195   C     0.68676   0.84872   0.26597   0.00000  Uiso   1.00
C196   C     0.64250   0.87451   0.24073   0.00000  Uiso   1.00
C197   C     0.54939   0.90425   0.20674   0.00000  Uiso   1.00
C198   C     0.86126   0.91304   0.23617   0.00000  Uiso   1.00
C199   C     0.87677   0.94644   0.27095   0.00000  Uiso   1.00
C200   C     0.91188   0.00881   0.27606   0.00000  Uiso   1.00
C201   C     0.92080   0.03050   0.30986   0.00000  Uiso   1.00
C202   C     0.89261   0.84008   0.23762   0.00000  Uiso   1.00
C203   C     0.94105   0.81301   0.21471   0.00000  Uiso   1.00
C204   C     0.96330   0.74516   0.22046   0.00000  Uiso   1.00
C205   C     0.78249   0.90299   0.23485   0.00000  Uiso   1.00
C206   C     0.73833   0.92880   0.20960   0.00000  Uiso   1.00
C207   C     0.66786   0.91390   0.21301   0.00000  Uiso   1.00
H208   H     0.79495   0.81005   0.30866   0.00000  Uiso   1.00
H209   H     0.84072   0.89829   0.35383   0.00000  Uiso   1.00
H210   H     0.86988   0.70252   0.29249   0.00000  Uiso   1.00
H211   H     0.66719   0.81830   0.28739   0.00000  Uiso   1.00
H212   H     0.90266   0.01345   0.39171   0.00000  Uiso   1.00
H213   H     0.96411   0.60065   0.26236   0.00000  Uiso   1.00
H214   H     0.53670   0.84478   0.25160   0.00000  Uiso   1.00
H215   H     0.88097   0.94364   0.21462   0.00000  Uiso   1.00
H216   H     0.93147   0.03922   0.25464   0.00000  Uiso   1.00
H217   H     0.96062   0.84345   0.19329   0.00000  Uiso   1.00
H218   H     0.75793   0.95922   0.18819   0.00000  Uiso   1.00
H219   H     0.97631   0.12783   0.31120   0.00000  Uiso   1.00
H220   H     0.03776   0.71503   0.18185   0.00000  Uiso   1.00
H221   H     0.61035   0.95916   0.17108   0.00000  Uiso   1.00
O222   O     0.97117   0.13109   0.37948   0.00000  Uiso   1.00
O223   O     0.05178   0.58951   0.20977   0.00000  Uiso   1.00
O224   O     0.49103   0.90981   0.19565   0.00000  Uiso   1.00
N225   N     0.91305   0.02726   0.36727   0.00000  Uiso   1.00
N226   N     0.97051   0.64132   0.24634   0.00000  Uiso   1.00
N227   N     0.57092   0.86955   0.23627   0.00000  Uiso   1.00
N228   N     0.95268   0.08881   0.32395   0.00000  Uiso   1.00
N229   N     0.01014   0.70287   0.20302   0.00000  Uiso   1.00
N230   N     0.61056   0.93109   0.19295   0.00000  Uiso   1.00
C231   C     0.31466   0.34066   0.78712   0.00000  Uiso   1.00
C232   C     0.35145   0.40713   0.79862   0.00000  Uiso   1.00
C233   C     0.36032   0.42873   0.83243   0.00000  Uiso   1.00
C234   C     0.39544   0.49111   0.83759   0.00000  Uiso   1.00
C235   C     0.44875   0.58833   0.85966   0.00000  Uiso   1.00
C236   C     0.36730   0.30077   0.76529   0.00000  Uiso   1.00
C237   C     0.38948   0.23293   0.77108   0.00000  Uiso   1.00
C238   C     0.43794   0.20578   0.74818   0.00000  Uiso   1.00
C239   C     0.51581   0.13784   0.71850   0.00000  Uiso   1.00
C240   C     0.25717   0.36367   0.76252   0.00000  Uiso   1.00
C241   C     0.18676   0.34872   0.76597   0.00000  Uiso   1.00
C242   C     0.14250   0.37451   0.74073   0.00000  Uiso   1.00
C243   C     0.04939   0.40425   0.70674   0.00000  Uiso   1.00
C244   C     0.36126   0.41304   0.73617   0.00000  Uiso   1.00
C245   C     0.37677   0.44644   0.77095   0.00000  Uiso   1.00
C246   C     0.41188   0.50881   0.77606   0.00000  Uiso   1.00
C247   C     0.42080   0.53050   0.80986   0.00000  Uiso   1.00
C248   C     0.39261   0.34008   0.73762   0.00000  Uiso   1.00
C249   C     0.44105   0.31301   0.71471   0.00000  Uiso   1.00
C250   C     0.46330   0.24516   0.72046   0.00000  Uiso   1.00
C251   C     0.28249   0.40299   0.73485   0.00000  Uiso   1.00
C252   C     0.23833   0.42880   0.70960   0.00000  Uiso   1.00
C253   C     0.16786   0.41390   0.71301   0.00000  Uiso   1.00
H254   H     0.29495   0.31005   0.80866   0.00000  Uiso   1.00
H255   H     0.34072   0.39829   0.85383   0.00000  Uiso   1.00
H256   H     0.36988   0.20252   0.79249   0.00000  Uiso   1.00
H257   H     0.16719   0.31830   0.78739   0.00000  Uiso   1.00
H258   H     0.40266   0.51345   0.89171   0.00000  Uiso   1.00
H259   H     0.46411   0.10065   0.76236   0.00000  Uiso   1.00
H260   H     0.03670   0.34478   0.75160   0.00000  Uiso   1.00
H261   H     0.38097   0.44364   0.71462   0.00000  Uiso   1.00
H262   H     0.43147   0.53922   0.75464   0.00000  Uiso   1.00
H263   H     0.46062   0.34345   0.69329   0.00000  Uiso   1.00
H264   H     0.25793   0.45922   0.68819   0.00000  Uiso   1.00
H265   H     0.47631   0.62783   0.81120   0.00000  Uiso   1.00
H266   H     0.53776   0.21503   0.68185   0.00000  Uiso   1.00
H267   H     0.11035   0.45916   0.67108   0.00000  Uiso   1.00
O268   O     0.47117   0.63109   0.87948   0.00000  Uiso   1.00
O269   O     0.55178   0.08951   0.70977   0.00000  Uiso   1.00
O270   O     0.99103   0.40981   0.69565   0.00000  Uiso   1.00
N271   N     0.41305   0.52726   0.86727   0.00000  Uiso   1.00
N272   N     0.47051   0.14132   0.74634   0.00000  Uiso   1.00
N273   N     0.07092   0.36955   0.73627   0.00000  Uiso   1.00
N274   N     0.45268   0.58881   0.82395   0.00000  Uiso   1.00
N275   N     0.51014   0.20287   0.70302   0.00000  Uiso   1.00
N276   N     0.11056   0.43109   0.69295   0.00000  Uiso   1.00
C277   C     0.18534   0.15934   0.28712   0.00000  Uiso   1.00
C278   C     0.14855   0.09287   0.29862   0.00000  Uiso   1.00
C279   C     0.13968   0.07127   0.33243   0.00000  Uiso   1.00
C280   C     0.10456   0.00889   0.33759   0.00000  Uiso   1.00
C281   C     0.05125   0.91167   0.35966   0.00000  Uiso   1.00
C282   C     0.13270   0.19923   0.26529   0.00000  Uiso   1.00
C283   C     0.11052   0.26707   0.27108   0.00000  Uiso   1.00
C284   C     0.06206   0.29422   0.24818   0.00000  Uiso   1.00
C285   C     0.98419   0.36216   0.21850   0.00000  Uiso   1.00
C286   C     0.24283   0.13633   0.26252   0.00000  Uiso   1.00
C287   C     0.31324   0.15128   0.26597   0.00000  Uiso   1.00
C288   C     0.35750   0.12549   0.24073   0.00000  Uiso   1.00
C289   C     0.45061   0.09575   0.20674   0.00000  Uiso   1.00
C290   C     0.13874   0.08696   0.23617   0.00000  Uiso   1.00
C291   C     0.12323   0.05356   0.27095   0.00000  Uiso   1.00
C292   C     0.08812   0.99119   0.27606   0.00000  Uiso   1.00
C293   C     0.07920   0.96950   0.30986   0.00000  Uiso   1.00
C294   C     0.10739   0.15992   0.23762   0.00000  Uiso   1.00
C295   C     0.05895   0.18699   0.21471   0.00000  Uiso   1.00
C296   C     0.03670   0.25484   0.22046   0.00000  Uiso   1.00
C297   C     0.21751   0.09701   0.23485   0.00000  Uiso   1.00
C298   C     0.26167   0.07120   0.20960   0.00000  Uiso   1.00
C299   C     0.33214   0.08610   0.21301   0.00000  Uiso   1.00
H300   H     0.20505   0.18995   0.30866   0.00000  Uiso   1.00
H301   H     0.15928   0.10171   0.35383   0.00000  Uiso   1.00
H302   H     0.13012   0.29748   0.29249   0.00000  Uiso   1.00
H303   H     0.33281   0.18170   0.28739   0.00000  Uiso   1.00
H304   H     0.09734   0.98655   0.39171   0.00000  Uiso   1.00
H305   H     0.03589   0.39935   0.26236   0.00000  Uiso   1.00
H306   H     0.46330   0.15522   0.25160   0.00000  Uiso   1.00
H307   H     0.11903   0.05636   0.21462   0.00000  Uiso   1.00
H308   H     0.06853   0.96078   0.25464   0.00000  Uiso   1.00
H309   H     0.03938   0.15655   0.19329   0.00000  Uiso   1.00
H310   H     0.24207   0.04078   0.18819   0.00000  Uiso   1.00
H311   H     0.02369   0.87217   0.31120   0.00000  Uiso   1.00
H312   H     0.96224   0.28497   0.18185   0.00000  Uiso   1.00
H313   H     0.38965   0.04084   0.17108   0.00000  Uiso   1.00
O314   O     0.02883   0.86891   0.37948   0.00000  Uiso   1.00
O315   O     0.94822   0.41049   0.20977   0.00000  Uiso   1.00
O316   O     0.50897   0.09019   0.19565   0.00000  Uiso   1.00
N317   N     0.08695   0.97274   0.36727   0.00000  Uiso   1.00
N318   N     0.02949   0.35868   0.24634   0.00000  Uiso   1.00
N319   N     0.42908   0.13045   0.23627   0.00000  Uiso   1.00
N320   N     0.04732   0.91119   0.32395   0.00000  Uiso   1.00
N321   N     0.98986   0.29713   0.20302   0.00000  Uiso   1.00
N322   N     0.38944   0.06891   0.19295   0.00000  Uiso   1.00
C323   C     0.68534   0.65934   0.78712   0.00000  Uiso   1.00
C324   C     0.64855   0.59287   0.79862   0.00000  Uiso   1.00
C325   C     0.63968   0.57127   0.83243   0.00000  Uiso   1.00
C326   C     0.60456   0.50889   0.83759   0.00000  Uiso   1.00
C327   C     0.55125   0.41167   0.85966   0.00000  Uiso   1.00
C328   C     0.63270   0.69923   0.76529   0.00000  Uiso   1.00
C329   C     0.61052   0.76707   0.77108   0.00000  Uiso   1.00
C330   C     0.56206   0.79422   0.74818   0.00000  Uiso   1.00
C331   C     0.48419   0.86216   0.71850   0.00000  Uiso   1.00
C332   C     0.74283   0.63633   0.76252   0.00000  Uiso   1.00
C333   C     0.81324   0.65128   0.76597   0.00000  Uiso   1.00
C334   C     0.85750   0.62549   0.74073   0.00000  Uiso   1.00
C335   C     0.95061   0.59575   0.70674   0.00000  Uiso   1.00
C336   C     0.63874   0.58696   0.73617   0.00000  Uiso   1.00
C337   C     0.62323   0.55356   0.77095   0.00000  Uiso   1.00
C338   C     0.58812   0.49119   0.77606   0.00000  Uiso   1.00
C339   C     0.57920   0.46950   0.80986   0.00000  Uiso   1.00
C340   C     0.60739   0.65992   0.73762   0.00000  Uiso   1.00
C341   C     0.55895   0.68699   0.71471   0.00000  Uiso   1.00
C342   C     0.53670   0.75484   0.72046   0.00000  Uiso   1.00
C343   C     0.71751   0.59701   0.73485   0.00000  Uiso   1.00
C344   C     0.76167   0.57120   0.70960   0.00000  Uiso   1.00
C345   C     0.83214   0.58610   0.71301   0.00000  Uiso   1.00
H346   H     0.70505   0.68995   0.80866   0.00000  Uiso   1.00
H347   H     0.65928   0.60171   0.85383   0.00000  Uiso   1.00
H348   H     0.63012   0.79748   0.79249   0.00000  Uiso   1.00
H349   H     0.83281   0.68170   0.78739   0.00000  Uiso   1.00
H350   H     0.59734   0.48655   0.89171   0.00000  Uiso   1.00
H351   H     0.53589   0.89935   0.76236   0.00000  Uiso   1.00
H352   H     0.96330   0.65522   0.75160   0.00000  Uiso   1.00
H353   H     0.61903   0.55636   0.71462   0.00000  Uiso   1.00
H354   H     0.56853   0.46078   0.75464   0.00000  Uiso   1.00
H355   H     0.53938   0.65655   0.69329   0.00000  Uiso   1.00
H356   H     0.74207   0.54078   0.68819   0.00000  Uiso   1.00
H357   H     0.52369   0.37217   0.81120   0.00000  Uiso   1.00
H358   H     0.46224   0.78497   0.68185   0.00000  Uiso   1.00
H359   H     0.88965   0.54084   0.67108   0.00000  Uiso   1.00
O360   O     0.52883   0.36891   0.87948   0.00000  Uiso   1.00
O361   O     0.44822   0.91049   0.70977   0.00000  Uiso   1.00
O362   O     0.00897   0.59019   0.69565   0.00000  Uiso   1.00
N363   N     0.58695   0.47274   0.86727   0.00000  Uiso   1.00
N364   N     0.52949   0.85868   0.74634   0.00000  Uiso   1.00
N365   N     0.92908   0.63045   0.73627   0.00000  Uiso   1.00
N366   N     0.54732   0.41119   0.82395   0.00000  Uiso   1.00
N367   N     0.48986   0.79713   0.70302   0.00000  Uiso   1.00
N368   N     0.88944   0.56891   0.69295   0.00000  Uiso   1.00
C369   C     0.34066   0.81466   0.03712   0.00000  Uiso   1.00
C370   C     0.40713   0.85145   0.04862   0.00000  Uiso   1.00
C371   C     0.42873   0.86032   0.08243   0.00000  Uiso   1.00
C372   C     0.49111   0.89544   0.08759   0.00000  Uiso   1.00
C373   C     0.58833   0.94875   0.10966   0.00000  Uiso   1.00
C374   C     0.30077   0.86730   0.01529   0.00000  Uiso   1.00
C375   C     0.23293   0.88948   0.02108   0.00000  Uiso   1.00
C376   C     0.20578   0.93794   0.99818   0.00000  Uiso   1.00
C377   C     0.13784   0.01581   0.96850   0.00000  Uiso   1.00
C378   C     0.36367   0.75717   0.01252   0.00000  Uiso   1.00
C379   C     0.34872   0.68676   0.01597   0.00000  Uiso   1.00
C380   C     0.37451   0.64250   0.99073   0.00000  Uiso   1.00
C381   C     0.40425   0.54939   0.95674   0.00000  Uiso   1.00
C382   C     0.41304   0.86126   0.98617   0.00000  Uiso   1.00
C383   C     0.44644   0.87677   0.02095   0.00000  Uiso   1.00
C384   C     0.50881   0.91188   0.02606   0.00000  Uiso   1.00
C385   C     0.53050   0.92080   0.05986   0.00000  Uiso   1.00
C386   C     0.34008   0.89261   0.98762   0.00000  Uiso   1.00
C387   C     0.31301   0.94105   0.96471   0.00000  Uiso   1.00
C388   C     0.24516   0.96330   0.97046   0.00000  Uiso   1.00
C389   C     0.40299   0.78249   0.98485   0.00000  Uiso   1.00
C390   C     0.42880   0.73833   0.95960   0.00000  Uiso   1.00
C391   C     0.41390   0.66786   0.96301   0.00000  Uiso   1.00
H392   H     0.31005   0.79495   0.05866   0.00000  Uiso   1.00
H393   H     0.39829   0.84072   0.10383   0.00000  Uiso   1.00
H394   H     0.20252   0.86988   0.04249   0.00000  Uiso   1.00
H395   H     0.31830   0.66719   0.03739   0.00000  Uiso   1.00
H396   H     0.51345   0.90266   0.14171   0.00000  Uiso   1.00
H397   H     0.10065   0.96411   0.01236   0.00000  Uiso   1.00
H398   H     0.34478   0.53670   0.00160   0.00000  Uiso   1.00
H399   H     0.44364   0.88097   0.96462   0.00000  Uiso   1.00
H400   H     0.53922   0.93147   0.00464   0.00000  Uiso   1.00
H401   H     0.34345   0.96062   0.94329   0.00000  Uiso   1.00
H402   H     0.45922   0.75793   0.93819   0.00000  Uiso   1.00
H403   H     0.62783   0.97631   0.06120   0.00000  Uiso   1.00
H404   H     0.21503   0.03776   0.93185   0.00000  Uiso   1.00
H405   H     0.45916   0.61035   0.92108   0.00000  Uiso   1.00
O406   O     0.63109   0.97117   0.12948   0.00000  Uiso   1.00
O407   O     0.08951   0.05178   0.95977   0.00000  Uiso   1.00
O408   O     0.40981   0.49103   0.94565   0.00000  Uiso   1.00
N409   N     0.52726   0.91305   0.11727   0.00000  Uiso   1.00
N410   N     0.14132   0.97051   0.99634   0.00000  Uiso   1.00
N411   N     0.36955   0.57092   0.98627   0.00000  Uiso   1.00
N412   N     0.58881   0.95268   0.07395   0.00000  Uiso   1.00
N413   N     0.20287   0.01014   0.95302   0.00000  Uiso   1.00
N414   N     0.43109   0.61056   0.94295   0.00000  Uiso   1.00
C415   C     0.84066   0.31466   0.53712   0.00000  Uiso   1.00
C416   C     0.90713   0.35145   0.54862   0.00000  Uiso   1.00
C417   C     0.92873   0.36032   0.58243   0.00000  Uiso   1.00
C418   C     0.99111   0.39544   0.58759   0.00000  Uiso   1.00
C419   C     0.08833   0.44875   0.60966   0.00000  Uiso   1.00
C420   C     0.80077   0.36730   0.51529   0.00000  Uiso   1.00
C421   C     0.73293   0.38948   0.52108   0.00000  Uiso   1.00
C422   C     0.70578   0.43794   0.49818   0.00000  Uiso   1.00
C423   C     0.63784   0.51581   0.46850   0.00000  Uiso   1.00
C424   C     0.86367   0.25717   0.51252   0.00000  Uiso   1.00
C425   C     0.84872   0.18676   0.51597   0.00000  Uiso   1.00
C426   C     0.87451   0.14250   0.49073   0.00000  Uiso   1.00
C427   C     0.90425   0.04939   0.45674   0.00000  Uiso   1.00
C428   C     0.91304   0.36126   0.48617   0.00000  Uiso   1.00
C429   C     0.94644   0.37677   0.52095   0.00000  Uiso   1.00
C430   C     0.00881   0.41188   0.52606   0.00000  Uiso   1.00
C431   C     0.03050   0.42080   0.55986   0.00000  Uiso   1.00
C432   C     0.84008   0.39261   0.48762   0.00000  Uiso   1.00
C433   C     0.81301   0.44105   0.46471   0.00000  Uiso   1.00
C434   C     0.74516   0.46330   0.47046   0.00000  Uiso   1.00
C435   C     0.90299   0.28249   0.48485   0.00000  Uiso   1.00
C436   C     0.92880   0.23833   0.45960   0.00000  Uiso   1.00
C437   C     0.91390   0.16786   0.46301   0.00000  Uiso   1.00
H438   H     0.81005   0.29495   0.55866   0.00000  Uiso   1.00
H439   H     0.89829   0.34072   0.60383   0.00000  Uiso   1.00
H440   H     0.70252   0.36988   0.54249   0.00000  Uiso   1.00
H441   H     0.81830   0.16719   0.53739   0.00000  Uiso   1.00
H442   H     0.01345   0.40266   0.64171   0.00000  Uiso   1.00
H443   H     0.60065   0.46411   0.51236   0.00000  Uiso   1.00
H444   H     0.84478   0.03670   0.50160   0.00000  Uiso   1.00
H445   H     0.94364   0.38097   0.46462   0.00000  Uiso   1.00
H446   H     0.03922   0.43147   0.50464   0.00000  Uiso   1.00
H447   H     0.84345   0.46062   0.44329   0.00000  Uiso   1.00
H448   H     0.95922   0.25793   0.43819   0.00000  Uiso   1.00
H449   H     0.12783   0.47631   0.56120   0.00000  Uiso   1.00
H450   H     0.71503   0.53776   0.43185   0.00000  Uiso   1.00
H451   H     0.95916   0.11035   0.42108   0.00000  Uiso   1.00
O452   O     0.13109   0.47117   0.62948   0.00000  Uiso   1.00
O453   O     0.58951   0.55178   0.45977   0.00000  Uiso   1.00
O454   O     0.90981   0.99103   0.44565   0.00000  Uiso   1.00
N455   N     0.02726   0.41305   0.61727   0.00000  Uiso   1.00
N456   N     0.64132   0.47051   0.49634   0.00000  Uiso   1.00
N457   N     0.86955   0.07092   0.48627   0.00000  Uiso   1.00
N458   N     0.08881   0.45268   0.57395   0.00000  Uiso   1.00
N459   N     0.70287   0.51014   0.45302   0.00000  Uiso   1.00
N460   N     0.93109   0.11056   0.44295   0.00000  Uiso   1.00
C461   C     0.65934   0.18534   0.03712   0.00000  Uiso   1.00
C462   C     0.59287   0.14855   0.04862   0.00000  Uiso   1.00
C463   C     0.57127   0.13968   0.08243   0.00000  Uiso   1.00
C464   C     0.50889   0.10456   0.08759   0.00000  Uiso   1.00
C465   C     0.41167   0.05125   0.10966   0.00000  Uiso   1.00
C466   C     0.69923   0.13270   0.01529   0.00000  Uiso   1.00
C467   C     0.76707   0.11052   0.02108   0.00000  Uiso   1.00
C468   C     0.79422   0.06206   0.99818   0.00000  Uiso   1.00
C469   C     0.86216   0.98419   0.96850   0.00000  Uiso   1.00
C470   C     0.63633   0.24283   0.01252   0.00000  Uiso   1.00
C471   C     0.65128   0.31324   0.01597   0.00000  Uiso   1.00
C472   C     0.62549   0.35750   0.99073   0.00000  Uiso   1.00
C473   C     0.59575   0.45061   0.95674   0.00000  Uiso   1.00
C474   C     0.58696   0.13874   0.98617   0.00000  Uiso   1.00
C475   C     0.55356   0.12323   0.02095   0.00000  Uiso   1.00
C476   C     0.49119   0.08812   0.02606   0.00000  Uiso   1.00
C477   C     0.46950   0.07920   0.05986   0.00000  Uiso   1.00
C478   C     0.65992   0.10739   0.98762   0.00000  Uiso   1.00
C479   C     0.68699   0.05895   0.96471   0.00000  Uiso   1.00
C480   C     0.75484   0.03670   0.97046   0.00000  Uiso   1.00
C481   C     0.59701   0.21751   0.98485   0.00000  Uiso   1.00
C482   C     0.57120   0.26167   0.95960   0.00000  Uiso   1.00
C483   C     0.58610   0.33214   0.96301   0.00000  Uiso   1.00
H484   H     0.68995   0.20505   0.05866   0.00000  Uiso   1.00
H485   H     0.60171   0.15928   0.10383   0.00000  Uiso   1.00
H486   H     0.79748   0.13012   0.04249   0.00000  Uiso   1.00
H487   H     0.68170   0.33281   0.03739   0.00000  Uiso   1.00
H488   H     0.48655   0.09734   0.14171   0.00000  Uiso   1.00
H489   H     0.89935   0.03589   0.01236   0.00000  Uiso   1.00
H490   H     0.65522   0.46330   0.00160   0.00000  Uiso   1.00
H491   H     0.55636   0.11903   0.96462   0.00000  Uiso   1.00
H492   H     0.46078   0.06853   0.00464   0.00000  Uiso   1.00
H493   H     0.65655   0.03938   0.94329   0.00000  Uiso   1.00
H494   H     0.54078   0.24207   0.93819   0.00000  Uiso   1.00
H495   H     0.37217   0.02369   0.06120   0.00000  Uiso   1.00
H496   H     0.78497   0.96224   0.93185   0.00000  Uiso   1.00
H497   H     0.54084   0.38965   0.92108   0.00000  Uiso   1.00
O498   O     0.36891   0.02883   0.12948   0.00000  Uiso   1.00
O499   O     0.91049   0.94822   0.95977   0.00000  Uiso   1.00
O500   O     0.59019   0.50897   0.94565   0.00000  Uiso   1.00
N501   N     0.47274   0.08695   0.11727   0.00000  Uiso   1.00
N502   N     0.85868   0.02949   0.99634   0.00000  Uiso   1.00
N503   N     0.63045   0.42908   0.98627   0.00000  Uiso   1.00
N504   N     0.41119   0.04732   0.07395   0.00000  Uiso   1.00
N505   N     0.79713   0.98986   0.95302   0.00000  Uiso   1.00
N506   N     0.56891   0.38944   0.94295   0.00000  Uiso   1.00
C507   C     0.15934   0.68534   0.53712   0.00000  Uiso   1.00
C508   C     0.09287   0.64855   0.54862   0.00000  Uiso   1.00
C509   C     0.07127   0.63968   0.58243   0.00000  Uiso   1.00
C510   C     0.00889   0.60456   0.58759   0.00000  Uiso   1.00
C511   C     0.91167   0.55125   0.60966   0.00000  Uiso   1.00
C512   C     0.19923   0.63270   0.51529   0.00000  Uiso   1.00
C513   C     0.26707   0.61052   0.52108   0.00000  Uiso   1.00
C514   C     0.29422   0.56206   0.49818   0.00000  Uiso   1.00
C515   C     0.36216   0.48419   0.46850   0.00000  Uiso   1.00
C516   C     0.13633   0.74283   0.51252   0.00000  Uiso   1.00
C517   C     0.15128   0.81324   0.51597   0.00000  Uiso   1.00
C518   C     0.12549   0.85750   0.49073   0.00000  Uiso   1.00
C519   C     0.09575   0.95061   0.45674   0.00000  Uiso   1.00
C520   C     0.08696   0.63874   0.48617   0.00000  Uiso   1.00
C521   C     0.05356   0.62323   0.52095   0.00000  Uiso   1.00
C522   C     0.99119   0.58812   0.52606   0.00000  Uiso   1.00
C523   C     0.96950   0.57920   0.55986   0.00000  Uiso   1.00
C524   C     0.15992   0.60739   0.48762   0.00000  Uiso   1.00
C525   C     0.18699   0.55895   0.46471   0.00000  Uiso   1.00
C526   C     0.25484   0.53670   0.47046   0.00000  Uiso   1.00
C527   C     0.09701   0.71751   0.48485   0.00000  Uiso   1.00
C528   C     0.07120   0.76167   0.45960   0.00000  Uiso   1.00
C529   C     0.08610   0.83214   0.46301   0.00000  Uiso   1.00
H530   H     0.18995   0.70505   0.55866   0.00000  Uiso   1.00
H531   H     0.10171   0.65928   0.60383   0.00000  Uiso   1.00
H532   H     0.29748   0.63012   0.54249   0.00000  Uiso   1.00
H533   H     0.18170   0.83281   0.53739   0.00000  Uiso   1.00
H534   H     0.98655   0.59734   0.64171   0.00000  Uiso   1.00
H535   H     0.39935   0.53589   0.51236   0.00000  Uiso   1.00
H536   H     0.15522   0.96330   0.50160   0.00000  Uiso   1.00
H537   H     0.05636   0.61903   0.46462   0.00000  Uiso   1.00
H538   H     0.96078   0.56853   0.50464   0.00000  Uiso   1.00
H539   H     0.15655   0.53938   0.44329   0.00000  Uiso   1.00
H540   H     0.04078   0.74207   0.43819   0.00000  Uiso   1.00
H541   H     0.87217   0.52369   0.56120   0.00000  Uiso   1.00
H542   H     0.28497   0.46224   0.43185   0.00000  Uiso   1.00
H543   H     0.04084   0.88965   0.42108   0.00000  Uiso   1.00
O544   O     0.86891   0.52883   0.62948   0.00000  Uiso   1.00
O545   O     0.41049   0.44822   0.45977   0.00000  Uiso   1.00
O546   O     0.09019   0.00897   0.44565   0.00000  Uiso   1.00
N547   N     0.97274   0.58695   0.61727   0.00000  Uiso   1.00
N548   N     0.35868   0.52949   0.49634   0.00000  Uiso   1.00
N549   N     0.13045   0.92908   0.48627   0.00000  Uiso   1.00
N550   N     0.91119   0.54732   0.57395   0.00000  Uiso   1.00
N551   N     0.29713   0.48986   0.45302   0.00000  Uiso   1.00
N552   N     0.06891   0.88944   0.44295   0.00000  Uiso   1.00
C553   C     0.68534   0.84066   0.46288   0.00000  Uiso   1.00
C554   C     0.64855   0.90713   0.45138   0.00000  Uiso   1.00
C555   C     0.63968   0.92873   0.41757   0.00000  Uiso   1.00
C556   C     0.60456   0.99111   0.41241   0.00000  Uiso   1.00
C557   C     0.55125   0.08833   0.39034   0.00000  Uiso   1.00
C558   C     0.63270   0.80077   0.48471   0.00000  Uiso   1.00
C559   C     0.61052   0.73293   0.47892   0.00000  Uiso   1.00
C560   C     0.56206   0.70578   0.50182   0.00000  Uiso   1.00
C561   C     0.48419   0.63784   0.53150   0.00000  Uiso   1.00
C562   C     0.74283   0.86367   0.48748   0.00000  Uiso   1.00
C563   C     0.81324   0.84872   0.48403   0.00000  Uiso   1.00
C564   C     0.85750   0.87451   0.50927   0.00000  Uiso   1.00
C565   C     0.95061   0.90425   0.54326   0.00000  Uiso   1.00
C566   C     0.63874   0.91304   0.51383   0.00000  Uiso   1.00
C567   C     0.62323   0.94644   0.47905   0.00000  Uiso   1.00
C568   C     0.58812   0.00881   0.47394   0.00000  Uiso   1.00
C569   C     0.57920   0.03050   0.44014   0.00000  Uiso   1.00
C570   C     0.60739   0.84008   0.51238   0.00000  Uiso   1.00
C571   C     0.55895   0.81301   0.53529   0.00000  Uiso   1.00
C572   C     0.53670   0.74516   0.52954   0.00000  Uiso   1.00
C573   C     0.71751   0.90299   0.51515   0.00000  Uiso   1.00
C574   C     0.76167   0.92880   0.54040   0.00000  Uiso   1.00
C575   C     0.83214   0.91390   0.53699   0.00000  Uiso   1.00
H576   H     0.70505   0.81005   0.44134   0.00000  Uiso   1.00
H577   H     0.65928   0.89829   0.39617   0.00000  Uiso   1.00
H578   H     0.63012   0.70252   0.45751   0.00000  Uiso   1.00
H579   H     0.83281   0.81830   0.46261   0.00000  Uiso   1.00
H580   H     0.59734   0.01345   0.35829   0.00000  Uiso   1.00
H581   H     0.53589   0.60065   0.48764   0.00000  Uiso   1.00
H582   H     0.96330   0.84478   0.49840   0.00000  Uiso   1.00
H583   H     0.61903   0.94364   0.53538   0.00000  Uiso   1.00
H584   H     0.56853   0.03922   0.49536   0.00000  Uiso   1.00
H585   H     0.53938   0.84345   0.55671   0.00000  Uiso   1.00
H586   H     0.74207   0.95922   0.56181   0.00000  Uiso   1.00
H587   H     0.52369   0.12783   0.43880   0.00000  Uiso   1.00
H588   H     0.46224   0.71503   0.56815   0.00000  Uiso   1.00
H589   H     0.88965   0.95916   0.57892   0.00000  Uiso   1.00
O590   O     0.52883   0.13109   0.37052   0.00000  Uiso   1.00
O591   O     0.44822   0.58951   0.54023   0.00000  Uiso   1.00
O592   O     0.00897   0.90981   0.55435   0.00000  Uiso   1.00
N593   N     0.58695   0.02726   0.38273   0.00000  Uiso   1.00
N594   N     0.52949   0.64132   0.50366   0.00000  Uiso   1.00
N595   N     0.92908   0.86955   0.51373   0.00000  Uiso   1.00
N596   N     0.54732   0.08881   0.42605   0.00000  Uiso   1.00
N597   N     0.48986   0.70287   0.54698   0.00000  Uiso   1.00
N598   N     0.88944   0.93109   0.55705   0.00000  Uiso   1.00
C599   C     0.18534   0.34066   0.96288   0.00000  Uiso   1.00
C600   C     0.14855   0.40713   0.95138   0.00000  Uiso   1.00
C601   C     0.13968   0.42873   0.91757   0.00000  Uiso   1.00
C602   C     0.10456   0.49111   0.91241   0.00000  Uiso   1.00
C603   C     0.05125   0.58833   0.89034   0.00000  Uiso   1.00
C604   C     0.13270   0.30077   0.98471   0.00000  Uiso   1.00
C605   C     0.11052   0.23293   0.97892   0.00000  Uiso   1.00
C606   C     0.06206   0.20578   0.00182   0.00000  Uiso   1.00
C607   C     0.98419   0.13784   0.03150   0.00000  Uiso   1.00
C608   C     0.24283   0.36367   0.98748   0.00000  Uiso   1.00
C609   C     0.31324   0.34872   0.98403   0.00000  Uiso   1.00
C610   C     0.35750   0.37451   0.00927   0.00000  Uiso   1.00
C611   C     0.45061   0.40425   0.04326   0.00000  Uiso   1.00
C612   C     0.13874   0.41304   0.01383   0.00000  Uiso   1.00
C613   C     0.12323   0.44644   0.97905   0.00000  Uiso   1.00
C614   C     0.08812   0.50881   0.97394   0.00000  Uiso   1.00
C615   C     0.07920   0.53050   0.94014   0.00000  Uiso   1.00
C616   C     0.10739   0.34008   0.01238   0.00000  Uiso   1.00
C617   C     0.05895   0.31301   0.03529   0.00000  Uiso   1.00
C618   C     0.03670   0.24516   0.02954   0.00000  Uiso   1.00
C619   C     0.21751   0.40299   0.01515   0.00000  Uiso   1.00
C620   C     0.26167   0.42880   0.04040   0.00000  Uiso   1.00
C621   C     0.33214   0.41390   0.03699   0.00000  Uiso   1.00
H622   H     0.20505   0.31005   0.94134   0.00000  Uiso   1.00
H623   H     0.15928   0.39829   0.89617   0.00000  Uiso   1.00
H624   H     0.13012   0.20252   0.95751   0.00000  Uiso   1.00
H625   H     0.33281   0.31830   0.96261   0.00000  Uiso   1.00
H626   H     0.09734   0.51345   0.85829   0.00000  Uiso   1.00
H627   H     0.03589   0.10065   0.98764   0.00000  Uiso   1.00
H628   H     0.46330   0.34478   0.99840   0.00000  Uiso   1.00
H629   H     0.11903   0.44364   0.03538   0.00000  Uiso   1.00
H630   H     0.06853   0.53922   0.99536   0.00000  Uiso   1.00
H631   H     0.03938   0.34345   0.05671   0.00000  Uiso   1.00
H632   H     0.24207   0.45922   0.06181   0.00000  Uiso   1.00
H633   H     0.02369   0.62783   0.93880   0.00000  Uiso   1.00
H634   H     0.96224   0.21503   0.06815   0.00000  Uiso   1.00
H635   H     0.38965   0.45916   0.07892   0.00000  Uiso   1.00
O636   O     0.02883   0.63109   0.87052   0.00000  Uiso   1.00
O637   O     0.94822   0.08951   0.04023   0.00000  Uiso   1.00
O638   O     0.50897   0.40981   0.05435   0.00000  Uiso   1.00
N639   N     0.08695   0.52726   0.88273   0.00000  Uiso   1.00
N640   N     0.02949   0.14132   0.00366   0.00000  Uiso   1.00
N641   N     0.42908   0.36955   0.01373   0.00000  Uiso   1.00
N642   N     0.04732   0.58881   0.92605   0.00000  Uiso   1.00
N643   N     0.98986   0.20287   0.04698   0.00000  Uiso   1.00
N644   N     0.38944   0.43109   0.05705   0.00000  Uiso   1.00
C645   C     0.31466   0.15934   0.46288   0.00000  Uiso   1.00
C646   C     0.35145   0.09287   0.45138   0.00000  Uiso   1.00
C647   C     0.36032   0.07127   0.41757   0.00000  Uiso   1.00
C648   C     0.39544   0.00889   0.41241   0.00000  Uiso   1.00
C649   C     0.44875   0.91167   0.39034   0.00000  Uiso   1.00
C650   C     0.36730   0.19923   0.48471   0.00000  Uiso   1.00
C651   C     0.38948   0.26707   0.47892   0.00000  Uiso   1.00
C652   C     0.43794   0.29422   0.50182   0.00000  Uiso   1.00
C653   C     0.51581   0.36216   0.53150   0.00000  Uiso   1.00
C654   C     0.25717   0.13633   0.48748   0.00000  Uiso   1.00
C655   C     0.18676   0.15128   0.48403   0.00000  Uiso   1.00
C656   C     0.14250   0.12549   0.50927   0.00000  Uiso   1.00
C657   C     0.04939   0.09575   0.54326   0.00000  Uiso   1.00
C658   C     0.36126   0.08696   0.51383   0.00000  Uiso   1.00
C659   C     0.37677   0.05356   0.47905   0.00000  Uiso   1.00
C660   C     0.41188   0.99119   0.47394   0.00000  Uiso   1.00
C661   C     0.42080   0.96950   0.44014   0.00000  Uiso   1.00
C662   C     0.39261   0.15992   0.51238   0.00000  Uiso   1.00
C663   C     0.44105   0.18699   0.53529   0.00000  Uiso   1.00
C664   C     0.46330   0.25484   0.52954   0.00000  Uiso   1.00
C665   C     0.28249   0.09701   0.51515   0.00000  Uiso   1.00
C666   C     0.23833   0.07120   0.54040   0.00000  Uiso   1.00
C667   C     0.16786   0.08610   0.53699   0.00000  Uiso   1.00
H668   H     0.29495   0.18995   0.44134   0.00000  Uiso   1.00
H669   H     0.34072   0.10171   0.39617   0.00000  Uiso   1.00
H670   H     0.36988   0.29748   0.45751   0.00000  Uiso   1.00
H671   H     0.16719   0.18170   0.46261   0.00000  Uiso   1.00
H672   H     0.40266   0.98655   0.35829   0.00000  Uiso   1.00
H673   H     0.46411   0.39935   0.48764   0.00000  Uiso   1.00
H674   H     0.03670   0.15522   0.49840   0.00000  Uiso   1.00
H675   H     0.38097   0.05636   0.53538   0.00000  Uiso   1.00
H676   H     0.43147   0.96078   0.49536   0.00000  Uiso   1.00
H677   H     0.46062   0.15655   0.55671   0.00000  Uiso   1.00
H678   H     0.25793   0.04078   0.56181   0.00000  Uiso   1.00
H679   H     0.47631   0.87217   0.43880   0.00000  Uiso   1.00
H680   H     0.53776   0.28497   0.56815   0.00000  Uiso   1.00
H681   H     0.11035   0.04084   0.57892   0.00000  Uiso   1.00
O682   O     0.47117   0.86891   0.37052   0.00000  Uiso   1.00
O683   O     0.55178   0.41049   0.54023   0.00000  Uiso   1.00
O684   O     0.99103   0.09019   0.55435   0.00000  Uiso   1.00
N685   N     0.41305   0.97274   0.38273   0.00000  Uiso   1.00
N686   N     0.47051   0.35868   0.50366   0.00000  Uiso   1.00
N687   N     0.07092   0.13045   0.51373   0.00000  Uiso   1.00
N688   N     0.45268   0.91119   0.42605   0.00000  Uiso   1.00
N689   N     0.51014   0.29713   0.54698   0.00000  Uiso   1.00
N690   N     0.11056   0.06891   0.55705   0.00000  Uiso   1.00
C691   C     0.81466   0.65934   0.96288   0.00000  Uiso   1.00
C692   C     0.85145   0.59287   0.95138   0.00000  Uiso   1.00
C693   C     0.86032   0.57127   0.91757   0.00000  Uiso   1.00
C694   C     0.89544   0.50889   0.91241   0.00000  Uiso   1.00
C695   C     0.94875   0.41167   0.89034   0.00000  Uiso   1.00
C696   C     0.86730   0.69923   0.98471   0.00000  Uiso   1.00
C697   C     0.88948   0.76707   0.97892   0.00000  Uiso   1.00
C698   C     0.93794   0.79422   0.00182   0.00000  Uiso   1.00
C699   C     0.01581   0.86216   0.03150   0.00000  Uiso   1.00
C700   C     0.75717   0.63633   0.98748   0.00000  Uiso   1.00
C701   C     0.68676   0.65128   0.98403   0.00000  Uiso   1.00
C702   C     0.64250   0.62549   0.00927   0.00000  Uiso   1.00
C703   C     0.54939   0.59575   0.04326   0.00000  Uiso   1.00
C704   C     0.86126   0.58696   0.01383   0.00000  Uiso   1.00
C705   C     0.87677   0.55356   0.97905   0.00000  Uiso   1.00
C706   C     0.91188   0.49119   0.97394   0.00000  Uiso   1.00
C707   C     0.92080   0.46950   0.94014   0.00000  Uiso   1.00
C708   C     0.89261   0.65992   0.01238   0.00000  Uiso   1.00
C709   C     0.94105   0.68699   0.03529   0.00000  Uiso   1.00
C710   C     0.96330   0.75484   0.02954   0.00000  Uiso   1.00
C711   C     0.78249   0.59701   0.01515   0.00000  Uiso   1.00
C712   C     0.73833   0.57120   0.04040   0.00000  Uiso   1.00
C713   C     0.66786   0.58610   0.03699   0.00000  Uiso   1.00
H714   H     0.79495   0.68995   0.94134   0.00000  Uiso   1.00
H715   H     0.84072   0.60171   0.89617   0.00000  Uiso   1.00
H716   H     0.86988   0.79748   0.95751   0.00000  Uiso   1.00
H717   H     0.66719   0.68170   0.96261   0.00000  Uiso   1.00
H718   H     0.90266   0.48655   0.85829   0.00000  Uiso   1.00
H719   H     0.96411   0.89935   0.98764   0.00000  Uiso   1.00
H720   H     0.53670   0.65522   0.99840   0.00000  Uiso   1.00
H721   H     0.88097   0.55636   0.03538   0.00000  Uiso   1.00
H722   H     0.93147   0.46078   0.99536   0.00000  Uiso   1.00
H723   H     0.96062   0.65655   0.05671   0.00000  Uiso   1.00
H724   H     0.75793   0.54078   0.06181   0.00000  Uiso   1.00
H725   H     0.97631   0.37217   0.93880   0.00000  Uiso   1.00
H726   H     0.03776   0.78497   0.06815   0.00000  Uiso   1.00
H727   H     0.61035   0.54084   0.07892   0.00000  Uiso   1.00
O728   O     0.97117   0.36891   0.87052   0.00000  Uiso   1.00
O729   O     0.05178   0.91049   0.04023   0.00000  Uiso   1.00
O730   O     0.49103   0.59019   0.05435   0.00000  Uiso   1.00
N731   N     0.91305   0.47274   0.88273   0.00000  Uiso   1.00
N732   N     0.97051   0.85868   0.00366   0.00000  Uiso   1.00
N733   N     0.57092   0.63045   0.01373   0.00000  Uiso   1.00
N734   N     0.95268   0.41119   0.92605   0.00000  Uiso   1.00
N735   N     0.01014   0.79713   0.04698   0.00000  Uiso   1.00
N736   N     0.61056   0.56891   0.05705   0.00000  Uiso   1.00
