data_job_01757
_audit_creation_date              2018-12-19
_audit_creation_method            'Materials Studio'
_symmetry_space_group_name_H-M    'P1'
_symmetry_Int_Tables_number       1
_symmetry_cell_setting            triclinic
loop_
_symmetry_equiv_pos_as_xyz
  x,y,z
_cell_length_a                    15.1481
_cell_length_b                    33.0916
_cell_length_c                    21.8584
_cell_angle_alpha                 90.0000
_cell_angle_beta                  90.0000
_cell_angle_gamma                 90.0000
loop_
_atom_site_label
_atom_site_type_symbol
_atom_site_fract_x
_atom_site_fract_y
_atom_site_fract_z
_atom_site_U_iso_or_equiv
_atom_site_adp_type
_atom_site_occupancy
C1     C     0.13149   0.18062   0.38602   0.00000  Uiso   1.00
C2     C     0.03401   0.16913   0.38522   0.00000  Uiso   1.00
C3     C     0.96670   0.19137   0.35836   0.00000  Uiso   1.00
C4     C     0.88189   0.17572   0.36261   0.00000  Uiso   1.00
C5     C     0.73307   0.16345   0.35682   0.00000  Uiso   1.00
C6     C     0.15856   0.18149   0.45321   0.00000  Uiso   1.00
C7     C     0.19599   0.21412   0.48350   0.00000  Uiso   1.00
C8     C     0.21604   0.20887   0.54497   0.00000  Uiso   1.00
C9     C     0.26066   0.21578   0.64472   0.00000  Uiso   1.00
C10    C     0.18069   0.14510   0.35754   0.00000  Uiso   1.00
C11    C     0.23675   0.14713   0.30742   0.00000  Uiso   1.00
C12    C     0.27544   0.11124   0.28836   0.00000  Uiso   1.00
C13    C     0.35442   0.06164   0.23957   0.00000  Uiso   1.00
C14    C     0.10055   0.11327   0.44132   0.00000  Uiso   1.00
C15    C     0.01721   0.13255   0.41526   0.00000  Uiso   1.00
C16    C     0.93247   0.11686   0.41954   0.00000  Uiso   1.00
C17    C     0.86505   0.13907   0.39269   0.00000  Uiso   1.00
C18    C     0.14176   0.14491   0.48324   0.00000  Uiso   1.00
C19    C     0.16176   0.13961   0.54468   0.00000  Uiso   1.00
C20    C     0.19920   0.17222   0.57506   0.00000  Uiso   1.00
C21    C     0.16389   0.10851   0.38758   0.00000  Uiso   1.00
C22    C     0.20251   0.07261   0.36859   0.00000  Uiso   1.00
C23    C     0.25861   0.07459   0.31844   0.00000  Uiso   1.00
H24    H     0.14457   0.20910   0.36265   0.00000  Uiso   1.00
H25    H     0.97973   0.21968   0.33513   0.00000  Uiso   1.00
H26    H     0.20899   0.24243   0.46025   0.00000  Uiso   1.00
H27    H     0.24974   0.17544   0.28419   0.00000  Uiso   1.00
H28    H     0.78956   0.21529   0.31789   0.00000  Uiso   1.00
H29    H     0.27300   0.26324   0.58170   0.00000  Uiso   1.00
H30    H     0.35892   0.12199   0.21044   0.00000  Uiso   1.00
H31    H     0.08747   0.08479   0.46470   0.00000  Uiso   1.00
H32    H     0.91949   0.08855   0.44278   0.00000  Uiso   1.00
H33    H     0.14875   0.11129   0.56790   0.00000  Uiso   1.00
H34    H     0.18950   0.04431   0.39184   0.00000  Uiso   1.00
H35    H     0.74066   0.10885   0.40527   0.00000  Uiso   1.00
H36    H     0.22411   0.15681   0.66908   0.00000  Uiso   1.00
H37    H     0.31002   0.01556   0.29782   0.00000  Uiso   1.00
O38    O     0.65563   0.16679   0.34534   0.00000  Uiso   1.00
O39    O     0.28990   0.22970   0.69144   0.00000  Uiso   1.00
O40    O     0.40262   0.04439   0.20436   0.00000  Uiso   1.00
N41    N     0.80110   0.18972   0.34145   0.00000  Uiso   1.00
N42    N     0.25308   0.23455   0.58810   0.00000  Uiso   1.00
N43    N     0.33343   0.10250   0.24102   0.00000  Uiso   1.00
N44    N     0.77479   0.13244   0.38847   0.00000  Uiso   1.00
N45    N     0.22677   0.17728   0.63512   0.00000  Uiso   1.00
N46    N     0.30712   0.04523   0.28803   0.00000  Uiso   1.00
C47    C     0.95889   0.32160   0.11675   0.00000  Uiso   1.00
C48    C     0.86003   0.33019   0.11892   0.00000  Uiso   1.00
C49    C     0.79676   0.30594   0.14651   0.00000  Uiso   1.00
C50    C     0.70981   0.31906   0.14350   0.00000  Uiso   1.00
C51    C     0.55977   0.32689   0.15135   0.00000  Uiso   1.00
C52    C     0.98414   0.32170   0.04921   0.00000  Uiso   1.00
C53    C     0.02523   0.29031   0.01818   0.00000  Uiso   1.00
C54    C     0.04277   0.29629   0.95650   0.00000  Uiso   1.00
C55    C     0.08547   0.29095   0.85613   0.00000  Uiso   1.00
C56    C     0.00377   0.35844   0.14483   0.00000  Uiso   1.00
C57    C     0.06139   0.35795   0.19419   0.00000  Uiso   1.00
C58    C     0.09547   0.39487   0.21299   0.00000  Uiso   1.00
C59    C     0.16864   0.44658   0.26109   0.00000  Uiso   1.00
C60    C     0.91698   0.38803   0.06237   0.00000  Uiso   1.00
C61    C     0.83727   0.36626   0.08939   0.00000  Uiso   1.00
C62    C     0.75039   0.37943   0.08634   0.00000  Uiso   1.00
C63    C     0.68701   0.35520   0.11392   0.00000  Uiso   1.00
C64    C     0.96138   0.35777   0.01967   0.00000  Uiso   1.00
C65    C     0.97887   0.36380   0.95802   0.00000  Uiso   1.00
C66    C     0.01997   0.33243   0.92691   0.00000  Uiso   1.00
C67    C     0.98101   0.39452   0.11529   0.00000  Uiso   1.00
C68    C     0.01501   0.43144   0.13402   0.00000  Uiso   1.00
C69    C     0.07266   0.43101   0.18340   0.00000  Uiso   1.00
H70    H     0.97661   0.29351   0.13974   0.00000  Uiso   1.00
H71    H     0.81441   0.27801   0.16935   0.00000  Uiso   1.00
H72    H     0.04285   0.26240   0.04105   0.00000  Uiso   1.00
H73    H     0.07899   0.33003   0.21703   0.00000  Uiso   1.00
H74    H     0.62453   0.27674   0.18915   0.00000  Uiso   1.00
H75    H     0.10624   0.24381   0.91862   0.00000  Uiso   1.00
H76    H     0.18245   0.38642   0.28970   0.00000  Uiso   1.00
H77    H     0.89926   0.41612   0.03937   0.00000  Uiso   1.00
H78    H     0.73280   0.40735   0.06348   0.00000  Uiso   1.00
H79    H     0.96124   0.39173   0.93518   0.00000  Uiso   1.00
H80    H     0.99738   0.45936   0.11116   0.00000  Uiso   1.00
H81    H     0.55829   0.38171   0.10321   0.00000  Uiso   1.00
H82    H     0.04001   0.34878   0.83269   0.00000  Uiso   1.00
H83    H     0.11621   0.49139   0.20377   0.00000  Uiso   1.00
O84    O     0.48330   0.32124   0.16384   0.00000  Uiso   1.00
O85    O     0.11531   0.27804   0.80893   0.00000  Uiso   1.00
O86    O     0.21528   0.46514   0.29578   0.00000  Uiso   1.00
N87    N     0.63178   0.30265   0.16562   0.00000  Uiso   1.00
N88    N     0.08214   0.27186   0.91270   0.00000  Uiso   1.00
N89    N     0.15341   0.40519   0.25962   0.00000  Uiso   1.00
N90    N     0.59614   0.35914   0.11939   0.00000  Uiso   1.00
N91    N     0.04650   0.32834   0.86646   0.00000  Uiso   1.00
N92    N     0.11777   0.46167   0.21338   0.00000  Uiso   1.00
C93    C     0.36851   0.31938   0.88602   0.00000  Uiso   1.00
C94    C     0.46599   0.33087   0.88522   0.00000  Uiso   1.00
C95    C     0.53330   0.30863   0.85836   0.00000  Uiso   1.00
C96    C     0.61811   0.32428   0.86261   0.00000  Uiso   1.00
C97    C     0.76693   0.33655   0.85682   0.00000  Uiso   1.00
C98    C     0.34144   0.31851   0.95321   0.00000  Uiso   1.00
C99    C     0.30401   0.28588   0.98350   0.00000  Uiso   1.00
C100   C     0.28396   0.29113   0.04497   0.00000  Uiso   1.00
C101   C     0.23934   0.28422   0.14472   0.00000  Uiso   1.00
C102   C     0.31931   0.35490   0.85754   0.00000  Uiso   1.00
C103   C     0.26325   0.35287   0.80742   0.00000  Uiso   1.00
C104   C     0.22456   0.38876   0.78836   0.00000  Uiso   1.00
C105   C     0.14558   0.43836   0.73957   0.00000  Uiso   1.00
C106   C     0.39945   0.38673   0.94132   0.00000  Uiso   1.00
C107   C     0.48279   0.36745   0.91526   0.00000  Uiso   1.00
C108   C     0.56753   0.38314   0.91954   0.00000  Uiso   1.00
C109   C     0.63495   0.36093   0.89269   0.00000  Uiso   1.00
C110   C     0.35824   0.35509   0.98324   0.00000  Uiso   1.00
C111   C     0.33824   0.36039   0.04468   0.00000  Uiso   1.00
C112   C     0.30080   0.32778   0.07506   0.00000  Uiso   1.00
C113   C     0.33611   0.39149   0.88758   0.00000  Uiso   1.00
C114   C     0.29749   0.42739   0.86859   0.00000  Uiso   1.00
C115   C     0.24139   0.42541   0.81844   0.00000  Uiso   1.00
H116   H     0.35543   0.29090   0.86265   0.00000  Uiso   1.00
H117   H     0.52027   0.28032   0.83513   0.00000  Uiso   1.00
H118   H     0.29101   0.25757   0.96025   0.00000  Uiso   1.00
H119   H     0.25026   0.32456   0.78419   0.00000  Uiso   1.00
H120   H     0.71044   0.28471   0.81789   0.00000  Uiso   1.00
H121   H     0.22700   0.23676   0.08170   0.00000  Uiso   1.00
H122   H     0.14108   0.37801   0.71044   0.00000  Uiso   1.00
H123   H     0.41253   0.41521   0.96470   0.00000  Uiso   1.00
H124   H     0.58051   0.41145   0.94278   0.00000  Uiso   1.00
H125   H     0.35125   0.38871   0.06790   0.00000  Uiso   1.00
H126   H     0.31050   0.45569   0.89184   0.00000  Uiso   1.00
H127   H     0.75934   0.39115   0.90527   0.00000  Uiso   1.00
H128   H     0.27589   0.34319   0.16908   0.00000  Uiso   1.00
H129   H     0.18998   0.48444   0.79782   0.00000  Uiso   1.00
O130   O     0.84437   0.33321   0.84534   0.00000  Uiso   1.00
O131   O     0.21010   0.27030   0.19144   0.00000  Uiso   1.00
O132   O     0.09738   0.45561   0.70436   0.00000  Uiso   1.00
N133   N     0.69890   0.31028   0.84145   0.00000  Uiso   1.00
N134   N     0.24692   0.26545   0.08810   0.00000  Uiso   1.00
N135   N     0.16657   0.39750   0.74102   0.00000  Uiso   1.00
N136   N     0.72521   0.36756   0.88847   0.00000  Uiso   1.00
N137   N     0.27323   0.32272   0.13512   0.00000  Uiso   1.00
N138   N     0.19288   0.45477   0.78803   0.00000  Uiso   1.00
C139   C     0.54111   0.17840   0.61675   0.00000  Uiso   1.00
C140   C     0.63997   0.16981   0.61892   0.00000  Uiso   1.00
C141   C     0.70324   0.19406   0.64651   0.00000  Uiso   1.00
C142   C     0.79019   0.18094   0.64350   0.00000  Uiso   1.00
C143   C     0.94023   0.17311   0.65135   0.00000  Uiso   1.00
C144   C     0.51586   0.17830   0.54921   0.00000  Uiso   1.00
C145   C     0.47477   0.20969   0.51818   0.00000  Uiso   1.00
C146   C     0.45723   0.20371   0.45650   0.00000  Uiso   1.00
C147   C     0.41453   0.20905   0.35613   0.00000  Uiso   1.00
C148   C     0.49623   0.14156   0.64483   0.00000  Uiso   1.00
C149   C     0.43861   0.14205   0.69419   0.00000  Uiso   1.00
C150   C     0.40453   0.10513   0.71299   0.00000  Uiso   1.00
C151   C     0.33136   0.05342   0.76109   0.00000  Uiso   1.00
C152   C     0.58302   0.11197   0.56237   0.00000  Uiso   1.00
C153   C     0.66273   0.13374   0.58939   0.00000  Uiso   1.00
C154   C     0.74961   0.12057   0.58634   0.00000  Uiso   1.00
C155   C     0.81299   0.14480   0.61392   0.00000  Uiso   1.00
C156   C     0.53862   0.14223   0.51967   0.00000  Uiso   1.00
C157   C     0.52113   0.13620   0.45802   0.00000  Uiso   1.00
C158   C     0.48003   0.16757   0.42691   0.00000  Uiso   1.00
C159   C     0.51899   0.10548   0.61529   0.00000  Uiso   1.00
C160   C     0.48499   0.06856   0.63402   0.00000  Uiso   1.00
C161   C     0.42734   0.06899   0.68340   0.00000  Uiso   1.00
H162   H     0.52339   0.20649   0.63974   0.00000  Uiso   1.00
H163   H     0.68559   0.22199   0.66935   0.00000  Uiso   1.00
H164   H     0.45715   0.23760   0.54105   0.00000  Uiso   1.00
H165   H     0.42101   0.16997   0.71703   0.00000  Uiso   1.00
H166   H     0.87547   0.22326   0.68915   0.00000  Uiso   1.00
H167   H     0.39376   0.25619   0.41862   0.00000  Uiso   1.00
H168   H     0.31755   0.11358   0.78970   0.00000  Uiso   1.00
H169   H     0.60074   0.08388   0.53937   0.00000  Uiso   1.00
H170   H     0.76720   0.09265   0.56348   0.00000  Uiso   1.00
H171   H     0.53876   0.10827   0.43518   0.00000  Uiso   1.00
H172   H     0.50262   0.04064   0.61116   0.00000  Uiso   1.00
H173   H     0.94171   0.11829   0.60321   0.00000  Uiso   1.00
H174   H     0.45999   0.15122   0.33269   0.00000  Uiso   1.00
H175   H     0.38379   0.00861   0.70377   0.00000  Uiso   1.00
O176   O     0.01670   0.17876   0.66384   0.00000  Uiso   1.00
O177   O     0.38469   0.22196   0.30893   0.00000  Uiso   1.00
O178   O     0.28472   0.03486   0.79578   0.00000  Uiso   1.00
N179   N     0.86822   0.19735   0.66562   0.00000  Uiso   1.00
N180   N     0.41786   0.22814   0.41270   0.00000  Uiso   1.00
N181   N     0.34659   0.09481   0.75962   0.00000  Uiso   1.00
N182   N     0.90386   0.14086   0.61939   0.00000  Uiso   1.00
N183   N     0.45350   0.17166   0.36646   0.00000  Uiso   1.00
N184   N     0.38223   0.03833   0.71338   0.00000  Uiso   1.00
C185   C     0.86851   0.18062   0.11398   0.00000  Uiso   1.00
C186   C     0.96599   0.16913   0.11478   0.00000  Uiso   1.00
C187   C     0.03330   0.19137   0.14164   0.00000  Uiso   1.00
C188   C     0.11811   0.17572   0.13739   0.00000  Uiso   1.00
C189   C     0.26693   0.16345   0.14318   0.00000  Uiso   1.00
C190   C     0.84144   0.18149   0.04679   0.00000  Uiso   1.00
C191   C     0.80401   0.21412   0.01650   0.00000  Uiso   1.00
C192   C     0.78396   0.20887   0.95503   0.00000  Uiso   1.00
C193   C     0.73934   0.21578   0.85528   0.00000  Uiso   1.00
C194   C     0.81931   0.14510   0.14246   0.00000  Uiso   1.00
C195   C     0.76325   0.14713   0.19258   0.00000  Uiso   1.00
C196   C     0.72456   0.11124   0.21164   0.00000  Uiso   1.00
C197   C     0.64558   0.06164   0.26043   0.00000  Uiso   1.00
C198   C     0.89945   0.11327   0.05868   0.00000  Uiso   1.00
C199   C     0.98279   0.13255   0.08474   0.00000  Uiso   1.00
C200   C     0.06753   0.11686   0.08046   0.00000  Uiso   1.00
C201   C     0.13495   0.13907   0.10731   0.00000  Uiso   1.00
C202   C     0.85824   0.14491   0.01676   0.00000  Uiso   1.00
C203   C     0.83824   0.13961   0.95532   0.00000  Uiso   1.00
C204   C     0.80080   0.17222   0.92494   0.00000  Uiso   1.00
C205   C     0.83611   0.10851   0.11242   0.00000  Uiso   1.00
C206   C     0.79749   0.07261   0.13141   0.00000  Uiso   1.00
C207   C     0.74139   0.07459   0.18156   0.00000  Uiso   1.00
H208   H     0.85543   0.20910   0.13735   0.00000  Uiso   1.00
H209   H     0.02027   0.21968   0.16487   0.00000  Uiso   1.00
H210   H     0.79101   0.24243   0.03975   0.00000  Uiso   1.00
H211   H     0.75026   0.17544   0.21581   0.00000  Uiso   1.00
H212   H     0.21044   0.21529   0.18211   0.00000  Uiso   1.00
H213   H     0.72700   0.26324   0.91830   0.00000  Uiso   1.00
H214   H     0.64108   0.12199   0.28956   0.00000  Uiso   1.00
H215   H     0.91253   0.08479   0.03530   0.00000  Uiso   1.00
H216   H     0.08051   0.08855   0.05722   0.00000  Uiso   1.00
H217   H     0.85125   0.11129   0.93210   0.00000  Uiso   1.00
H218   H     0.81050   0.04431   0.10816   0.00000  Uiso   1.00
H219   H     0.25934   0.10885   0.09473   0.00000  Uiso   1.00
H220   H     0.77589   0.15681   0.83092   0.00000  Uiso   1.00
H221   H     0.68998   0.01556   0.20218   0.00000  Uiso   1.00
O222   O     0.34437   0.16679   0.15466   0.00000  Uiso   1.00
O223   O     0.71010   0.22970   0.80856   0.00000  Uiso   1.00
O224   O     0.59738   0.04439   0.29564   0.00000  Uiso   1.00
N225   N     0.19890   0.18972   0.15855   0.00000  Uiso   1.00
N226   N     0.74692   0.23455   0.91190   0.00000  Uiso   1.00
N227   N     0.66657   0.10250   0.25898   0.00000  Uiso   1.00
N228   N     0.22521   0.13244   0.11153   0.00000  Uiso   1.00
N229   N     0.77323   0.17728   0.86488   0.00000  Uiso   1.00
N230   N     0.69288   0.04523   0.21197   0.00000  Uiso   1.00
C231   C     0.04111   0.32160   0.38325   0.00000  Uiso   1.00
C232   C     0.13997   0.33019   0.38108   0.00000  Uiso   1.00
C233   C     0.20324   0.30594   0.35349   0.00000  Uiso   1.00
C234   C     0.29019   0.31906   0.35650   0.00000  Uiso   1.00
C235   C     0.44023   0.32689   0.34865   0.00000  Uiso   1.00
C236   C     0.01586   0.32170   0.45079   0.00000  Uiso   1.00
C237   C     0.97477   0.29031   0.48182   0.00000  Uiso   1.00
C238   C     0.95723   0.29629   0.54350   0.00000  Uiso   1.00
C239   C     0.91453   0.29095   0.64387   0.00000  Uiso   1.00
C240   C     0.99623   0.35844   0.35517   0.00000  Uiso   1.00
C241   C     0.93861   0.35795   0.30581   0.00000  Uiso   1.00
C242   C     0.90453   0.39487   0.28701   0.00000  Uiso   1.00
C243   C     0.83136   0.44658   0.23891   0.00000  Uiso   1.00
C244   C     0.08302   0.38803   0.43763   0.00000  Uiso   1.00
C245   C     0.16273   0.36626   0.41061   0.00000  Uiso   1.00
C246   C     0.24961   0.37943   0.41366   0.00000  Uiso   1.00
C247   C     0.31299   0.35520   0.38608   0.00000  Uiso   1.00
C248   C     0.03862   0.35777   0.48033   0.00000  Uiso   1.00
C249   C     0.02113   0.36380   0.54198   0.00000  Uiso   1.00
C250   C     0.98003   0.33243   0.57309   0.00000  Uiso   1.00
C251   C     0.01899   0.39452   0.38471   0.00000  Uiso   1.00
C252   C     0.98499   0.43144   0.36598   0.00000  Uiso   1.00
C253   C     0.92734   0.43101   0.31660   0.00000  Uiso   1.00
H254   H     0.02339   0.29351   0.36026   0.00000  Uiso   1.00
H255   H     0.18559   0.27801   0.33065   0.00000  Uiso   1.00
H256   H     0.95715   0.26240   0.45895   0.00000  Uiso   1.00
H257   H     0.92101   0.33003   0.28297   0.00000  Uiso   1.00
H258   H     0.37547   0.27674   0.31085   0.00000  Uiso   1.00
H259   H     0.89376   0.24381   0.58138   0.00000  Uiso   1.00
H260   H     0.81755   0.38642   0.21030   0.00000  Uiso   1.00
H261   H     0.10074   0.41612   0.46063   0.00000  Uiso   1.00
H262   H     0.26720   0.40735   0.43652   0.00000  Uiso   1.00
H263   H     0.03876   0.39173   0.56482   0.00000  Uiso   1.00
H264   H     0.00262   0.45936   0.38884   0.00000  Uiso   1.00
H265   H     0.44171   0.38171   0.39679   0.00000  Uiso   1.00
H266   H     0.95999   0.34878   0.66731   0.00000  Uiso   1.00
H267   H     0.88379   0.49139   0.29623   0.00000  Uiso   1.00
O268   O     0.51670   0.32124   0.33616   0.00000  Uiso   1.00
O269   O     0.88469   0.27804   0.69107   0.00000  Uiso   1.00
O270   O     0.78472   0.46514   0.20422   0.00000  Uiso   1.00
N271   N     0.36822   0.30265   0.33438   0.00000  Uiso   1.00
N272   N     0.91786   0.27186   0.58730   0.00000  Uiso   1.00
N273   N     0.84659   0.40519   0.24038   0.00000  Uiso   1.00
N274   N     0.40386   0.35914   0.38061   0.00000  Uiso   1.00
N275   N     0.95350   0.32834   0.63354   0.00000  Uiso   1.00
N276   N     0.88223   0.46167   0.28662   0.00000  Uiso   1.00
C277   C     0.63149   0.31938   0.61398   0.00000  Uiso   1.00
C278   C     0.53401   0.33087   0.61478   0.00000  Uiso   1.00
C279   C     0.46670   0.30863   0.64164   0.00000  Uiso   1.00
C280   C     0.38189   0.32428   0.63739   0.00000  Uiso   1.00
C281   C     0.23307   0.33655   0.64318   0.00000  Uiso   1.00
C282   C     0.65856   0.31851   0.54679   0.00000  Uiso   1.00
C283   C     0.69599   0.28588   0.51650   0.00000  Uiso   1.00
C284   C     0.71604   0.29113   0.45503   0.00000  Uiso   1.00
C285   C     0.76066   0.28422   0.35528   0.00000  Uiso   1.00
C286   C     0.68069   0.35490   0.64246   0.00000  Uiso   1.00
C287   C     0.73675   0.35287   0.69258   0.00000  Uiso   1.00
C288   C     0.77544   0.38876   0.71164   0.00000  Uiso   1.00
C289   C     0.85442   0.43836   0.76043   0.00000  Uiso   1.00
C290   C     0.60055   0.38673   0.55868   0.00000  Uiso   1.00
C291   C     0.51721   0.36745   0.58474   0.00000  Uiso   1.00
C292   C     0.43247   0.38314   0.58046   0.00000  Uiso   1.00
C293   C     0.36505   0.36093   0.60731   0.00000  Uiso   1.00
C294   C     0.64176   0.35509   0.51676   0.00000  Uiso   1.00
C295   C     0.66176   0.36039   0.45532   0.00000  Uiso   1.00
C296   C     0.69920   0.32778   0.42494   0.00000  Uiso   1.00
C297   C     0.66389   0.39149   0.61242   0.00000  Uiso   1.00
C298   C     0.70251   0.42739   0.63141   0.00000  Uiso   1.00
C299   C     0.75861   0.42541   0.68156   0.00000  Uiso   1.00
H300   H     0.64457   0.29090   0.63735   0.00000  Uiso   1.00
H301   H     0.47973   0.28032   0.66487   0.00000  Uiso   1.00
H302   H     0.70899   0.25757   0.53975   0.00000  Uiso   1.00
H303   H     0.74974   0.32456   0.71581   0.00000  Uiso   1.00
H304   H     0.28956   0.28471   0.68211   0.00000  Uiso   1.00
H305   H     0.77300   0.23676   0.41830   0.00000  Uiso   1.00
H306   H     0.85892   0.37801   0.78956   0.00000  Uiso   1.00
H307   H     0.58747   0.41521   0.53530   0.00000  Uiso   1.00
H308   H     0.41949   0.41145   0.55722   0.00000  Uiso   1.00
H309   H     0.64875   0.38871   0.43210   0.00000  Uiso   1.00
H310   H     0.68950   0.45569   0.60816   0.00000  Uiso   1.00
H311   H     0.24066   0.39115   0.59473   0.00000  Uiso   1.00
H312   H     0.72411   0.34319   0.33092   0.00000  Uiso   1.00
H313   H     0.81002   0.48444   0.70218   0.00000  Uiso   1.00
O314   O     0.15563   0.33321   0.65466   0.00000  Uiso   1.00
O315   O     0.78990   0.27030   0.30856   0.00000  Uiso   1.00
O316   O     0.90262   0.45561   0.79564   0.00000  Uiso   1.00
N317   N     0.30110   0.31028   0.65855   0.00000  Uiso   1.00
N318   N     0.75308   0.26545   0.41190   0.00000  Uiso   1.00
N319   N     0.83343   0.39750   0.75898   0.00000  Uiso   1.00
N320   N     0.27479   0.36756   0.61153   0.00000  Uiso   1.00
N321   N     0.72677   0.32272   0.36488   0.00000  Uiso   1.00
N322   N     0.80712   0.45477   0.71197   0.00000  Uiso   1.00
C323   C     0.45889   0.17840   0.88325   0.00000  Uiso   1.00
C324   C     0.36003   0.16981   0.88108   0.00000  Uiso   1.00
C325   C     0.29676   0.19406   0.85349   0.00000  Uiso   1.00
C326   C     0.20981   0.18094   0.85650   0.00000  Uiso   1.00
C327   C     0.05977   0.17311   0.84865   0.00000  Uiso   1.00
C328   C     0.48414   0.17830   0.95079   0.00000  Uiso   1.00
C329   C     0.52523   0.20969   0.98182   0.00000  Uiso   1.00
C330   C     0.54277   0.20371   0.04350   0.00000  Uiso   1.00
C331   C     0.58547   0.20905   0.14387   0.00000  Uiso   1.00
C332   C     0.50377   0.14156   0.85517   0.00000  Uiso   1.00
C333   C     0.56139   0.14205   0.80581   0.00000  Uiso   1.00
C334   C     0.59547   0.10513   0.78701   0.00000  Uiso   1.00
C335   C     0.66864   0.05342   0.73891   0.00000  Uiso   1.00
C336   C     0.41698   0.11197   0.93763   0.00000  Uiso   1.00
C337   C     0.33727   0.13374   0.91061   0.00000  Uiso   1.00
C338   C     0.25039   0.12057   0.91366   0.00000  Uiso   1.00
C339   C     0.18701   0.14480   0.88608   0.00000  Uiso   1.00
C340   C     0.46138   0.14223   0.98033   0.00000  Uiso   1.00
C341   C     0.47887   0.13620   0.04198   0.00000  Uiso   1.00
C342   C     0.51997   0.16757   0.07309   0.00000  Uiso   1.00
C343   C     0.48101   0.10548   0.88471   0.00000  Uiso   1.00
C344   C     0.51501   0.06856   0.86598   0.00000  Uiso   1.00
C345   C     0.57266   0.06899   0.81660   0.00000  Uiso   1.00
H346   H     0.47661   0.20649   0.86026   0.00000  Uiso   1.00
H347   H     0.31441   0.22199   0.83065   0.00000  Uiso   1.00
H348   H     0.54285   0.23760   0.95895   0.00000  Uiso   1.00
H349   H     0.57899   0.16997   0.78297   0.00000  Uiso   1.00
H350   H     0.12453   0.22326   0.81085   0.00000  Uiso   1.00
H351   H     0.60624   0.25619   0.08138   0.00000  Uiso   1.00
H352   H     0.68245   0.11358   0.71030   0.00000  Uiso   1.00
H353   H     0.39926   0.08388   0.96063   0.00000  Uiso   1.00
H354   H     0.23280   0.09265   0.93652   0.00000  Uiso   1.00
H355   H     0.46124   0.10827   0.06482   0.00000  Uiso   1.00
H356   H     0.49738   0.04064   0.88884   0.00000  Uiso   1.00
H357   H     0.05829   0.11829   0.89679   0.00000  Uiso   1.00
H358   H     0.54001   0.15122   0.16731   0.00000  Uiso   1.00
H359   H     0.61621   0.00861   0.79623   0.00000  Uiso   1.00
O360   O     0.98330   0.17876   0.83616   0.00000  Uiso   1.00
O361   O     0.61531   0.22196   0.19107   0.00000  Uiso   1.00
O362   O     0.71528   0.03486   0.70422   0.00000  Uiso   1.00
N363   N     0.13178   0.19735   0.83438   0.00000  Uiso   1.00
N364   N     0.58214   0.22814   0.08730   0.00000  Uiso   1.00
N365   N     0.65341   0.09481   0.74038   0.00000  Uiso   1.00
N366   N     0.09614   0.14086   0.88061   0.00000  Uiso   1.00
N367   N     0.54650   0.17166   0.13354   0.00000  Uiso   1.00
N368   N     0.61777   0.03833   0.78662   0.00000  Uiso   1.00
C369   C     0.86851   0.81938   0.61398   0.00000  Uiso   1.00
C370   C     0.96599   0.83087   0.61478   0.00000  Uiso   1.00
C371   C     0.03330   0.80863   0.64164   0.00000  Uiso   1.00
C372   C     0.11811   0.82428   0.63739   0.00000  Uiso   1.00
C373   C     0.26693   0.83655   0.64318   0.00000  Uiso   1.00
C374   C     0.84144   0.81851   0.54679   0.00000  Uiso   1.00
C375   C     0.80401   0.78588   0.51650   0.00000  Uiso   1.00
C376   C     0.78396   0.79113   0.45503   0.00000  Uiso   1.00
C377   C     0.73934   0.78422   0.35528   0.00000  Uiso   1.00
C378   C     0.81931   0.85490   0.64246   0.00000  Uiso   1.00
C379   C     0.76325   0.85287   0.69258   0.00000  Uiso   1.00
C380   C     0.72456   0.88876   0.71164   0.00000  Uiso   1.00
C381   C     0.64558   0.93836   0.76043   0.00000  Uiso   1.00
C382   C     0.89945   0.88673   0.55868   0.00000  Uiso   1.00
C383   C     0.98279   0.86745   0.58474   0.00000  Uiso   1.00
C384   C     0.06753   0.88314   0.58046   0.00000  Uiso   1.00
C385   C     0.13495   0.86093   0.60731   0.00000  Uiso   1.00
C386   C     0.85824   0.85509   0.51676   0.00000  Uiso   1.00
C387   C     0.83824   0.86039   0.45532   0.00000  Uiso   1.00
C388   C     0.80080   0.82778   0.42494   0.00000  Uiso   1.00
C389   C     0.83611   0.89149   0.61242   0.00000  Uiso   1.00
C390   C     0.79749   0.92739   0.63141   0.00000  Uiso   1.00
C391   C     0.74139   0.92541   0.68156   0.00000  Uiso   1.00
H392   H     0.85543   0.79090   0.63735   0.00000  Uiso   1.00
H393   H     0.02027   0.78032   0.66487   0.00000  Uiso   1.00
H394   H     0.79101   0.75757   0.53975   0.00000  Uiso   1.00
H395   H     0.75026   0.82456   0.71581   0.00000  Uiso   1.00
H396   H     0.21044   0.78471   0.68211   0.00000  Uiso   1.00
H397   H     0.72700   0.73676   0.41830   0.00000  Uiso   1.00
H398   H     0.64108   0.87801   0.78956   0.00000  Uiso   1.00
H399   H     0.91253   0.91521   0.53530   0.00000  Uiso   1.00
H400   H     0.08051   0.91145   0.55722   0.00000  Uiso   1.00
H401   H     0.85125   0.88871   0.43210   0.00000  Uiso   1.00
H402   H     0.81050   0.95569   0.60816   0.00000  Uiso   1.00
H403   H     0.25934   0.89115   0.59473   0.00000  Uiso   1.00
H404   H     0.77589   0.84319   0.33092   0.00000  Uiso   1.00
H405   H     0.68998   0.98444   0.70218   0.00000  Uiso   1.00
O406   O     0.34437   0.83321   0.65466   0.00000  Uiso   1.00
O407   O     0.71010   0.77030   0.30856   0.00000  Uiso   1.00
O408   O     0.59738   0.95561   0.79564   0.00000  Uiso   1.00
N409   N     0.19890   0.81028   0.65855   0.00000  Uiso   1.00
N410   N     0.74692   0.76545   0.41190   0.00000  Uiso   1.00
N411   N     0.66657   0.89750   0.75898   0.00000  Uiso   1.00
N412   N     0.22521   0.86756   0.61153   0.00000  Uiso   1.00
N413   N     0.77323   0.82272   0.36488   0.00000  Uiso   1.00
N414   N     0.69288   0.95477   0.71197   0.00000  Uiso   1.00
C415   C     0.04111   0.67840   0.88325   0.00000  Uiso   1.00
C416   C     0.13997   0.66981   0.88108   0.00000  Uiso   1.00
C417   C     0.20324   0.69406   0.85349   0.00000  Uiso   1.00
C418   C     0.29019   0.68094   0.85650   0.00000  Uiso   1.00
C419   C     0.44023   0.67311   0.84865   0.00000  Uiso   1.00
C420   C     0.01586   0.67830   0.95079   0.00000  Uiso   1.00
C421   C     0.97477   0.70969   0.98182   0.00000  Uiso   1.00
C422   C     0.95723   0.70371   0.04350   0.00000  Uiso   1.00
C423   C     0.91453   0.70905   0.14387   0.00000  Uiso   1.00
C424   C     0.99623   0.64156   0.85517   0.00000  Uiso   1.00
C425   C     0.93861   0.64205   0.80581   0.00000  Uiso   1.00
C426   C     0.90453   0.60513   0.78701   0.00000  Uiso   1.00
C427   C     0.83136   0.55342   0.73891   0.00000  Uiso   1.00
C428   C     0.08302   0.61197   0.93763   0.00000  Uiso   1.00
C429   C     0.16273   0.63374   0.91061   0.00000  Uiso   1.00
C430   C     0.24961   0.62057   0.91366   0.00000  Uiso   1.00
C431   C     0.31299   0.64480   0.88608   0.00000  Uiso   1.00
C432   C     0.03862   0.64223   0.98033   0.00000  Uiso   1.00
C433   C     0.02113   0.63620   0.04198   0.00000  Uiso   1.00
C434   C     0.98003   0.66757   0.07309   0.00000  Uiso   1.00
C435   C     0.01899   0.60548   0.88471   0.00000  Uiso   1.00
C436   C     0.98499   0.56856   0.86598   0.00000  Uiso   1.00
C437   C     0.92734   0.56899   0.81660   0.00000  Uiso   1.00
H438   H     0.02339   0.70649   0.86026   0.00000  Uiso   1.00
H439   H     0.18559   0.72199   0.83065   0.00000  Uiso   1.00
H440   H     0.95715   0.73760   0.95895   0.00000  Uiso   1.00
H441   H     0.92101   0.66997   0.78297   0.00000  Uiso   1.00
H442   H     0.37547   0.72326   0.81085   0.00000  Uiso   1.00
H443   H     0.89376   0.75619   0.08138   0.00000  Uiso   1.00
H444   H     0.81755   0.61358   0.71030   0.00000  Uiso   1.00
H445   H     0.10074   0.58388   0.96063   0.00000  Uiso   1.00
H446   H     0.26720   0.59265   0.93652   0.00000  Uiso   1.00
H447   H     0.03876   0.60827   0.06482   0.00000  Uiso   1.00
H448   H     0.00262   0.54064   0.88884   0.00000  Uiso   1.00
H449   H     0.44171   0.61829   0.89679   0.00000  Uiso   1.00
H450   H     0.95999   0.65122   0.16731   0.00000  Uiso   1.00
H451   H     0.88379   0.50861   0.79623   0.00000  Uiso   1.00
O452   O     0.51670   0.67876   0.83616   0.00000  Uiso   1.00
O453   O     0.88469   0.72196   0.19107   0.00000  Uiso   1.00
O454   O     0.78472   0.53486   0.70422   0.00000  Uiso   1.00
N455   N     0.36822   0.69735   0.83438   0.00000  Uiso   1.00
N456   N     0.91786   0.72814   0.08730   0.00000  Uiso   1.00
N457   N     0.84659   0.59481   0.74038   0.00000  Uiso   1.00
N458   N     0.40386   0.64086   0.88061   0.00000  Uiso   1.00
N459   N     0.95350   0.67166   0.13354   0.00000  Uiso   1.00
N460   N     0.88223   0.53833   0.78662   0.00000  Uiso   1.00
C461   C     0.63149   0.68062   0.11398   0.00000  Uiso   1.00
C462   C     0.53401   0.66913   0.11478   0.00000  Uiso   1.00
C463   C     0.46670   0.69137   0.14164   0.00000  Uiso   1.00
C464   C     0.38189   0.67572   0.13739   0.00000  Uiso   1.00
C465   C     0.23307   0.66345   0.14318   0.00000  Uiso   1.00
C466   C     0.65856   0.68149   0.04679   0.00000  Uiso   1.00
C467   C     0.69599   0.71412   0.01650   0.00000  Uiso   1.00
C468   C     0.71604   0.70887   0.95503   0.00000  Uiso   1.00
C469   C     0.76066   0.71578   0.85528   0.00000  Uiso   1.00
C470   C     0.68069   0.64510   0.14246   0.00000  Uiso   1.00
C471   C     0.73675   0.64713   0.19258   0.00000  Uiso   1.00
C472   C     0.77544   0.61124   0.21164   0.00000  Uiso   1.00
C473   C     0.85442   0.56164   0.26043   0.00000  Uiso   1.00
C474   C     0.60055   0.61327   0.05868   0.00000  Uiso   1.00
C475   C     0.51721   0.63255   0.08474   0.00000  Uiso   1.00
C476   C     0.43247   0.61686   0.08046   0.00000  Uiso   1.00
C477   C     0.36505   0.63907   0.10731   0.00000  Uiso   1.00
C478   C     0.64176   0.64491   0.01676   0.00000  Uiso   1.00
C479   C     0.66176   0.63961   0.95532   0.00000  Uiso   1.00
C480   C     0.69920   0.67222   0.92494   0.00000  Uiso   1.00
C481   C     0.66389   0.60851   0.11242   0.00000  Uiso   1.00
C482   C     0.70251   0.57261   0.13141   0.00000  Uiso   1.00
C483   C     0.75861   0.57459   0.18156   0.00000  Uiso   1.00
H484   H     0.64457   0.70910   0.13735   0.00000  Uiso   1.00
H485   H     0.47973   0.71968   0.16487   0.00000  Uiso   1.00
H486   H     0.70899   0.74243   0.03975   0.00000  Uiso   1.00
H487   H     0.74974   0.67544   0.21581   0.00000  Uiso   1.00
H488   H     0.28956   0.71529   0.18211   0.00000  Uiso   1.00
H489   H     0.77300   0.76324   0.91830   0.00000  Uiso   1.00
H490   H     0.85892   0.62199   0.28956   0.00000  Uiso   1.00
H491   H     0.58747   0.58479   0.03530   0.00000  Uiso   1.00
H492   H     0.41949   0.58855   0.05722   0.00000  Uiso   1.00
H493   H     0.64875   0.61129   0.93210   0.00000  Uiso   1.00
H494   H     0.68950   0.54431   0.10816   0.00000  Uiso   1.00
H495   H     0.24066   0.60885   0.09473   0.00000  Uiso   1.00
H496   H     0.72411   0.65681   0.83092   0.00000  Uiso   1.00
H497   H     0.81002   0.51556   0.20218   0.00000  Uiso   1.00
O498   O     0.15563   0.66679   0.15466   0.00000  Uiso   1.00
O499   O     0.78990   0.72970   0.80856   0.00000  Uiso   1.00
O500   O     0.90262   0.54439   0.29564   0.00000  Uiso   1.00
N501   N     0.30110   0.68972   0.15855   0.00000  Uiso   1.00
N502   N     0.75308   0.73455   0.91190   0.00000  Uiso   1.00
N503   N     0.83343   0.60250   0.25898   0.00000  Uiso   1.00
N504   N     0.27479   0.63244   0.11153   0.00000  Uiso   1.00
N505   N     0.72677   0.67728   0.86488   0.00000  Uiso   1.00
N506   N     0.80712   0.54523   0.21197   0.00000  Uiso   1.00
C507   C     0.45889   0.82160   0.38325   0.00000  Uiso   1.00
C508   C     0.36003   0.83019   0.38108   0.00000  Uiso   1.00
C509   C     0.29676   0.80594   0.35349   0.00000  Uiso   1.00
C510   C     0.20981   0.81906   0.35650   0.00000  Uiso   1.00
C511   C     0.05977   0.82689   0.34865   0.00000  Uiso   1.00
C512   C     0.48414   0.82170   0.45079   0.00000  Uiso   1.00
C513   C     0.52523   0.79031   0.48182   0.00000  Uiso   1.00
C514   C     0.54277   0.79629   0.54350   0.00000  Uiso   1.00
C515   C     0.58547   0.79095   0.64387   0.00000  Uiso   1.00
C516   C     0.50377   0.85844   0.35517   0.00000  Uiso   1.00
C517   C     0.56139   0.85795   0.30581   0.00000  Uiso   1.00
C518   C     0.59547   0.89487   0.28701   0.00000  Uiso   1.00
C519   C     0.66864   0.94658   0.23891   0.00000  Uiso   1.00
C520   C     0.41698   0.88803   0.43763   0.00000  Uiso   1.00
C521   C     0.33727   0.86626   0.41061   0.00000  Uiso   1.00
C522   C     0.25039   0.87943   0.41366   0.00000  Uiso   1.00
C523   C     0.18701   0.85520   0.38608   0.00000  Uiso   1.00
C524   C     0.46138   0.85777   0.48033   0.00000  Uiso   1.00
C525   C     0.47887   0.86380   0.54198   0.00000  Uiso   1.00
C526   C     0.51997   0.83243   0.57309   0.00000  Uiso   1.00
C527   C     0.48101   0.89452   0.38471   0.00000  Uiso   1.00
C528   C     0.51501   0.93144   0.36598   0.00000  Uiso   1.00
C529   C     0.57266   0.93101   0.31660   0.00000  Uiso   1.00
H530   H     0.47661   0.79351   0.36026   0.00000  Uiso   1.00
H531   H     0.31441   0.77801   0.33065   0.00000  Uiso   1.00
H532   H     0.54285   0.76240   0.45895   0.00000  Uiso   1.00
H533   H     0.57899   0.83003   0.28297   0.00000  Uiso   1.00
H534   H     0.12453   0.77674   0.31085   0.00000  Uiso   1.00
H535   H     0.60624   0.74381   0.58138   0.00000  Uiso   1.00
H536   H     0.68245   0.88642   0.21030   0.00000  Uiso   1.00
H537   H     0.39926   0.91612   0.46063   0.00000  Uiso   1.00
H538   H     0.23280   0.90735   0.43652   0.00000  Uiso   1.00
H539   H     0.46124   0.89173   0.56482   0.00000  Uiso   1.00
H540   H     0.49738   0.95936   0.38884   0.00000  Uiso   1.00
H541   H     0.05829   0.88171   0.39679   0.00000  Uiso   1.00
H542   H     0.54001   0.84878   0.66731   0.00000  Uiso   1.00
H543   H     0.61621   0.99139   0.29623   0.00000  Uiso   1.00
O544   O     0.98330   0.82124   0.33616   0.00000  Uiso   1.00
O545   O     0.61531   0.77804   0.69107   0.00000  Uiso   1.00
O546   O     0.71528   0.96514   0.20422   0.00000  Uiso   1.00
N547   N     0.13178   0.80265   0.33438   0.00000  Uiso   1.00
N548   N     0.58214   0.77186   0.58730   0.00000  Uiso   1.00
N549   N     0.65341   0.90519   0.24038   0.00000  Uiso   1.00
N550   N     0.09614   0.85914   0.38061   0.00000  Uiso   1.00
N551   N     0.54650   0.82834   0.63354   0.00000  Uiso   1.00
N552   N     0.61777   0.96167   0.28662   0.00000  Uiso   1.00
C553   C     0.13149   0.81938   0.88602   0.00000  Uiso   1.00
C554   C     0.03401   0.83087   0.88522   0.00000  Uiso   1.00
C555   C     0.96670   0.80863   0.85836   0.00000  Uiso   1.00
C556   C     0.88189   0.82428   0.86261   0.00000  Uiso   1.00
C557   C     0.73307   0.83655   0.85682   0.00000  Uiso   1.00
C558   C     0.15856   0.81851   0.95321   0.00000  Uiso   1.00
C559   C     0.19599   0.78588   0.98350   0.00000  Uiso   1.00
C560   C     0.21604   0.79113   0.04497   0.00000  Uiso   1.00
C561   C     0.26066   0.78422   0.14472   0.00000  Uiso   1.00
C562   C     0.18069   0.85490   0.85754   0.00000  Uiso   1.00
C563   C     0.23675   0.85287   0.80742   0.00000  Uiso   1.00
C564   C     0.27544   0.88876   0.78836   0.00000  Uiso   1.00
C565   C     0.35442   0.93836   0.73957   0.00000  Uiso   1.00
C566   C     0.10055   0.88673   0.94132   0.00000  Uiso   1.00
C567   C     0.01721   0.86745   0.91526   0.00000  Uiso   1.00
C568   C     0.93247   0.88314   0.91954   0.00000  Uiso   1.00
C569   C     0.86505   0.86093   0.89269   0.00000  Uiso   1.00
C570   C     0.14176   0.85509   0.98324   0.00000  Uiso   1.00
C571   C     0.16176   0.86039   0.04468   0.00000  Uiso   1.00
C572   C     0.19920   0.82778   0.07506   0.00000  Uiso   1.00
C573   C     0.16389   0.89149   0.88758   0.00000  Uiso   1.00
C574   C     0.20251   0.92739   0.86859   0.00000  Uiso   1.00
C575   C     0.25861   0.92541   0.81844   0.00000  Uiso   1.00
H576   H     0.14457   0.79090   0.86265   0.00000  Uiso   1.00
H577   H     0.97973   0.78032   0.83513   0.00000  Uiso   1.00
H578   H     0.20899   0.75757   0.96025   0.00000  Uiso   1.00
H579   H     0.24974   0.82456   0.78419   0.00000  Uiso   1.00
H580   H     0.78956   0.78471   0.81789   0.00000  Uiso   1.00
H581   H     0.27300   0.73676   0.08170   0.00000  Uiso   1.00
H582   H     0.35892   0.87801   0.71044   0.00000  Uiso   1.00
H583   H     0.08747   0.91521   0.96470   0.00000  Uiso   1.00
H584   H     0.91949   0.91145   0.94278   0.00000  Uiso   1.00
H585   H     0.14875   0.88871   0.06790   0.00000  Uiso   1.00
H586   H     0.18950   0.95569   0.89184   0.00000  Uiso   1.00
H587   H     0.74066   0.89115   0.90527   0.00000  Uiso   1.00
H588   H     0.22411   0.84319   0.16908   0.00000  Uiso   1.00
H589   H     0.31002   0.98444   0.79782   0.00000  Uiso   1.00
O590   O     0.65563   0.83321   0.84534   0.00000  Uiso   1.00
O591   O     0.28990   0.77030   0.19144   0.00000  Uiso   1.00
O592   O     0.40262   0.95561   0.70436   0.00000  Uiso   1.00
N593   N     0.80110   0.81028   0.84145   0.00000  Uiso   1.00
N594   N     0.25308   0.76545   0.08810   0.00000  Uiso   1.00
N595   N     0.33343   0.89750   0.74102   0.00000  Uiso   1.00
N596   N     0.77479   0.86756   0.88847   0.00000  Uiso   1.00
N597   N     0.22677   0.82272   0.13512   0.00000  Uiso   1.00
N598   N     0.30712   0.95477   0.78803   0.00000  Uiso   1.00
C599   C     0.95889   0.67840   0.61675   0.00000  Uiso   1.00
C600   C     0.86003   0.66981   0.61892   0.00000  Uiso   1.00
C601   C     0.79676   0.69406   0.64651   0.00000  Uiso   1.00
C602   C     0.70981   0.68094   0.64350   0.00000  Uiso   1.00
C603   C     0.55977   0.67311   0.65135   0.00000  Uiso   1.00
C604   C     0.98414   0.67830   0.54921   0.00000  Uiso   1.00
C605   C     0.02523   0.70969   0.51818   0.00000  Uiso   1.00
C606   C     0.04277   0.70371   0.45650   0.00000  Uiso   1.00
C607   C     0.08547   0.70905   0.35613   0.00000  Uiso   1.00
C608   C     0.00377   0.64156   0.64483   0.00000  Uiso   1.00
C609   C     0.06139   0.64205   0.69419   0.00000  Uiso   1.00
C610   C     0.09547   0.60513   0.71299   0.00000  Uiso   1.00
C611   C     0.16864   0.55342   0.76109   0.00000  Uiso   1.00
C612   C     0.91698   0.61197   0.56237   0.00000  Uiso   1.00
C613   C     0.83727   0.63374   0.58939   0.00000  Uiso   1.00
C614   C     0.75039   0.62057   0.58634   0.00000  Uiso   1.00
C615   C     0.68701   0.64480   0.61392   0.00000  Uiso   1.00
C616   C     0.96138   0.64223   0.51967   0.00000  Uiso   1.00
C617   C     0.97887   0.63620   0.45802   0.00000  Uiso   1.00
C618   C     0.01997   0.66757   0.42691   0.00000  Uiso   1.00
C619   C     0.98101   0.60548   0.61529   0.00000  Uiso   1.00
C620   C     0.01501   0.56856   0.63402   0.00000  Uiso   1.00
C621   C     0.07266   0.56899   0.68340   0.00000  Uiso   1.00
H622   H     0.97661   0.70649   0.63974   0.00000  Uiso   1.00
H623   H     0.81441   0.72199   0.66935   0.00000  Uiso   1.00
H624   H     0.04285   0.73760   0.54105   0.00000  Uiso   1.00
H625   H     0.07899   0.66997   0.71703   0.00000  Uiso   1.00
H626   H     0.62453   0.72326   0.68915   0.00000  Uiso   1.00
H627   H     0.10624   0.75619   0.41862   0.00000  Uiso   1.00
H628   H     0.18245   0.61358   0.78970   0.00000  Uiso   1.00
H629   H     0.89926   0.58388   0.53937   0.00000  Uiso   1.00
H630   H     0.73280   0.59265   0.56348   0.00000  Uiso   1.00
H631   H     0.96124   0.60827   0.43518   0.00000  Uiso   1.00
H632   H     0.99738   0.54064   0.61116   0.00000  Uiso   1.00
H633   H     0.55829   0.61829   0.60321   0.00000  Uiso   1.00
H634   H     0.04001   0.65122   0.33269   0.00000  Uiso   1.00
H635   H     0.11621   0.50861   0.70377   0.00000  Uiso   1.00
O636   O     0.48330   0.67876   0.66384   0.00000  Uiso   1.00
O637   O     0.11531   0.72196   0.30893   0.00000  Uiso   1.00
O638   O     0.21528   0.53486   0.79578   0.00000  Uiso   1.00
N639   N     0.63178   0.69735   0.66562   0.00000  Uiso   1.00
N640   N     0.08214   0.72814   0.41270   0.00000  Uiso   1.00
N641   N     0.15341   0.59481   0.75962   0.00000  Uiso   1.00
N642   N     0.59614   0.64086   0.61939   0.00000  Uiso   1.00
N643   N     0.04650   0.67166   0.36646   0.00000  Uiso   1.00
N644   N     0.11777   0.53833   0.71338   0.00000  Uiso   1.00
C645   C     0.36851   0.68062   0.38602   0.00000  Uiso   1.00
C646   C     0.46599   0.66913   0.38522   0.00000  Uiso   1.00
C647   C     0.53330   0.69137   0.35836   0.00000  Uiso   1.00
C648   C     0.61811   0.67572   0.36261   0.00000  Uiso   1.00
C649   C     0.76693   0.66345   0.35682   0.00000  Uiso   1.00
C650   C     0.34144   0.68149   0.45321   0.00000  Uiso   1.00
C651   C     0.30401   0.71412   0.48350   0.00000  Uiso   1.00
C652   C     0.28396   0.70887   0.54497   0.00000  Uiso   1.00
C653   C     0.23934   0.71578   0.64472   0.00000  Uiso   1.00
C654   C     0.31931   0.64510   0.35754   0.00000  Uiso   1.00
C655   C     0.26325   0.64713   0.30742   0.00000  Uiso   1.00
C656   C     0.22456   0.61124   0.28836   0.00000  Uiso   1.00
C657   C     0.14558   0.56164   0.23957   0.00000  Uiso   1.00
C658   C     0.39945   0.61327   0.44132   0.00000  Uiso   1.00
C659   C     0.48279   0.63255   0.41526   0.00000  Uiso   1.00
C660   C     0.56753   0.61686   0.41954   0.00000  Uiso   1.00
C661   C     0.63495   0.63907   0.39269   0.00000  Uiso   1.00
C662   C     0.35824   0.64491   0.48324   0.00000  Uiso   1.00
C663   C     0.33824   0.63961   0.54468   0.00000  Uiso   1.00
C664   C     0.30080   0.67222   0.57506   0.00000  Uiso   1.00
C665   C     0.33611   0.60851   0.38758   0.00000  Uiso   1.00
C666   C     0.29749   0.57261   0.36859   0.00000  Uiso   1.00
C667   C     0.24139   0.57459   0.31844   0.00000  Uiso   1.00
H668   H     0.35543   0.70910   0.36265   0.00000  Uiso   1.00
H669   H     0.52027   0.71968   0.33513   0.00000  Uiso   1.00
H670   H     0.29101   0.74243   0.46025   0.00000  Uiso   1.00
H671   H     0.25026   0.67544   0.28419   0.00000  Uiso   1.00
H672   H     0.71044   0.71529   0.31789   0.00000  Uiso   1.00
H673   H     0.22700   0.76324   0.58170   0.00000  Uiso   1.00
H674   H     0.14108   0.62199   0.21044   0.00000  Uiso   1.00
H675   H     0.41253   0.58479   0.46470   0.00000  Uiso   1.00
H676   H     0.58051   0.58855   0.44278   0.00000  Uiso   1.00
H677   H     0.35125   0.61129   0.56790   0.00000  Uiso   1.00
H678   H     0.31050   0.54431   0.39184   0.00000  Uiso   1.00
H679   H     0.75934   0.60885   0.40527   0.00000  Uiso   1.00
H680   H     0.27589   0.65681   0.66908   0.00000  Uiso   1.00
H681   H     0.18998   0.51556   0.29782   0.00000  Uiso   1.00
O682   O     0.84437   0.66679   0.34534   0.00000  Uiso   1.00
O683   O     0.21010   0.72970   0.69144   0.00000  Uiso   1.00
O684   O     0.09738   0.54439   0.20436   0.00000  Uiso   1.00
N685   N     0.69890   0.68972   0.34145   0.00000  Uiso   1.00
N686   N     0.24692   0.73455   0.58810   0.00000  Uiso   1.00
N687   N     0.16657   0.60250   0.24102   0.00000  Uiso   1.00
N688   N     0.72521   0.63244   0.38847   0.00000  Uiso   1.00
N689   N     0.27323   0.67728   0.63512   0.00000  Uiso   1.00
N690   N     0.19288   0.54523   0.28803   0.00000  Uiso   1.00
C691   C     0.54111   0.82160   0.11675   0.00000  Uiso   1.00
C692   C     0.63997   0.83019   0.11892   0.00000  Uiso   1.00
C693   C     0.70324   0.80594   0.14651   0.00000  Uiso   1.00
C694   C     0.79019   0.81906   0.14350   0.00000  Uiso   1.00
C695   C     0.94023   0.82689   0.15135   0.00000  Uiso   1.00
C696   C     0.51586   0.82170   0.04921   0.00000  Uiso   1.00
C697   C     0.47477   0.79031   0.01818   0.00000  Uiso   1.00
C698   C     0.45723   0.79629   0.95650   0.00000  Uiso   1.00
C699   C     0.41453   0.79095   0.85613   0.00000  Uiso   1.00
C700   C     0.49623   0.85844   0.14483   0.00000  Uiso   1.00
C701   C     0.43861   0.85795   0.19419   0.00000  Uiso   1.00
C702   C     0.40453   0.89487   0.21299   0.00000  Uiso   1.00
C703   C     0.33136   0.94658   0.26109   0.00000  Uiso   1.00
C704   C     0.58302   0.88803   0.06237   0.00000  Uiso   1.00
C705   C     0.66273   0.86626   0.08939   0.00000  Uiso   1.00
C706   C     0.74961   0.87943   0.08634   0.00000  Uiso   1.00
C707   C     0.81299   0.85520   0.11392   0.00000  Uiso   1.00
C708   C     0.53862   0.85777   0.01967   0.00000  Uiso   1.00
C709   C     0.52113   0.86380   0.95802   0.00000  Uiso   1.00
C710   C     0.48003   0.83243   0.92691   0.00000  Uiso   1.00
C711   C     0.51899   0.89452   0.11529   0.00000  Uiso   1.00
C712   C     0.48499   0.93144   0.13402   0.00000  Uiso   1.00
C713   C     0.42734   0.93101   0.18340   0.00000  Uiso   1.00
H714   H     0.52339   0.79351   0.13974   0.00000  Uiso   1.00
H715   H     0.68559   0.77801   0.16935   0.00000  Uiso   1.00
H716   H     0.45715   0.76240   0.04105   0.00000  Uiso   1.00
H717   H     0.42101   0.83003   0.21703   0.00000  Uiso   1.00
H718   H     0.87547   0.77674   0.18915   0.00000  Uiso   1.00
H719   H     0.39376   0.74381   0.91862   0.00000  Uiso   1.00
H720   H     0.31755   0.88642   0.28970   0.00000  Uiso   1.00
H721   H     0.60074   0.91612   0.03937   0.00000  Uiso   1.00
H722   H     0.76720   0.90735   0.06348   0.00000  Uiso   1.00
H723   H     0.53876   0.89173   0.93518   0.00000  Uiso   1.00
H724   H     0.50262   0.95936   0.11116   0.00000  Uiso   1.00
H725   H     0.94171   0.88171   0.10321   0.00000  Uiso   1.00
H726   H     0.45999   0.84878   0.83269   0.00000  Uiso   1.00
H727   H     0.38379   0.99139   0.20377   0.00000  Uiso   1.00
O728   O     0.01670   0.82124   0.16384   0.00000  Uiso   1.00
O729   O     0.38469   0.77804   0.80893   0.00000  Uiso   1.00
O730   O     0.28472   0.96514   0.29578   0.00000  Uiso   1.00
N731   N     0.86822   0.80265   0.16562   0.00000  Uiso   1.00
N732   N     0.41786   0.77186   0.91270   0.00000  Uiso   1.00
N733   N     0.34659   0.90519   0.25962   0.00000  Uiso   1.00
N734   N     0.90386   0.85914   0.11939   0.00000  Uiso   1.00
N735   N     0.45350   0.82834   0.86646   0.00000  Uiso   1.00
N736   N     0.38223   0.96167   0.21338   0.00000  Uiso   1.00
