data_job_06871
_audit_creation_date              2018-12-19
_audit_creation_method            'Materials Studio'
_symmetry_space_group_name_H-M    'P1'
_symmetry_Int_Tables_number       1
_symmetry_cell_setting            triclinic
loop_
_symmetry_equiv_pos_as_xyz
  x,y,z
_cell_length_a                    35.5410
_cell_length_b                    35.5410
_cell_length_c                    42.7271
_cell_angle_alpha                 90.0000
_cell_angle_beta                  90.0000
_cell_angle_gamma                 120.0000
loop_
_atom_site_label
_atom_site_type_symbol
_atom_site_fract_x
_atom_site_fract_y
_atom_site_fract_z
_atom_site_U_iso_or_equiv
_atom_site_adp_type
_atom_site_occupancy
C1     C     0.75903   0.87890   0.48673   0.00000  Uiso   1.00
C2     C     0.74790   0.91174   0.47299   0.00000  Uiso   1.00
C3     C     0.73863   0.93937   0.49002   0.00000  Uiso   1.00
C4     C     0.72924   0.96701   0.47309   0.00000  Uiso   1.00
C5     C     0.71195   0.01800   0.45674   0.00000  Uiso   1.00
C6     C     0.72613   0.83495   0.47298   0.00000  Uiso   1.00
C7     C     0.69857   0.79802   0.49001   0.00000  Uiso   1.00
C8     C     0.67085   0.76102   0.47307   0.00000  Uiso   1.00
C9     C     0.61979   0.69278   0.45671   0.00000  Uiso   1.00
C10    C     0.80292   0.88997   0.47286   0.00000  Uiso   1.00
C11    C     0.83992   0.89928   0.48979   0.00000  Uiso   1.00
C12    C     0.87685   0.90859   0.47276   0.00000  Uiso   1.00
C13    C     0.94501   0.92577   0.45621   0.00000  Uiso   1.00
C14    C     0.75884   0.87886   0.42638   0.00000  Uiso   1.00
C15    C     0.74780   0.91172   0.44021   0.00000  Uiso   1.00
C16    C     0.73842   0.93933   0.42325   0.00000  Uiso   1.00
C17    C     0.72913   0.96699   0.44026   0.00000  Uiso   1.00
C18    C     0.72603   0.83493   0.44021   0.00000  Uiso   1.00
C19    C     0.69835   0.79797   0.42324   0.00000  Uiso   1.00
C20    C     0.67074   0.76099   0.44024   0.00000  Uiso   1.00
C21    C     0.80282   0.88995   0.44009   0.00000  Uiso   1.00
C22    C     0.83970   0.89924   0.42303   0.00000  Uiso   1.00
C23    C     0.87674   0.90856   0.43992   0.00000  Uiso   1.00
H24    H     0.75911   0.87891   0.51225   0.00000  Uiso   1.00
H25    H     0.73871   0.93938   0.51538   0.00000  Uiso   1.00
H26    H     0.69866   0.79805   0.51537   0.00000  Uiso   1.00
H27    H     0.83999   0.89930   0.51515   0.00000  Uiso   1.00
H28    H     0.71604   0.00639   0.50441   0.00000  Uiso   1.00
H29    H     0.63158   0.70838   0.50438   0.00000  Uiso   1.00
H30    H     0.92960   0.92188   0.50392   0.00000  Uiso   1.00
H31    H     0.75875   0.87884   0.40087   0.00000  Uiso   1.00
H32    H     0.73834   0.93930   0.39789   0.00000  Uiso   1.00
H33    H     0.69828   0.79797   0.39788   0.00000  Uiso   1.00
H34    H     0.83961   0.89922   0.39766   0.00000  Uiso   1.00
H35    H     0.71573   0.00633   0.40905   0.00000  Uiso   1.00
H36    H     0.63127   0.70832   0.40902   0.00000  Uiso   1.00
H37    H     0.92929   0.92182   0.40856   0.00000  Uiso   1.00
O38    O     0.70244   0.04613   0.45678   0.00000  Uiso   1.00
O39    O     0.59165   0.65515   0.45675   0.00000  Uiso   1.00
O40    O     0.98264   0.93526   0.45614   0.00000  Uiso   1.00
N41    N     0.71877   0.99809   0.48237   0.00000  Uiso   1.00
N42    N     0.63981   0.71947   0.48235   0.00000  Uiso   1.00
N43    N     0.91843   0.91906   0.48192   0.00000  Uiso   1.00
N44    N     0.71861   0.99805   0.43106   0.00000  Uiso   1.00
N45    N     0.63964   0.71943   0.43103   0.00000  Uiso   1.00
N46    N     0.91826   0.91903   0.43061   0.00000  Uiso   1.00
C47    C     0.42570   0.21223   0.82006   0.00000  Uiso   1.00
C48    C     0.41457   0.24508   0.80632   0.00000  Uiso   1.00
C49    C     0.40530   0.27271   0.82335   0.00000  Uiso   1.00
C50    C     0.39591   0.30035   0.80642   0.00000  Uiso   1.00
C51    C     0.37862   0.35133   0.79007   0.00000  Uiso   1.00
C52    C     0.39280   0.16829   0.80631   0.00000  Uiso   1.00
C53    C     0.36523   0.13135   0.82334   0.00000  Uiso   1.00
C54    C     0.33752   0.09435   0.80641   0.00000  Uiso   1.00
C55    C     0.28646   0.02611   0.79005   0.00000  Uiso   1.00
C56    C     0.46959   0.22330   0.80620   0.00000  Uiso   1.00
C57    C     0.50658   0.23261   0.82312   0.00000  Uiso   1.00
C58    C     0.54352   0.24192   0.80609   0.00000  Uiso   1.00
C59    C     0.61168   0.25910   0.78955   0.00000  Uiso   1.00
C60    C     0.42550   0.21219   0.75972   0.00000  Uiso   1.00
C61    C     0.41446   0.24505   0.77354   0.00000  Uiso   1.00
C62    C     0.40508   0.27266   0.75659   0.00000  Uiso   1.00
C63    C     0.39580   0.30033   0.77359   0.00000  Uiso   1.00
C64    C     0.39269   0.16826   0.77354   0.00000  Uiso   1.00
C65    C     0.36502   0.13131   0.75658   0.00000  Uiso   1.00
C66    C     0.33741   0.09433   0.77357   0.00000  Uiso   1.00
C67    C     0.46948   0.22328   0.77342   0.00000  Uiso   1.00
C68    C     0.50637   0.23257   0.75636   0.00000  Uiso   1.00
C69    C     0.54341   0.24190   0.77325   0.00000  Uiso   1.00
H70    H     0.42578   0.21225   0.84558   0.00000  Uiso   1.00
H71    H     0.40538   0.27271   0.84872   0.00000  Uiso   1.00
H72    H     0.36532   0.13138   0.84870   0.00000  Uiso   1.00
H73    H     0.50665   0.23263   0.84849   0.00000  Uiso   1.00
H74    H     0.38270   0.33973   0.83774   0.00000  Uiso   1.00
H75    H     0.29825   0.04172   0.83771   0.00000  Uiso   1.00
H76    H     0.59627   0.25522   0.83725   0.00000  Uiso   1.00
H77    H     0.42542   0.21217   0.73420   0.00000  Uiso   1.00
H78    H     0.40500   0.27263   0.73122   0.00000  Uiso   1.00
H79    H     0.36494   0.13130   0.73121   0.00000  Uiso   1.00
H80    H     0.50627   0.23255   0.73100   0.00000  Uiso   1.00
H81    H     0.38239   0.33966   0.74238   0.00000  Uiso   1.00
H82    H     0.29794   0.04165   0.74235   0.00000  Uiso   1.00
H83    H     0.59596   0.25515   0.74189   0.00000  Uiso   1.00
O84    O     0.36911   0.37946   0.79011   0.00000  Uiso   1.00
O85    O     0.25832   0.98848   0.79008   0.00000  Uiso   1.00
O86    O     0.64931   0.26859   0.78948   0.00000  Uiso   1.00
N87    N     0.38544   0.33142   0.81570   0.00000  Uiso   1.00
N88    N     0.30648   0.05280   0.81568   0.00000  Uiso   1.00
N89    N     0.58510   0.25239   0.81525   0.00000  Uiso   1.00
N90    N     0.38527   0.33138   0.76439   0.00000  Uiso   1.00
N91    N     0.30631   0.05276   0.76437   0.00000  Uiso   1.00
N92    N     0.58493   0.25236   0.76394   0.00000  Uiso   1.00
C93    C     0.09237   0.54557   0.15339   0.00000  Uiso   1.00
C94    C     0.08124   0.57841   0.13965   0.00000  Uiso   1.00
C95    C     0.07197   0.60604   0.15668   0.00000  Uiso   1.00
C96    C     0.06257   0.63368   0.13976   0.00000  Uiso   1.00
C97    C     0.04529   0.68467   0.12341   0.00000  Uiso   1.00
C98    C     0.05947   0.50162   0.13965   0.00000  Uiso   1.00
C99    C     0.03190   0.46469   0.15667   0.00000  Uiso   1.00
C100   C     0.00418   0.42769   0.13974   0.00000  Uiso   1.00
C101   C     0.95312   0.35945   0.12338   0.00000  Uiso   1.00
C102   C     0.13626   0.55664   0.13953   0.00000  Uiso   1.00
C103   C     0.17325   0.56595   0.15646   0.00000  Uiso   1.00
C104   C     0.21018   0.57526   0.13942   0.00000  Uiso   1.00
C105   C     0.27835   0.59244   0.12288   0.00000  Uiso   1.00
C106   C     0.09217   0.54552   0.09305   0.00000  Uiso   1.00
C107   C     0.08113   0.57838   0.10688   0.00000  Uiso   1.00
C108   C     0.07175   0.60599   0.08992   0.00000  Uiso   1.00
C109   C     0.06247   0.63366   0.10692   0.00000  Uiso   1.00
C110   C     0.05936   0.50160   0.10687   0.00000  Uiso   1.00
C111   C     0.03168   0.46464   0.08991   0.00000  Uiso   1.00
C112   C     0.00408   0.42766   0.10690   0.00000  Uiso   1.00
C113   C     0.13615   0.55661   0.10675   0.00000  Uiso   1.00
C114   C     0.17303   0.56590   0.08969   0.00000  Uiso   1.00
C115   C     0.21008   0.57523   0.10659   0.00000  Uiso   1.00
H116   H     0.09245   0.54558   0.17891   0.00000  Uiso   1.00
H117   H     0.07205   0.60604   0.18205   0.00000  Uiso   1.00
H118   H     0.03199   0.46471   0.18204   0.00000  Uiso   1.00
H119   H     0.17332   0.56596   0.18182   0.00000  Uiso   1.00
H120   H     0.04937   0.67306   0.17107   0.00000  Uiso   1.00
H121   H     0.96492   0.37505   0.17105   0.00000  Uiso   1.00
H122   H     0.26294   0.58855   0.17059   0.00000  Uiso   1.00
H123   H     0.09209   0.54550   0.06753   0.00000  Uiso   1.00
H124   H     0.07167   0.60597   0.06456   0.00000  Uiso   1.00
H125   H     0.03161   0.46463   0.06455   0.00000  Uiso   1.00
H126   H     0.17294   0.56588   0.06433   0.00000  Uiso   1.00
H127   H     0.04906   0.67299   0.07571   0.00000  Uiso   1.00
H128   H     0.96461   0.37498   0.07569   0.00000  Uiso   1.00
H129   H     0.26263   0.58849   0.07523   0.00000  Uiso   1.00
O130   O     0.03578   0.71279   0.12344   0.00000  Uiso   1.00
O131   O     0.92498   0.32181   0.12341   0.00000  Uiso   1.00
O132   O     0.31598   0.60192   0.12281   0.00000  Uiso   1.00
N133   N     0.05211   0.66475   0.14904   0.00000  Uiso   1.00
N134   N     0.97314   0.38613   0.14901   0.00000  Uiso   1.00
N135   N     0.25176   0.58573   0.14859   0.00000  Uiso   1.00
N136   N     0.05194   0.66472   0.09772   0.00000  Uiso   1.00
N137   N     0.97298   0.38610   0.09770   0.00000  Uiso   1.00
N138   N     0.25160   0.58569   0.09727   0.00000  Uiso   1.00
C139   C     0.12110   0.88013   0.48673   0.00000  Uiso   1.00
C140   C     0.08826   0.83616   0.47299   0.00000  Uiso   1.00
C141   C     0.06063   0.79926   0.49002   0.00000  Uiso   1.00
C142   C     0.03299   0.76222   0.47309   0.00000  Uiso   1.00
C143   C     0.98200   0.69395   0.45674   0.00000  Uiso   1.00
C144   C     0.16505   0.89118   0.47298   0.00000  Uiso   1.00
C145   C     0.20198   0.90055   0.49001   0.00000  Uiso   1.00
C146   C     0.23898   0.90983   0.47307   0.00000  Uiso   1.00
C147   C     0.30722   0.92701   0.45671   0.00000  Uiso   1.00
C148   C     0.11003   0.91295   0.47286   0.00000  Uiso   1.00
C149   C     0.10072   0.94064   0.48979   0.00000  Uiso   1.00
C150   C     0.09141   0.96826   0.47276   0.00000  Uiso   1.00
C151   C     0.07423   0.01924   0.45621   0.00000  Uiso   1.00
C152   C     0.12114   0.87998   0.42638   0.00000  Uiso   1.00
C153   C     0.08828   0.83608   0.44021   0.00000  Uiso   1.00
C154   C     0.06067   0.79909   0.42325   0.00000  Uiso   1.00
C155   C     0.03301   0.76214   0.44026   0.00000  Uiso   1.00
C156   C     0.16507   0.89110   0.44021   0.00000  Uiso   1.00
C157   C     0.20203   0.90038   0.42324   0.00000  Uiso   1.00
C158   C     0.23901   0.90975   0.44024   0.00000  Uiso   1.00
C159   C     0.11005   0.91287   0.44009   0.00000  Uiso   1.00
C160   C     0.10076   0.94046   0.42303   0.00000  Uiso   1.00
C161   C     0.09144   0.96818   0.43992   0.00000  Uiso   1.00
H162   H     0.12109   0.88020   0.51225   0.00000  Uiso   1.00
H163   H     0.06062   0.79934   0.51538   0.00000  Uiso   1.00
H164   H     0.20195   0.90061   0.51537   0.00000  Uiso   1.00
H165   H     0.10070   0.94069   0.51515   0.00000  Uiso   1.00
H166   H     0.99361   0.70964   0.50441   0.00000  Uiso   1.00
H167   H     0.29162   0.92320   0.50438   0.00000  Uiso   1.00
H168   H     0.07812   0.00772   0.50392   0.00000  Uiso   1.00
H169   H     0.12116   0.87992   0.40087   0.00000  Uiso   1.00
H170   H     0.06070   0.79904   0.39789   0.00000  Uiso   1.00
H171   H     0.20203   0.90031   0.39788   0.00000  Uiso   1.00
H172   H     0.10078   0.94039   0.39766   0.00000  Uiso   1.00
H173   H     0.99367   0.70940   0.40905   0.00000  Uiso   1.00
H174   H     0.29168   0.92296   0.40902   0.00000  Uiso   1.00
H175   H     0.07818   0.00747   0.40856   0.00000  Uiso   1.00
O176   O     0.95387   0.65632   0.45678   0.00000  Uiso   1.00
O177   O     0.34485   0.93650   0.45675   0.00000  Uiso   1.00
O178   O     0.06474   0.04738   0.45614   0.00000  Uiso   1.00
N179   N     0.00191   0.72069   0.48237   0.00000  Uiso   1.00
N180   N     0.28053   0.92034   0.48235   0.00000  Uiso   1.00
N181   N     0.08094   0.99937   0.48192   0.00000  Uiso   1.00
N182   N     0.00195   0.72056   0.43106   0.00000  Uiso   1.00
N183   N     0.28057   0.92021   0.43103   0.00000  Uiso   1.00
N184   N     0.08097   0.99924   0.43061   0.00000  Uiso   1.00
C185   C     0.78777   0.21347   0.82006   0.00000  Uiso   1.00
C186   C     0.75492   0.16949   0.80632   0.00000  Uiso   1.00
C187   C     0.72729   0.13259   0.82335   0.00000  Uiso   1.00
C188   C     0.69965   0.09556   0.80642   0.00000  Uiso   1.00
C189   C     0.64867   0.02729   0.79007   0.00000  Uiso   1.00
C190   C     0.83171   0.22451   0.80631   0.00000  Uiso   1.00
C191   C     0.86865   0.23388   0.82334   0.00000  Uiso   1.00
C192   C     0.90565   0.24316   0.80641   0.00000  Uiso   1.00
C193   C     0.97389   0.26034   0.79005   0.00000  Uiso   1.00
C194   C     0.77670   0.24629   0.80620   0.00000  Uiso   1.00
C195   C     0.76739   0.27397   0.82312   0.00000  Uiso   1.00
C196   C     0.75808   0.30159   0.80609   0.00000  Uiso   1.00
C197   C     0.74090   0.35258   0.78955   0.00000  Uiso   1.00
C198   C     0.78781   0.21331   0.75972   0.00000  Uiso   1.00
C199   C     0.75495   0.16941   0.77354   0.00000  Uiso   1.00
C200   C     0.72734   0.13242   0.75659   0.00000  Uiso   1.00
C201   C     0.69967   0.09547   0.77359   0.00000  Uiso   1.00
C202   C     0.83174   0.22443   0.77354   0.00000  Uiso   1.00
C203   C     0.86869   0.23371   0.75658   0.00000  Uiso   1.00
C204   C     0.90567   0.24308   0.77357   0.00000  Uiso   1.00
C205   C     0.77672   0.24620   0.77342   0.00000  Uiso   1.00
C206   C     0.76743   0.27380   0.75636   0.00000  Uiso   1.00
C207   C     0.75810   0.30151   0.77325   0.00000  Uiso   1.00
H208   H     0.78775   0.21353   0.84558   0.00000  Uiso   1.00
H209   H     0.72729   0.13267   0.84872   0.00000  Uiso   1.00
H210   H     0.86862   0.23394   0.84870   0.00000  Uiso   1.00
H211   H     0.76737   0.27402   0.84849   0.00000  Uiso   1.00
H212   H     0.66027   0.04298   0.83774   0.00000  Uiso   1.00
H213   H     0.95828   0.25653   0.83771   0.00000  Uiso   1.00
H214   H     0.74478   0.34105   0.83725   0.00000  Uiso   1.00
H215   H     0.78783   0.21325   0.73420   0.00000  Uiso   1.00
H216   H     0.72737   0.13237   0.73122   0.00000  Uiso   1.00
H217   H     0.86870   0.23364   0.73121   0.00000  Uiso   1.00
H218   H     0.76745   0.27372   0.73100   0.00000  Uiso   1.00
H219   H     0.66034   0.04273   0.74238   0.00000  Uiso   1.00
H220   H     0.95835   0.25629   0.74235   0.00000  Uiso   1.00
H221   H     0.74485   0.34081   0.74189   0.00000  Uiso   1.00
O222   O     0.62054   0.98965   0.79011   0.00000  Uiso   1.00
O223   O     0.01152   0.26984   0.79008   0.00000  Uiso   1.00
O224   O     0.73141   0.38072   0.78948   0.00000  Uiso   1.00
N225   N     0.66858   0.05402   0.81570   0.00000  Uiso   1.00
N226   N     0.94720   0.25368   0.81568   0.00000  Uiso   1.00
N227   N     0.74761   0.33270   0.81525   0.00000  Uiso   1.00
N228   N     0.66862   0.05389   0.76439   0.00000  Uiso   1.00
N229   N     0.94724   0.25355   0.76437   0.00000  Uiso   1.00
N230   N     0.74764   0.33257   0.76394   0.00000  Uiso   1.00
C231   C     0.45443   0.54680   0.15339   0.00000  Uiso   1.00
C232   C     0.42159   0.50283   0.13965   0.00000  Uiso   1.00
C233   C     0.39396   0.46593   0.15668   0.00000  Uiso   1.00
C234   C     0.36632   0.42889   0.13976   0.00000  Uiso   1.00
C235   C     0.31533   0.36062   0.12341   0.00000  Uiso   1.00
C236   C     0.49838   0.55785   0.13965   0.00000  Uiso   1.00
C237   C     0.53531   0.56721   0.15667   0.00000  Uiso   1.00
C238   C     0.57231   0.57650   0.13974   0.00000  Uiso   1.00
C239   C     0.64055   0.59368   0.12338   0.00000  Uiso   1.00
C240   C     0.44336   0.57962   0.13953   0.00000  Uiso   1.00
C241   C     0.43405   0.60730   0.15646   0.00000  Uiso   1.00
C242   C     0.42474   0.63493   0.13942   0.00000  Uiso   1.00
C243   C     0.40756   0.68591   0.12288   0.00000  Uiso   1.00
C244   C     0.45448   0.54665   0.09305   0.00000  Uiso   1.00
C245   C     0.42162   0.50275   0.10688   0.00000  Uiso   1.00
C246   C     0.39401   0.46576   0.08992   0.00000  Uiso   1.00
C247   C     0.36634   0.42881   0.10692   0.00000  Uiso   1.00
C248   C     0.49840   0.55776   0.10687   0.00000  Uiso   1.00
C249   C     0.53536   0.56704   0.08991   0.00000  Uiso   1.00
C250   C     0.57234   0.57641   0.10690   0.00000  Uiso   1.00
C251   C     0.44339   0.57954   0.10675   0.00000  Uiso   1.00
C252   C     0.43410   0.60713   0.08969   0.00000  Uiso   1.00
C253   C     0.42477   0.63484   0.10659   0.00000  Uiso   1.00
H254   H     0.45442   0.54687   0.17891   0.00000  Uiso   1.00
H255   H     0.39396   0.46600   0.18205   0.00000  Uiso   1.00
H256   H     0.53529   0.56728   0.18204   0.00000  Uiso   1.00
H257   H     0.43404   0.60736   0.18182   0.00000  Uiso   1.00
H258   H     0.32694   0.37631   0.17107   0.00000  Uiso   1.00
H259   H     0.62495   0.58987   0.17105   0.00000  Uiso   1.00
H260   H     0.41145   0.67439   0.17059   0.00000  Uiso   1.00
H261   H     0.45450   0.54658   0.06753   0.00000  Uiso   1.00
H262   H     0.39403   0.46570   0.06456   0.00000  Uiso   1.00
H263   H     0.53537   0.56698   0.06455   0.00000  Uiso   1.00
H264   H     0.43412   0.60706   0.06433   0.00000  Uiso   1.00
H265   H     0.32701   0.37607   0.07571   0.00000  Uiso   1.00
H266   H     0.62502   0.58962   0.07569   0.00000  Uiso   1.00
H267   H     0.41151   0.67414   0.07523   0.00000  Uiso   1.00
O268   O     0.28721   0.32298   0.12344   0.00000  Uiso   1.00
O269   O     0.67819   0.60317   0.12341   0.00000  Uiso   1.00
O270   O     0.39808   0.71405   0.12281   0.00000  Uiso   1.00
N271   N     0.33525   0.38735   0.14904   0.00000  Uiso   1.00
N272   N     0.61387   0.58701   0.14901   0.00000  Uiso   1.00
N273   N     0.41427   0.66604   0.14859   0.00000  Uiso   1.00
N274   N     0.33528   0.38722   0.09772   0.00000  Uiso   1.00
N275   N     0.61390   0.58688   0.09770   0.00000  Uiso   1.00
N276   N     0.41431   0.66590   0.09727   0.00000  Uiso   1.00
C277   C     0.11987   0.24097   0.48673   0.00000  Uiso   1.00
C278   C     0.16384   0.25210   0.47299   0.00000  Uiso   1.00
C279   C     0.20074   0.26137   0.49002   0.00000  Uiso   1.00
C280   C     0.23778   0.27076   0.47309   0.00000  Uiso   1.00
C281   C     0.30605   0.28805   0.45674   0.00000  Uiso   1.00
C282   C     0.10882   0.27387   0.47298   0.00000  Uiso   1.00
C283   C     0.09945   0.30143   0.49001   0.00000  Uiso   1.00
C284   C     0.09017   0.32915   0.47307   0.00000  Uiso   1.00
C285   C     0.07299   0.38021   0.45671   0.00000  Uiso   1.00
C286   C     0.08705   0.19708   0.47286   0.00000  Uiso   1.00
C287   C     0.05936   0.16008   0.48979   0.00000  Uiso   1.00
C288   C     0.03174   0.12315   0.47276   0.00000  Uiso   1.00
C289   C     0.98076   0.05499   0.45621   0.00000  Uiso   1.00
C290   C     0.12002   0.24116   0.42638   0.00000  Uiso   1.00
C291   C     0.16392   0.25220   0.44021   0.00000  Uiso   1.00
C292   C     0.20091   0.26158   0.42325   0.00000  Uiso   1.00
C293   C     0.23786   0.27087   0.44026   0.00000  Uiso   1.00
C294   C     0.10890   0.27397   0.44021   0.00000  Uiso   1.00
C295   C     0.09962   0.30165   0.42324   0.00000  Uiso   1.00
C296   C     0.09025   0.32926   0.44024   0.00000  Uiso   1.00
C297   C     0.08713   0.19718   0.44009   0.00000  Uiso   1.00
C298   C     0.05954   0.16030   0.42303   0.00000  Uiso   1.00
C299   C     0.03182   0.12326   0.43992   0.00000  Uiso   1.00
H300   H     0.11980   0.24089   0.51225   0.00000  Uiso   1.00
H301   H     0.20066   0.26129   0.51538   0.00000  Uiso   1.00
H302   H     0.09939   0.30134   0.51537   0.00000  Uiso   1.00
H303   H     0.05931   0.16001   0.51515   0.00000  Uiso   1.00
H304   H     0.29036   0.28396   0.50441   0.00000  Uiso   1.00
H305   H     0.07680   0.36842   0.50438   0.00000  Uiso   1.00
H306   H     0.99228   0.07040   0.50392   0.00000  Uiso   1.00
H307   H     0.12008   0.24125   0.40087   0.00000  Uiso   1.00
H308   H     0.20096   0.26166   0.39789   0.00000  Uiso   1.00
H309   H     0.09969   0.30172   0.39788   0.00000  Uiso   1.00
H310   H     0.05961   0.16039   0.39766   0.00000  Uiso   1.00
H311   H     0.29060   0.28427   0.40905   0.00000  Uiso   1.00
H312   H     0.07704   0.36873   0.40902   0.00000  Uiso   1.00
H313   H     0.99253   0.07071   0.40856   0.00000  Uiso   1.00
O314   O     0.34368   0.29756   0.45678   0.00000  Uiso   1.00
O315   O     0.06350   0.40835   0.45675   0.00000  Uiso   1.00
O316   O     0.95262   0.01736   0.45614   0.00000  Uiso   1.00
N317   N     0.27931   0.28123   0.48237   0.00000  Uiso   1.00
N318   N     0.07966   0.36019   0.48235   0.00000  Uiso   1.00
N319   N     0.00063   0.08157   0.48192   0.00000  Uiso   1.00
N320   N     0.27944   0.28139   0.43106   0.00000  Uiso   1.00
N321   N     0.07979   0.36036   0.43103   0.00000  Uiso   1.00
N322   N     0.00076   0.08174   0.43061   0.00000  Uiso   1.00
C323   C     0.78653   0.57430   0.82006   0.00000  Uiso   1.00
C324   C     0.83051   0.58543   0.80632   0.00000  Uiso   1.00
C325   C     0.86741   0.59470   0.82335   0.00000  Uiso   1.00
C326   C     0.90444   0.60409   0.80642   0.00000  Uiso   1.00
C327   C     0.97271   0.62138   0.79007   0.00000  Uiso   1.00
C328   C     0.77549   0.60720   0.80631   0.00000  Uiso   1.00
C329   C     0.76612   0.63477   0.82334   0.00000  Uiso   1.00
C330   C     0.75684   0.66248   0.80641   0.00000  Uiso   1.00
C331   C     0.73966   0.71354   0.79005   0.00000  Uiso   1.00
C332   C     0.75371   0.53041   0.80620   0.00000  Uiso   1.00
C333   C     0.72603   0.49342   0.82312   0.00000  Uiso   1.00
C334   C     0.69841   0.45648   0.80609   0.00000  Uiso   1.00
C335   C     0.64742   0.38832   0.78955   0.00000  Uiso   1.00
C336   C     0.78669   0.57450   0.75972   0.00000  Uiso   1.00
C337   C     0.83059   0.58554   0.77354   0.00000  Uiso   1.00
C338   C     0.86758   0.59492   0.75659   0.00000  Uiso   1.00
C339   C     0.90453   0.60420   0.77359   0.00000  Uiso   1.00
C340   C     0.77557   0.60731   0.77354   0.00000  Uiso   1.00
C341   C     0.76629   0.63498   0.75658   0.00000  Uiso   1.00
C342   C     0.75692   0.66259   0.77357   0.00000  Uiso   1.00
C343   C     0.75380   0.53052   0.77342   0.00000  Uiso   1.00
C344   C     0.72620   0.49363   0.75636   0.00000  Uiso   1.00
C345   C     0.69849   0.45659   0.77325   0.00000  Uiso   1.00
H346   H     0.78647   0.57422   0.84558   0.00000  Uiso   1.00
H347   H     0.86733   0.59462   0.84872   0.00000  Uiso   1.00
H348   H     0.76606   0.63468   0.84870   0.00000  Uiso   1.00
H349   H     0.72598   0.49335   0.84849   0.00000  Uiso   1.00
H350   H     0.95702   0.61730   0.83774   0.00000  Uiso   1.00
H351   H     0.74347   0.70175   0.83771   0.00000  Uiso   1.00
H352   H     0.65895   0.40373   0.83725   0.00000  Uiso   1.00
H353   H     0.78675   0.57458   0.73420   0.00000  Uiso   1.00
H354   H     0.86763   0.59500   0.73122   0.00000  Uiso   1.00
H355   H     0.76636   0.63506   0.73121   0.00000  Uiso   1.00
H356   H     0.72628   0.49373   0.73100   0.00000  Uiso   1.00
H357   H     0.95727   0.61761   0.74238   0.00000  Uiso   1.00
H358   H     0.74371   0.70206   0.74235   0.00000  Uiso   1.00
H359   H     0.65919   0.40404   0.74189   0.00000  Uiso   1.00
O360   O     0.01035   0.63089   0.79011   0.00000  Uiso   1.00
O361   O     0.73016   0.74168   0.79008   0.00000  Uiso   1.00
O362   O     0.61928   0.35069   0.78948   0.00000  Uiso   1.00
N363   N     0.94598   0.61456   0.81570   0.00000  Uiso   1.00
N364   N     0.74632   0.69352   0.81568   0.00000  Uiso   1.00
N365   N     0.66730   0.41490   0.81525   0.00000  Uiso   1.00
N366   N     0.94611   0.61473   0.76439   0.00000  Uiso   1.00
N367   N     0.74645   0.69369   0.76437   0.00000  Uiso   1.00
N368   N     0.66743   0.41507   0.76394   0.00000  Uiso   1.00
C369   C     0.45320   0.90763   0.15339   0.00000  Uiso   1.00
C370   C     0.49717   0.91876   0.13965   0.00000  Uiso   1.00
C371   C     0.53407   0.92803   0.15668   0.00000  Uiso   1.00
C372   C     0.57111   0.93743   0.13976   0.00000  Uiso   1.00
C373   C     0.63938   0.95471   0.12341   0.00000  Uiso   1.00
C374   C     0.44215   0.94053   0.13965   0.00000  Uiso   1.00
C375   C     0.43279   0.96810   0.15667   0.00000  Uiso   1.00
C376   C     0.42350   0.99582   0.13974   0.00000  Uiso   1.00
C377   C     0.40632   0.04688   0.12338   0.00000  Uiso   1.00
C378   C     0.42038   0.86374   0.13953   0.00000  Uiso   1.00
C379   C     0.39270   0.82675   0.15646   0.00000  Uiso   1.00
C380   C     0.36507   0.78982   0.13942   0.00000  Uiso   1.00
C381   C     0.31409   0.72165   0.12288   0.00000  Uiso   1.00
C382   C     0.45335   0.90783   0.09305   0.00000  Uiso   1.00
C383   C     0.49725   0.91887   0.10688   0.00000  Uiso   1.00
C384   C     0.53424   0.92825   0.08992   0.00000  Uiso   1.00
C385   C     0.57119   0.93753   0.10692   0.00000  Uiso   1.00
C386   C     0.44224   0.94064   0.10687   0.00000  Uiso   1.00
C387   C     0.43296   0.96832   0.08991   0.00000  Uiso   1.00
C388   C     0.42359   0.99592   0.10690   0.00000  Uiso   1.00
C389   C     0.42046   0.86385   0.10675   0.00000  Uiso   1.00
C390   C     0.39287   0.82697   0.08969   0.00000  Uiso   1.00
C391   C     0.36516   0.78992   0.10659   0.00000  Uiso   1.00
H392   H     0.45313   0.90755   0.17891   0.00000  Uiso   1.00
H393   H     0.53400   0.92795   0.18205   0.00000  Uiso   1.00
H394   H     0.43272   0.96801   0.18204   0.00000  Uiso   1.00
H395   H     0.39264   0.82668   0.18182   0.00000  Uiso   1.00
H396   H     0.62369   0.95063   0.17107   0.00000  Uiso   1.00
H397   H     0.41013   0.03508   0.17105   0.00000  Uiso   1.00
H398   H     0.32561   0.73706   0.17059   0.00000  Uiso   1.00
H399   H     0.45342   0.90791   0.06753   0.00000  Uiso   1.00
H400   H     0.53430   0.92833   0.06456   0.00000  Uiso   1.00
H401   H     0.43302   0.96839   0.06455   0.00000  Uiso   1.00
H402   H     0.39294   0.82706   0.06433   0.00000  Uiso   1.00
H403   H     0.62393   0.95094   0.07571   0.00000  Uiso   1.00
H404   H     0.41038   0.03539   0.07569   0.00000  Uiso   1.00
H405   H     0.32586   0.73737   0.07523   0.00000  Uiso   1.00
O406   O     0.67702   0.96422   0.12344   0.00000  Uiso   1.00
O407   O     0.39683   0.07502   0.12341   0.00000  Uiso   1.00
O408   O     0.28595   0.68402   0.12281   0.00000  Uiso   1.00
N409   N     0.61265   0.94789   0.14904   0.00000  Uiso   1.00
N410   N     0.41299   0.02686   0.14901   0.00000  Uiso   1.00
N411   N     0.33396   0.74824   0.14859   0.00000  Uiso   1.00
N412   N     0.61278   0.94806   0.09772   0.00000  Uiso   1.00
N413   N     0.41312   0.02702   0.09770   0.00000  Uiso   1.00
N414   N     0.33410   0.74840   0.09727   0.00000  Uiso   1.00
C415   C     0.87890   0.75903   0.01327   0.00000  Uiso   1.00
C416   C     0.91174   0.74790   0.02701   0.00000  Uiso   1.00
C417   C     0.93937   0.73863   0.00998   0.00000  Uiso   1.00
C418   C     0.96701   0.72924   0.02691   0.00000  Uiso   1.00
C419   C     0.01800   0.71195   0.04326   0.00000  Uiso   1.00
C420   C     0.83495   0.72613   0.02702   0.00000  Uiso   1.00
C421   C     0.79802   0.69857   0.00999   0.00000  Uiso   1.00
C422   C     0.76102   0.67085   0.02693   0.00000  Uiso   1.00
C423   C     0.69278   0.61979   0.04329   0.00000  Uiso   1.00
C424   C     0.88997   0.80292   0.02714   0.00000  Uiso   1.00
C425   C     0.89928   0.83992   0.01021   0.00000  Uiso   1.00
C426   C     0.90859   0.87685   0.02724   0.00000  Uiso   1.00
C427   C     0.92577   0.94501   0.04379   0.00000  Uiso   1.00
C428   C     0.87886   0.75884   0.07362   0.00000  Uiso   1.00
C429   C     0.91172   0.74780   0.05979   0.00000  Uiso   1.00
C430   C     0.93933   0.73842   0.07675   0.00000  Uiso   1.00
C431   C     0.96699   0.72913   0.05974   0.00000  Uiso   1.00
C432   C     0.83493   0.72603   0.05979   0.00000  Uiso   1.00
C433   C     0.79797   0.69835   0.07676   0.00000  Uiso   1.00
C434   C     0.76099   0.67074   0.05976   0.00000  Uiso   1.00
C435   C     0.88995   0.80282   0.05991   0.00000  Uiso   1.00
C436   C     0.89924   0.83970   0.07697   0.00000  Uiso   1.00
C437   C     0.90856   0.87674   0.06008   0.00000  Uiso   1.00
H438   H     0.87891   0.75911   0.98775   0.00000  Uiso   1.00
H439   H     0.93938   0.73871   0.98462   0.00000  Uiso   1.00
H440   H     0.79805   0.69866   0.98463   0.00000  Uiso   1.00
H441   H     0.89930   0.83999   0.98485   0.00000  Uiso   1.00
H442   H     0.00639   0.71604   0.99559   0.00000  Uiso   1.00
H443   H     0.70838   0.63158   0.99562   0.00000  Uiso   1.00
H444   H     0.92188   0.92960   0.99608   0.00000  Uiso   1.00
H445   H     0.87884   0.75875   0.09913   0.00000  Uiso   1.00
H446   H     0.93930   0.73834   0.10211   0.00000  Uiso   1.00
H447   H     0.79797   0.69828   0.10212   0.00000  Uiso   1.00
H448   H     0.89922   0.83961   0.10234   0.00000  Uiso   1.00
H449   H     0.00633   0.71573   0.09095   0.00000  Uiso   1.00
H450   H     0.70832   0.63127   0.09098   0.00000  Uiso   1.00
H451   H     0.92182   0.92929   0.09144   0.00000  Uiso   1.00
O452   O     0.04613   0.70244   0.04322   0.00000  Uiso   1.00
O453   O     0.65515   0.59165   0.04325   0.00000  Uiso   1.00
O454   O     0.93526   0.98264   0.04386   0.00000  Uiso   1.00
N455   N     0.99809   0.71877   0.01763   0.00000  Uiso   1.00
N456   N     0.71947   0.63981   0.01765   0.00000  Uiso   1.00
N457   N     0.91906   0.91843   0.01808   0.00000  Uiso   1.00
N458   N     0.99805   0.71861   0.06894   0.00000  Uiso   1.00
N459   N     0.71943   0.63964   0.06897   0.00000  Uiso   1.00
N460   N     0.91903   0.91826   0.06939   0.00000  Uiso   1.00
C461   C     0.54557   0.09237   0.34661   0.00000  Uiso   1.00
C462   C     0.57841   0.08124   0.36035   0.00000  Uiso   1.00
C463   C     0.60604   0.07197   0.34332   0.00000  Uiso   1.00
C464   C     0.63368   0.06257   0.36024   0.00000  Uiso   1.00
C465   C     0.68467   0.04529   0.37659   0.00000  Uiso   1.00
C466   C     0.50162   0.05947   0.36035   0.00000  Uiso   1.00
C467   C     0.46469   0.03190   0.34333   0.00000  Uiso   1.00
C468   C     0.42769   0.00418   0.36026   0.00000  Uiso   1.00
C469   C     0.35945   0.95312   0.37662   0.00000  Uiso   1.00
C470   C     0.55664   0.13626   0.36047   0.00000  Uiso   1.00
C471   C     0.56595   0.17325   0.34354   0.00000  Uiso   1.00
C472   C     0.57526   0.21018   0.36058   0.00000  Uiso   1.00
C473   C     0.59244   0.27835   0.37712   0.00000  Uiso   1.00
C474   C     0.54552   0.09217   0.40695   0.00000  Uiso   1.00
C475   C     0.57838   0.08113   0.39312   0.00000  Uiso   1.00
C476   C     0.60599   0.07175   0.41008   0.00000  Uiso   1.00
C477   C     0.63366   0.06247   0.39308   0.00000  Uiso   1.00
C478   C     0.50160   0.05936   0.39313   0.00000  Uiso   1.00
C479   C     0.46464   0.03168   0.41009   0.00000  Uiso   1.00
C480   C     0.42766   0.00408   0.39310   0.00000  Uiso   1.00
C481   C     0.55661   0.13615   0.39325   0.00000  Uiso   1.00
C482   C     0.56590   0.17303   0.41031   0.00000  Uiso   1.00
C483   C     0.57523   0.21008   0.39341   0.00000  Uiso   1.00
H484   H     0.54558   0.09245   0.32109   0.00000  Uiso   1.00
H485   H     0.60604   0.07205   0.31795   0.00000  Uiso   1.00
H486   H     0.46471   0.03199   0.31796   0.00000  Uiso   1.00
H487   H     0.56596   0.17332   0.31818   0.00000  Uiso   1.00
H488   H     0.67306   0.04937   0.32893   0.00000  Uiso   1.00
H489   H     0.37505   0.96492   0.32895   0.00000  Uiso   1.00
H490   H     0.58855   0.26294   0.32941   0.00000  Uiso   1.00
H491   H     0.54550   0.09209   0.43247   0.00000  Uiso   1.00
H492   H     0.60597   0.07167   0.43544   0.00000  Uiso   1.00
H493   H     0.46463   0.03161   0.43545   0.00000  Uiso   1.00
H494   H     0.56588   0.17294   0.43567   0.00000  Uiso   1.00
H495   H     0.67299   0.04906   0.42429   0.00000  Uiso   1.00
H496   H     0.37498   0.96461   0.42431   0.00000  Uiso   1.00
H497   H     0.58849   0.26263   0.42477   0.00000  Uiso   1.00
O498   O     0.71279   0.03578   0.37656   0.00000  Uiso   1.00
O499   O     0.32181   0.92498   0.37659   0.00000  Uiso   1.00
O500   O     0.60192   0.31598   0.37719   0.00000  Uiso   1.00
N501   N     0.66475   0.05211   0.35096   0.00000  Uiso   1.00
N502   N     0.38613   0.97314   0.35099   0.00000  Uiso   1.00
N503   N     0.58573   0.25176   0.35141   0.00000  Uiso   1.00
N504   N     0.66472   0.05194   0.40228   0.00000  Uiso   1.00
N505   N     0.38610   0.97298   0.40230   0.00000  Uiso   1.00
N506   N     0.58569   0.25160   0.40273   0.00000  Uiso   1.00
C507   C     0.21223   0.42570   0.67994   0.00000  Uiso   1.00
C508   C     0.24508   0.41457   0.69368   0.00000  Uiso   1.00
C509   C     0.27271   0.40530   0.67665   0.00000  Uiso   1.00
C510   C     0.30035   0.39591   0.69358   0.00000  Uiso   1.00
C511   C     0.35133   0.37862   0.70993   0.00000  Uiso   1.00
C512   C     0.16829   0.39280   0.69369   0.00000  Uiso   1.00
C513   C     0.13135   0.36523   0.67666   0.00000  Uiso   1.00
C514   C     0.09435   0.33752   0.69359   0.00000  Uiso   1.00
C515   C     0.02611   0.28646   0.70995   0.00000  Uiso   1.00
C516   C     0.22330   0.46959   0.69380   0.00000  Uiso   1.00
C517   C     0.23261   0.50658   0.67688   0.00000  Uiso   1.00
C518   C     0.24192   0.54352   0.69391   0.00000  Uiso   1.00
C519   C     0.25910   0.61168   0.71045   0.00000  Uiso   1.00
C520   C     0.21219   0.42550   0.74028   0.00000  Uiso   1.00
C521   C     0.24505   0.41446   0.72646   0.00000  Uiso   1.00
C522   C     0.27266   0.40508   0.74341   0.00000  Uiso   1.00
C523   C     0.30033   0.39580   0.72641   0.00000  Uiso   1.00
C524   C     0.16826   0.39269   0.72646   0.00000  Uiso   1.00
C525   C     0.13131   0.36502   0.74342   0.00000  Uiso   1.00
C526   C     0.09433   0.33741   0.72643   0.00000  Uiso   1.00
C527   C     0.22328   0.46948   0.72658   0.00000  Uiso   1.00
C528   C     0.23257   0.50637   0.74364   0.00000  Uiso   1.00
C529   C     0.24190   0.54341   0.72675   0.00000  Uiso   1.00
H530   H     0.21225   0.42578   0.65442   0.00000  Uiso   1.00
H531   H     0.27271   0.40538   0.65128   0.00000  Uiso   1.00
H532   H     0.13138   0.36532   0.65130   0.00000  Uiso   1.00
H533   H     0.23263   0.50665   0.65151   0.00000  Uiso   1.00
H534   H     0.33973   0.38270   0.66226   0.00000  Uiso   1.00
H535   H     0.04172   0.29825   0.66229   0.00000  Uiso   1.00
H536   H     0.25522   0.59627   0.66275   0.00000  Uiso   1.00
H537   H     0.21217   0.42542   0.76580   0.00000  Uiso   1.00
H538   H     0.27263   0.40500   0.76878   0.00000  Uiso   1.00
H539   H     0.13130   0.36494   0.76879   0.00000  Uiso   1.00
H540   H     0.23255   0.50627   0.76900   0.00000  Uiso   1.00
H541   H     0.33966   0.38239   0.75762   0.00000  Uiso   1.00
H542   H     0.04165   0.29794   0.75765   0.00000  Uiso   1.00
H543   H     0.25515   0.59596   0.75811   0.00000  Uiso   1.00
O544   O     0.37946   0.36911   0.70989   0.00000  Uiso   1.00
O545   O     0.98848   0.25832   0.70992   0.00000  Uiso   1.00
O546   O     0.26859   0.64931   0.71052   0.00000  Uiso   1.00
N547   N     0.33142   0.38544   0.68430   0.00000  Uiso   1.00
N548   N     0.05280   0.30648   0.68432   0.00000  Uiso   1.00
N549   N     0.25239   0.58510   0.68475   0.00000  Uiso   1.00
N550   N     0.33138   0.38527   0.73561   0.00000  Uiso   1.00
N551   N     0.05276   0.30631   0.73563   0.00000  Uiso   1.00
N552   N     0.25236   0.58493   0.73606   0.00000  Uiso   1.00
C553   C     0.88013   0.12110   0.01327   0.00000  Uiso   1.00
C554   C     0.83616   0.08826   0.02701   0.00000  Uiso   1.00
C555   C     0.79926   0.06063   0.00998   0.00000  Uiso   1.00
C556   C     0.76222   0.03299   0.02691   0.00000  Uiso   1.00
C557   C     0.69395   0.98200   0.04326   0.00000  Uiso   1.00
C558   C     0.89118   0.16505   0.02702   0.00000  Uiso   1.00
C559   C     0.90055   0.20198   0.00999   0.00000  Uiso   1.00
C560   C     0.90983   0.23898   0.02693   0.00000  Uiso   1.00
C561   C     0.92701   0.30722   0.04329   0.00000  Uiso   1.00
C562   C     0.91295   0.11003   0.02714   0.00000  Uiso   1.00
C563   C     0.94064   0.10072   0.01021   0.00000  Uiso   1.00
C564   C     0.96826   0.09141   0.02724   0.00000  Uiso   1.00
C565   C     0.01924   0.07423   0.04379   0.00000  Uiso   1.00
C566   C     0.87998   0.12114   0.07362   0.00000  Uiso   1.00
C567   C     0.83608   0.08828   0.05979   0.00000  Uiso   1.00
C568   C     0.79909   0.06067   0.07675   0.00000  Uiso   1.00
C569   C     0.76214   0.03301   0.05974   0.00000  Uiso   1.00
C570   C     0.89110   0.16507   0.05979   0.00000  Uiso   1.00
C571   C     0.90038   0.20203   0.07676   0.00000  Uiso   1.00
C572   C     0.90975   0.23901   0.05976   0.00000  Uiso   1.00
C573   C     0.91287   0.11005   0.05991   0.00000  Uiso   1.00
C574   C     0.94046   0.10076   0.07697   0.00000  Uiso   1.00
C575   C     0.96818   0.09144   0.06008   0.00000  Uiso   1.00
H576   H     0.88020   0.12109   0.98775   0.00000  Uiso   1.00
H577   H     0.79934   0.06062   0.98462   0.00000  Uiso   1.00
H578   H     0.90061   0.20195   0.98463   0.00000  Uiso   1.00
H579   H     0.94069   0.10070   0.98485   0.00000  Uiso   1.00
H580   H     0.70964   0.99361   0.99559   0.00000  Uiso   1.00
H581   H     0.92320   0.29162   0.99562   0.00000  Uiso   1.00
H582   H     0.00772   0.07812   0.99608   0.00000  Uiso   1.00
H583   H     0.87992   0.12116   0.09913   0.00000  Uiso   1.00
H584   H     0.79904   0.06070   0.10211   0.00000  Uiso   1.00
H585   H     0.90031   0.20203   0.10212   0.00000  Uiso   1.00
H586   H     0.94039   0.10078   0.10234   0.00000  Uiso   1.00
H587   H     0.70940   0.99367   0.09095   0.00000  Uiso   1.00
H588   H     0.92296   0.29168   0.09098   0.00000  Uiso   1.00
H589   H     0.00747   0.07818   0.09144   0.00000  Uiso   1.00
O590   O     0.65632   0.95387   0.04322   0.00000  Uiso   1.00
O591   O     0.93650   0.34485   0.04325   0.00000  Uiso   1.00
O592   O     0.04738   0.06474   0.04386   0.00000  Uiso   1.00
N593   N     0.72069   0.00191   0.01763   0.00000  Uiso   1.00
N594   N     0.92034   0.28053   0.01765   0.00000  Uiso   1.00
N595   N     0.99937   0.08094   0.01808   0.00000  Uiso   1.00
N596   N     0.72056   0.00195   0.06894   0.00000  Uiso   1.00
N597   N     0.92021   0.28057   0.06897   0.00000  Uiso   1.00
N598   N     0.99924   0.08097   0.06939   0.00000  Uiso   1.00
C599   C     0.54680   0.45443   0.34661   0.00000  Uiso   1.00
C600   C     0.50283   0.42159   0.36035   0.00000  Uiso   1.00
C601   C     0.46593   0.39396   0.34332   0.00000  Uiso   1.00
C602   C     0.42889   0.36632   0.36024   0.00000  Uiso   1.00
C603   C     0.36062   0.31533   0.37659   0.00000  Uiso   1.00
C604   C     0.55785   0.49838   0.36035   0.00000  Uiso   1.00
C605   C     0.56721   0.53531   0.34333   0.00000  Uiso   1.00
C606   C     0.57650   0.57231   0.36026   0.00000  Uiso   1.00
C607   C     0.59368   0.64055   0.37662   0.00000  Uiso   1.00
C608   C     0.57962   0.44336   0.36047   0.00000  Uiso   1.00
C609   C     0.60730   0.43405   0.34354   0.00000  Uiso   1.00
C610   C     0.63493   0.42474   0.36058   0.00000  Uiso   1.00
C611   C     0.68591   0.40756   0.37712   0.00000  Uiso   1.00
C612   C     0.54665   0.45448   0.40695   0.00000  Uiso   1.00
C613   C     0.50275   0.42162   0.39312   0.00000  Uiso   1.00
C614   C     0.46576   0.39401   0.41008   0.00000  Uiso   1.00
C615   C     0.42881   0.36634   0.39308   0.00000  Uiso   1.00
C616   C     0.55776   0.49840   0.39313   0.00000  Uiso   1.00
C617   C     0.56704   0.53536   0.41009   0.00000  Uiso   1.00
C618   C     0.57641   0.57234   0.39310   0.00000  Uiso   1.00
C619   C     0.57954   0.44339   0.39325   0.00000  Uiso   1.00
C620   C     0.60713   0.43410   0.41031   0.00000  Uiso   1.00
C621   C     0.63484   0.42477   0.39341   0.00000  Uiso   1.00
H622   H     0.54687   0.45442   0.32109   0.00000  Uiso   1.00
H623   H     0.46600   0.39396   0.31795   0.00000  Uiso   1.00
H624   H     0.56728   0.53529   0.31796   0.00000  Uiso   1.00
H625   H     0.60736   0.43404   0.31818   0.00000  Uiso   1.00
H626   H     0.37631   0.32694   0.32893   0.00000  Uiso   1.00
H627   H     0.58987   0.62495   0.32895   0.00000  Uiso   1.00
H628   H     0.67439   0.41145   0.32941   0.00000  Uiso   1.00
H629   H     0.54658   0.45450   0.43247   0.00000  Uiso   1.00
H630   H     0.46570   0.39403   0.43544   0.00000  Uiso   1.00
H631   H     0.56698   0.53537   0.43545   0.00000  Uiso   1.00
H632   H     0.60706   0.43412   0.43567   0.00000  Uiso   1.00
H633   H     0.37607   0.32701   0.42429   0.00000  Uiso   1.00
H634   H     0.58962   0.62502   0.42431   0.00000  Uiso   1.00
H635   H     0.67414   0.41151   0.42477   0.00000  Uiso   1.00
O636   O     0.32298   0.28721   0.37656   0.00000  Uiso   1.00
O637   O     0.60317   0.67819   0.37659   0.00000  Uiso   1.00
O638   O     0.71405   0.39808   0.37719   0.00000  Uiso   1.00
N639   N     0.38735   0.33525   0.35096   0.00000  Uiso   1.00
N640   N     0.58701   0.61387   0.35099   0.00000  Uiso   1.00
N641   N     0.66604   0.41427   0.35141   0.00000  Uiso   1.00
N642   N     0.38722   0.33528   0.40228   0.00000  Uiso   1.00
N643   N     0.58688   0.61390   0.40230   0.00000  Uiso   1.00
N644   N     0.66590   0.41431   0.40273   0.00000  Uiso   1.00
C645   C     0.21347   0.78777   0.67994   0.00000  Uiso   1.00
C646   C     0.16949   0.75492   0.69368   0.00000  Uiso   1.00
C647   C     0.13259   0.72729   0.67665   0.00000  Uiso   1.00
C648   C     0.09556   0.69965   0.69358   0.00000  Uiso   1.00
C649   C     0.02729   0.64867   0.70993   0.00000  Uiso   1.00
C650   C     0.22451   0.83171   0.69369   0.00000  Uiso   1.00
C651   C     0.23388   0.86865   0.67666   0.00000  Uiso   1.00
C652   C     0.24316   0.90565   0.69359   0.00000  Uiso   1.00
C653   C     0.26034   0.97389   0.70995   0.00000  Uiso   1.00
C654   C     0.24629   0.77670   0.69380   0.00000  Uiso   1.00
C655   C     0.27397   0.76739   0.67688   0.00000  Uiso   1.00
C656   C     0.30159   0.75808   0.69391   0.00000  Uiso   1.00
C657   C     0.35258   0.74090   0.71045   0.00000  Uiso   1.00
C658   C     0.21331   0.78781   0.74028   0.00000  Uiso   1.00
C659   C     0.16941   0.75495   0.72646   0.00000  Uiso   1.00
C660   C     0.13242   0.72734   0.74341   0.00000  Uiso   1.00
C661   C     0.09547   0.69967   0.72641   0.00000  Uiso   1.00
C662   C     0.22443   0.83174   0.72646   0.00000  Uiso   1.00
C663   C     0.23371   0.86869   0.74342   0.00000  Uiso   1.00
C664   C     0.24308   0.90567   0.72643   0.00000  Uiso   1.00
C665   C     0.24620   0.77672   0.72658   0.00000  Uiso   1.00
C666   C     0.27380   0.76743   0.74364   0.00000  Uiso   1.00
C667   C     0.30151   0.75810   0.72675   0.00000  Uiso   1.00
H668   H     0.21353   0.78775   0.65442   0.00000  Uiso   1.00
H669   H     0.13267   0.72729   0.65128   0.00000  Uiso   1.00
H670   H     0.23394   0.86862   0.65130   0.00000  Uiso   1.00
H671   H     0.27402   0.76737   0.65151   0.00000  Uiso   1.00
H672   H     0.04298   0.66027   0.66226   0.00000  Uiso   1.00
H673   H     0.25653   0.95828   0.66229   0.00000  Uiso   1.00
H674   H     0.34105   0.74478   0.66275   0.00000  Uiso   1.00
H675   H     0.21325   0.78783   0.76580   0.00000  Uiso   1.00
H676   H     0.13237   0.72737   0.76878   0.00000  Uiso   1.00
H677   H     0.23364   0.86870   0.76879   0.00000  Uiso   1.00
H678   H     0.27372   0.76745   0.76900   0.00000  Uiso   1.00
H679   H     0.04273   0.66034   0.75762   0.00000  Uiso   1.00
H680   H     0.25629   0.95835   0.75765   0.00000  Uiso   1.00
H681   H     0.34081   0.74485   0.75811   0.00000  Uiso   1.00
O682   O     0.98965   0.62054   0.70989   0.00000  Uiso   1.00
O683   O     0.26984   0.01152   0.70992   0.00000  Uiso   1.00
O684   O     0.38072   0.73141   0.71052   0.00000  Uiso   1.00
N685   N     0.05402   0.66858   0.68430   0.00000  Uiso   1.00
N686   N     0.25368   0.94720   0.68432   0.00000  Uiso   1.00
N687   N     0.33270   0.74761   0.68475   0.00000  Uiso   1.00
N688   N     0.05389   0.66862   0.73561   0.00000  Uiso   1.00
N689   N     0.25355   0.94724   0.73563   0.00000  Uiso   1.00
N690   N     0.33257   0.74764   0.73606   0.00000  Uiso   1.00
C691   C     0.24097   0.11987   0.01327   0.00000  Uiso   1.00
C692   C     0.25210   0.16384   0.02701   0.00000  Uiso   1.00
C693   C     0.26137   0.20074   0.00998   0.00000  Uiso   1.00
C694   C     0.27076   0.23778   0.02691   0.00000  Uiso   1.00
C695   C     0.28805   0.30605   0.04326   0.00000  Uiso   1.00
C696   C     0.27387   0.10882   0.02702   0.00000  Uiso   1.00
C697   C     0.30143   0.09945   0.00999   0.00000  Uiso   1.00
C698   C     0.32915   0.09017   0.02693   0.00000  Uiso   1.00
C699   C     0.38021   0.07299   0.04329   0.00000  Uiso   1.00
C700   C     0.19708   0.08705   0.02714   0.00000  Uiso   1.00
C701   C     0.16008   0.05936   0.01021   0.00000  Uiso   1.00
C702   C     0.12315   0.03174   0.02724   0.00000  Uiso   1.00
C703   C     0.05499   0.98076   0.04379   0.00000  Uiso   1.00
C704   C     0.24116   0.12002   0.07362   0.00000  Uiso   1.00
C705   C     0.25220   0.16392   0.05979   0.00000  Uiso   1.00
C706   C     0.26158   0.20091   0.07675   0.00000  Uiso   1.00
C707   C     0.27087   0.23786   0.05974   0.00000  Uiso   1.00
C708   C     0.27397   0.10890   0.05979   0.00000  Uiso   1.00
C709   C     0.30165   0.09962   0.07676   0.00000  Uiso   1.00
C710   C     0.32926   0.09025   0.05976   0.00000  Uiso   1.00
C711   C     0.19718   0.08713   0.05991   0.00000  Uiso   1.00
C712   C     0.16030   0.05954   0.07697   0.00000  Uiso   1.00
C713   C     0.12326   0.03182   0.06008   0.00000  Uiso   1.00
H714   H     0.24089   0.11980   0.98775   0.00000  Uiso   1.00
H715   H     0.26129   0.20066   0.98462   0.00000  Uiso   1.00
H716   H     0.30134   0.09939   0.98463   0.00000  Uiso   1.00
H717   H     0.16001   0.05931   0.98485   0.00000  Uiso   1.00
H718   H     0.28396   0.29036   0.99559   0.00000  Uiso   1.00
H719   H     0.36842   0.07680   0.99562   0.00000  Uiso   1.00
H720   H     0.07040   0.99228   0.99608   0.00000  Uiso   1.00
H721   H     0.24125   0.12008   0.09913   0.00000  Uiso   1.00
H722   H     0.26166   0.20096   0.10211   0.00000  Uiso   1.00
H723   H     0.30172   0.09969   0.10212   0.00000  Uiso   1.00
H724   H     0.16039   0.05961   0.10234   0.00000  Uiso   1.00
H725   H     0.28427   0.29060   0.09095   0.00000  Uiso   1.00
H726   H     0.36873   0.07704   0.09098   0.00000  Uiso   1.00
H727   H     0.07071   0.99253   0.09144   0.00000  Uiso   1.00
O728   O     0.29756   0.34368   0.04322   0.00000  Uiso   1.00
O729   O     0.40835   0.06350   0.04325   0.00000  Uiso   1.00
O730   O     0.01736   0.95262   0.04386   0.00000  Uiso   1.00
N731   N     0.28123   0.27931   0.01763   0.00000  Uiso   1.00
N732   N     0.36019   0.07966   0.01765   0.00000  Uiso   1.00
N733   N     0.08157   0.00063   0.01808   0.00000  Uiso   1.00
N734   N     0.28139   0.27944   0.06894   0.00000  Uiso   1.00
N735   N     0.36036   0.07979   0.06897   0.00000  Uiso   1.00
N736   N     0.08174   0.00076   0.06939   0.00000  Uiso   1.00
C737   C     0.90763   0.45320   0.34661   0.00000  Uiso   1.00
C738   C     0.91876   0.49717   0.36035   0.00000  Uiso   1.00
C739   C     0.92803   0.53407   0.34332   0.00000  Uiso   1.00
C740   C     0.93743   0.57111   0.36024   0.00000  Uiso   1.00
C741   C     0.95471   0.63938   0.37659   0.00000  Uiso   1.00
C742   C     0.94053   0.44215   0.36035   0.00000  Uiso   1.00
C743   C     0.96810   0.43279   0.34333   0.00000  Uiso   1.00
C744   C     0.99582   0.42350   0.36026   0.00000  Uiso   1.00
C745   C     0.04688   0.40632   0.37662   0.00000  Uiso   1.00
C746   C     0.86374   0.42038   0.36047   0.00000  Uiso   1.00
C747   C     0.82675   0.39270   0.34354   0.00000  Uiso   1.00
C748   C     0.78982   0.36507   0.36058   0.00000  Uiso   1.00
C749   C     0.72165   0.31409   0.37712   0.00000  Uiso   1.00
C750   C     0.90783   0.45335   0.40695   0.00000  Uiso   1.00
C751   C     0.91887   0.49725   0.39312   0.00000  Uiso   1.00
C752   C     0.92825   0.53424   0.41008   0.00000  Uiso   1.00
C753   C     0.93753   0.57119   0.39308   0.00000  Uiso   1.00
C754   C     0.94064   0.44224   0.39313   0.00000  Uiso   1.00
C755   C     0.96832   0.43296   0.41009   0.00000  Uiso   1.00
C756   C     0.99592   0.42359   0.39310   0.00000  Uiso   1.00
C757   C     0.86385   0.42046   0.39325   0.00000  Uiso   1.00
C758   C     0.82697   0.39287   0.41031   0.00000  Uiso   1.00
C759   C     0.78992   0.36516   0.39341   0.00000  Uiso   1.00
H760   H     0.90755   0.45313   0.32109   0.00000  Uiso   1.00
H761   H     0.92795   0.53400   0.31795   0.00000  Uiso   1.00
H762   H     0.96801   0.43272   0.31796   0.00000  Uiso   1.00
H763   H     0.82668   0.39264   0.31818   0.00000  Uiso   1.00
H764   H     0.95063   0.62369   0.32893   0.00000  Uiso   1.00
H765   H     0.03508   0.41013   0.32895   0.00000  Uiso   1.00
H766   H     0.73706   0.32561   0.32941   0.00000  Uiso   1.00
H767   H     0.90791   0.45342   0.43247   0.00000  Uiso   1.00
H768   H     0.92833   0.53430   0.43544   0.00000  Uiso   1.00
H769   H     0.96839   0.43302   0.43545   0.00000  Uiso   1.00
H770   H     0.82706   0.39294   0.43567   0.00000  Uiso   1.00
H771   H     0.95094   0.62393   0.42429   0.00000  Uiso   1.00
H772   H     0.03539   0.41038   0.42431   0.00000  Uiso   1.00
H773   H     0.73737   0.32586   0.42477   0.00000  Uiso   1.00
O774   O     0.96422   0.67702   0.37656   0.00000  Uiso   1.00
O775   O     0.07502   0.39683   0.37659   0.00000  Uiso   1.00
O776   O     0.68402   0.28595   0.37719   0.00000  Uiso   1.00
N777   N     0.94789   0.61265   0.35096   0.00000  Uiso   1.00
N778   N     0.02686   0.41299   0.35099   0.00000  Uiso   1.00
N779   N     0.74824   0.33396   0.35141   0.00000  Uiso   1.00
N780   N     0.94806   0.61278   0.40228   0.00000  Uiso   1.00
N781   N     0.02702   0.41312   0.40230   0.00000  Uiso   1.00
N782   N     0.74840   0.33410   0.40273   0.00000  Uiso   1.00
C783   C     0.57430   0.78653   0.67994   0.00000  Uiso   1.00
C784   C     0.58543   0.83051   0.69368   0.00000  Uiso   1.00
C785   C     0.59470   0.86741   0.67665   0.00000  Uiso   1.00
C786   C     0.60409   0.90444   0.69358   0.00000  Uiso   1.00
C787   C     0.62138   0.97271   0.70993   0.00000  Uiso   1.00
C788   C     0.60720   0.77549   0.69369   0.00000  Uiso   1.00
C789   C     0.63477   0.76612   0.67666   0.00000  Uiso   1.00
C790   C     0.66248   0.75684   0.69359   0.00000  Uiso   1.00
C791   C     0.71354   0.73966   0.70995   0.00000  Uiso   1.00
C792   C     0.53041   0.75371   0.69380   0.00000  Uiso   1.00
C793   C     0.49342   0.72603   0.67688   0.00000  Uiso   1.00
C794   C     0.45648   0.69841   0.69391   0.00000  Uiso   1.00
C795   C     0.38832   0.64742   0.71045   0.00000  Uiso   1.00
C796   C     0.57450   0.78669   0.74028   0.00000  Uiso   1.00
C797   C     0.58554   0.83059   0.72646   0.00000  Uiso   1.00
C798   C     0.59492   0.86758   0.74341   0.00000  Uiso   1.00
C799   C     0.60420   0.90453   0.72641   0.00000  Uiso   1.00
C800   C     0.60731   0.77557   0.72646   0.00000  Uiso   1.00
C801   C     0.63498   0.76629   0.74342   0.00000  Uiso   1.00
C802   C     0.66259   0.75692   0.72643   0.00000  Uiso   1.00
C803   C     0.53052   0.75380   0.72658   0.00000  Uiso   1.00
C804   C     0.49363   0.72620   0.74364   0.00000  Uiso   1.00
C805   C     0.45659   0.69849   0.72675   0.00000  Uiso   1.00
H806   H     0.57422   0.78647   0.65442   0.00000  Uiso   1.00
H807   H     0.59462   0.86733   0.65128   0.00000  Uiso   1.00
H808   H     0.63468   0.76606   0.65130   0.00000  Uiso   1.00
H809   H     0.49335   0.72598   0.65151   0.00000  Uiso   1.00
H810   H     0.61730   0.95702   0.66226   0.00000  Uiso   1.00
H811   H     0.70175   0.74347   0.66229   0.00000  Uiso   1.00
H812   H     0.40373   0.65895   0.66275   0.00000  Uiso   1.00
H813   H     0.57458   0.78675   0.76580   0.00000  Uiso   1.00
H814   H     0.59500   0.86763   0.76878   0.00000  Uiso   1.00
H815   H     0.63506   0.76636   0.76879   0.00000  Uiso   1.00
H816   H     0.49373   0.72628   0.76900   0.00000  Uiso   1.00
H817   H     0.61761   0.95727   0.75762   0.00000  Uiso   1.00
H818   H     0.70206   0.74371   0.75765   0.00000  Uiso   1.00
H819   H     0.40404   0.65919   0.75811   0.00000  Uiso   1.00
O820   O     0.63089   0.01035   0.70989   0.00000  Uiso   1.00
O821   O     0.74168   0.73016   0.70992   0.00000  Uiso   1.00
O822   O     0.35069   0.61928   0.71052   0.00000  Uiso   1.00
N823   N     0.61456   0.94598   0.68430   0.00000  Uiso   1.00
N824   N     0.69352   0.74632   0.68432   0.00000  Uiso   1.00
N825   N     0.41490   0.66730   0.68475   0.00000  Uiso   1.00
N826   N     0.61473   0.94611   0.73561   0.00000  Uiso   1.00
N827   N     0.69369   0.74645   0.73563   0.00000  Uiso   1.00
N828   N     0.41507   0.66743   0.73606   0.00000  Uiso   1.00
C829   C     0.24097   0.12110   0.51327   0.00000  Uiso   1.00
C830   C     0.25210   0.08826   0.52701   0.00000  Uiso   1.00
C831   C     0.26137   0.06063   0.50998   0.00000  Uiso   1.00
C832   C     0.27076   0.03299   0.52691   0.00000  Uiso   1.00
C833   C     0.28805   0.98200   0.54326   0.00000  Uiso   1.00
C834   C     0.27387   0.16505   0.52702   0.00000  Uiso   1.00
C835   C     0.30143   0.20198   0.50999   0.00000  Uiso   1.00
C836   C     0.32915   0.23898   0.52693   0.00000  Uiso   1.00
C837   C     0.38021   0.30722   0.54329   0.00000  Uiso   1.00
C838   C     0.19708   0.11003   0.52714   0.00000  Uiso   1.00
C839   C     0.16008   0.10072   0.51021   0.00000  Uiso   1.00
C840   C     0.12315   0.09141   0.52724   0.00000  Uiso   1.00
C841   C     0.05499   0.07423   0.54379   0.00000  Uiso   1.00
C842   C     0.24116   0.12114   0.57362   0.00000  Uiso   1.00
C843   C     0.25220   0.08828   0.55979   0.00000  Uiso   1.00
C844   C     0.26158   0.06067   0.57675   0.00000  Uiso   1.00
C845   C     0.27087   0.03301   0.55974   0.00000  Uiso   1.00
C846   C     0.27397   0.16507   0.55979   0.00000  Uiso   1.00
C847   C     0.30165   0.20203   0.57676   0.00000  Uiso   1.00
C848   C     0.32926   0.23901   0.55976   0.00000  Uiso   1.00
C849   C     0.19718   0.11005   0.55991   0.00000  Uiso   1.00
C850   C     0.16030   0.10076   0.57697   0.00000  Uiso   1.00
C851   C     0.12326   0.09144   0.56008   0.00000  Uiso   1.00
H852   H     0.24089   0.12109   0.48775   0.00000  Uiso   1.00
H853   H     0.26129   0.06062   0.48462   0.00000  Uiso   1.00
H854   H     0.30134   0.20195   0.48463   0.00000  Uiso   1.00
H855   H     0.16001   0.10070   0.48485   0.00000  Uiso   1.00
H856   H     0.28396   0.99361   0.49559   0.00000  Uiso   1.00
H857   H     0.36842   0.29162   0.49562   0.00000  Uiso   1.00
H858   H     0.07040   0.07812   0.49608   0.00000  Uiso   1.00
H859   H     0.24125   0.12116   0.59913   0.00000  Uiso   1.00
H860   H     0.26166   0.06070   0.60211   0.00000  Uiso   1.00
H861   H     0.30172   0.20203   0.60212   0.00000  Uiso   1.00
H862   H     0.16039   0.10078   0.60234   0.00000  Uiso   1.00
H863   H     0.28427   0.99367   0.59095   0.00000  Uiso   1.00
H864   H     0.36873   0.29168   0.59098   0.00000  Uiso   1.00
H865   H     0.07071   0.07818   0.59144   0.00000  Uiso   1.00
O866   O     0.29756   0.95387   0.54322   0.00000  Uiso   1.00
O867   O     0.40835   0.34485   0.54325   0.00000  Uiso   1.00
O868   O     0.01736   0.06474   0.54386   0.00000  Uiso   1.00
N869   N     0.28123   0.00191   0.51763   0.00000  Uiso   1.00
N870   N     0.36019   0.28053   0.51765   0.00000  Uiso   1.00
N871   N     0.08157   0.08094   0.51808   0.00000  Uiso   1.00
N872   N     0.28139   0.00195   0.56894   0.00000  Uiso   1.00
N873   N     0.36036   0.28057   0.56897   0.00000  Uiso   1.00
N874   N     0.08174   0.08097   0.56939   0.00000  Uiso   1.00
C875   C     0.90763   0.45443   0.84661   0.00000  Uiso   1.00
C876   C     0.91876   0.42159   0.86035   0.00000  Uiso   1.00
C877   C     0.92803   0.39396   0.84332   0.00000  Uiso   1.00
C878   C     0.93743   0.36632   0.86024   0.00000  Uiso   1.00
C879   C     0.95471   0.31533   0.87659   0.00000  Uiso   1.00
C880   C     0.94053   0.49838   0.86035   0.00000  Uiso   1.00
C881   C     0.96810   0.53531   0.84333   0.00000  Uiso   1.00
C882   C     0.99582   0.57231   0.86026   0.00000  Uiso   1.00
C883   C     0.04688   0.64055   0.87662   0.00000  Uiso   1.00
C884   C     0.86374   0.44336   0.86047   0.00000  Uiso   1.00
C885   C     0.82675   0.43405   0.84354   0.00000  Uiso   1.00
C886   C     0.78982   0.42474   0.86058   0.00000  Uiso   1.00
C887   C     0.72165   0.40756   0.87712   0.00000  Uiso   1.00
C888   C     0.90783   0.45448   0.90695   0.00000  Uiso   1.00
C889   C     0.91887   0.42162   0.89312   0.00000  Uiso   1.00
C890   C     0.92825   0.39401   0.91008   0.00000  Uiso   1.00
C891   C     0.93753   0.36634   0.89308   0.00000  Uiso   1.00
C892   C     0.94064   0.49840   0.89313   0.00000  Uiso   1.00
C893   C     0.96832   0.53536   0.91009   0.00000  Uiso   1.00
C894   C     0.99592   0.57234   0.89310   0.00000  Uiso   1.00
C895   C     0.86385   0.44339   0.89325   0.00000  Uiso   1.00
C896   C     0.82697   0.43410   0.91031   0.00000  Uiso   1.00
C897   C     0.78992   0.42477   0.89341   0.00000  Uiso   1.00
H898   H     0.90755   0.45442   0.82109   0.00000  Uiso   1.00
H899   H     0.92795   0.39396   0.81795   0.00000  Uiso   1.00
H900   H     0.96801   0.53529   0.81796   0.00000  Uiso   1.00
H901   H     0.82668   0.43404   0.81818   0.00000  Uiso   1.00
H902   H     0.95063   0.32694   0.82893   0.00000  Uiso   1.00
H903   H     0.03508   0.62495   0.82895   0.00000  Uiso   1.00
H904   H     0.73706   0.41145   0.82941   0.00000  Uiso   1.00
H905   H     0.90791   0.45450   0.93247   0.00000  Uiso   1.00
H906   H     0.92833   0.39403   0.93544   0.00000  Uiso   1.00
H907   H     0.96839   0.53537   0.93545   0.00000  Uiso   1.00
H908   H     0.82706   0.43412   0.93567   0.00000  Uiso   1.00
H909   H     0.95094   0.32701   0.92429   0.00000  Uiso   1.00
H910   H     0.03539   0.62502   0.92431   0.00000  Uiso   1.00
H911   H     0.73737   0.41151   0.92477   0.00000  Uiso   1.00
O912   O     0.96422   0.28721   0.87656   0.00000  Uiso   1.00
O913   O     0.07502   0.67819   0.87659   0.00000  Uiso   1.00
O914   O     0.68402   0.39808   0.87719   0.00000  Uiso   1.00
N915   N     0.94789   0.33525   0.85096   0.00000  Uiso   1.00
N916   N     0.02686   0.61387   0.85099   0.00000  Uiso   1.00
N917   N     0.74824   0.41427   0.85141   0.00000  Uiso   1.00
N918   N     0.94806   0.33528   0.90228   0.00000  Uiso   1.00
N919   N     0.02702   0.61390   0.90230   0.00000  Uiso   1.00
N920   N     0.74840   0.41431   0.90273   0.00000  Uiso   1.00
C921   C     0.57430   0.78777   0.17994   0.00000  Uiso   1.00
C922   C     0.58543   0.75492   0.19368   0.00000  Uiso   1.00
C923   C     0.59470   0.72729   0.17665   0.00000  Uiso   1.00
C924   C     0.60409   0.69965   0.19358   0.00000  Uiso   1.00
C925   C     0.62138   0.64867   0.20993   0.00000  Uiso   1.00
C926   C     0.60720   0.83171   0.19369   0.00000  Uiso   1.00
C927   C     0.63477   0.86865   0.17666   0.00000  Uiso   1.00
C928   C     0.66248   0.90565   0.19359   0.00000  Uiso   1.00
C929   C     0.71354   0.97389   0.20995   0.00000  Uiso   1.00
C930   C     0.53041   0.77670   0.19380   0.00000  Uiso   1.00
C931   C     0.49342   0.76739   0.17688   0.00000  Uiso   1.00
C932   C     0.45648   0.75808   0.19391   0.00000  Uiso   1.00
C933   C     0.38832   0.74090   0.21045   0.00000  Uiso   1.00
C934   C     0.57450   0.78781   0.24028   0.00000  Uiso   1.00
C935   C     0.58554   0.75495   0.22646   0.00000  Uiso   1.00
C936   C     0.59492   0.72734   0.24341   0.00000  Uiso   1.00
C937   C     0.60420   0.69967   0.22641   0.00000  Uiso   1.00
C938   C     0.60731   0.83174   0.22646   0.00000  Uiso   1.00
C939   C     0.63498   0.86869   0.24342   0.00000  Uiso   1.00
C940   C     0.66259   0.90567   0.22643   0.00000  Uiso   1.00
C941   C     0.53052   0.77672   0.22658   0.00000  Uiso   1.00
C942   C     0.49363   0.76743   0.24364   0.00000  Uiso   1.00
C943   C     0.45659   0.75810   0.22675   0.00000  Uiso   1.00
H944   H     0.57422   0.78775   0.15442   0.00000  Uiso   1.00
H945   H     0.59462   0.72729   0.15128   0.00000  Uiso   1.00
H946   H     0.63468   0.86862   0.15130   0.00000  Uiso   1.00
H947   H     0.49335   0.76737   0.15151   0.00000  Uiso   1.00
H948   H     0.61730   0.66027   0.16226   0.00000  Uiso   1.00
H949   H     0.70175   0.95828   0.16229   0.00000  Uiso   1.00
H950   H     0.40373   0.74478   0.16275   0.00000  Uiso   1.00
H951   H     0.57458   0.78783   0.26580   0.00000  Uiso   1.00
H952   H     0.59500   0.72737   0.26878   0.00000  Uiso   1.00
H953   H     0.63506   0.86870   0.26879   0.00000  Uiso   1.00
H954   H     0.49373   0.76745   0.26900   0.00000  Uiso   1.00
H955   H     0.61761   0.66034   0.25762   0.00000  Uiso   1.00
H956   H     0.70206   0.95835   0.25765   0.00000  Uiso   1.00
H957   H     0.40404   0.74485   0.25811   0.00000  Uiso   1.00
O958   O     0.63089   0.62054   0.20989   0.00000  Uiso   1.00
O959   O     0.74168   0.01152   0.20992   0.00000  Uiso   1.00
O960   O     0.35069   0.73141   0.21052   0.00000  Uiso   1.00
N961   N     0.61456   0.66858   0.18430   0.00000  Uiso   1.00
N962   N     0.69352   0.94720   0.18432   0.00000  Uiso   1.00
N963   N     0.41490   0.74761   0.18475   0.00000  Uiso   1.00
N964   N     0.61473   0.66862   0.23561   0.00000  Uiso   1.00
N965   N     0.69369   0.94724   0.23563   0.00000  Uiso   1.00
N966   N     0.41507   0.74764   0.23606   0.00000  Uiso   1.00
C967   C     0.87890   0.11987   0.51327   0.00000  Uiso   1.00
C968   C     0.91174   0.16384   0.52701   0.00000  Uiso   1.00
C969   C     0.93937   0.20074   0.50998   0.00000  Uiso   1.00
C970   C     0.96701   0.23778   0.52691   0.00000  Uiso   1.00
C971   C     0.01800   0.30605   0.54326   0.00000  Uiso   1.00
C972   C     0.83495   0.10882   0.52702   0.00000  Uiso   1.00
C973   C     0.79802   0.09945   0.50999   0.00000  Uiso   1.00
C974   C     0.76102   0.09017   0.52693   0.00000  Uiso   1.00
C975   C     0.69278   0.07299   0.54329   0.00000  Uiso   1.00
C976   C     0.88997   0.08705   0.52714   0.00000  Uiso   1.00
C977   C     0.89928   0.05936   0.51021   0.00000  Uiso   1.00
C978   C     0.90859   0.03174   0.52724   0.00000  Uiso   1.00
C979   C     0.92577   0.98076   0.54379   0.00000  Uiso   1.00
C980   C     0.87886   0.12002   0.57362   0.00000  Uiso   1.00
C981   C     0.91172   0.16392   0.55979   0.00000  Uiso   1.00
C982   C     0.93933   0.20091   0.57675   0.00000  Uiso   1.00
C983   C     0.96699   0.23786   0.55974   0.00000  Uiso   1.00
C984   C     0.83493   0.10890   0.55979   0.00000  Uiso   1.00
C985   C     0.79797   0.09962   0.57676   0.00000  Uiso   1.00
C986   C     0.76099   0.09025   0.55976   0.00000  Uiso   1.00
C987   C     0.88995   0.08713   0.55991   0.00000  Uiso   1.00
C988   C     0.89924   0.05954   0.57697   0.00000  Uiso   1.00
C989   C     0.90856   0.03182   0.56008   0.00000  Uiso   1.00
H990   H     0.87891   0.11980   0.48775   0.00000  Uiso   1.00
H991   H     0.93938   0.20066   0.48462   0.00000  Uiso   1.00
H992   H     0.79805   0.09939   0.48463   0.00000  Uiso   1.00
H993   H     0.89930   0.05931   0.48485   0.00000  Uiso   1.00
H994   H     0.00639   0.29036   0.49559   0.00000  Uiso   1.00
H995   H     0.70838   0.07680   0.49562   0.00000  Uiso   1.00
H996   H     0.92188   0.99228   0.49608   0.00000  Uiso   1.00
H997   H     0.87884   0.12008   0.59913   0.00000  Uiso   1.00
H998   H     0.93930   0.20096   0.60211   0.00000  Uiso   1.00
H999   H     0.79797   0.09969   0.60212   0.00000  Uiso   1.00
H1000  H     0.89922   0.05961   0.60234   0.00000  Uiso   1.00
H1001  H     0.00633   0.29060   0.59095   0.00000  Uiso   1.00
H1002  H     0.70832   0.07704   0.59098   0.00000  Uiso   1.00
H1003  H     0.92182   0.99253   0.59144   0.00000  Uiso   1.00
O1004  O     0.04613   0.34368   0.54322   0.00000  Uiso   1.00
O1005  O     0.65515   0.06350   0.54325   0.00000  Uiso   1.00
O1006  O     0.93526   0.95262   0.54386   0.00000  Uiso   1.00
N1007  N     0.99809   0.27931   0.51763   0.00000  Uiso   1.00
N1008  N     0.71947   0.07966   0.51765   0.00000  Uiso   1.00
N1009  N     0.91906   0.00063   0.51808   0.00000  Uiso   1.00
N1010  N     0.99805   0.27944   0.56894   0.00000  Uiso   1.00
N1011  N     0.71943   0.07979   0.56897   0.00000  Uiso   1.00
N1012  N     0.91903   0.00076   0.56939   0.00000  Uiso   1.00
C1013  C     0.54557   0.45320   0.84661   0.00000  Uiso   1.00
C1014  C     0.57841   0.49717   0.86035   0.00000  Uiso   1.00
C1015  C     0.60604   0.53407   0.84332   0.00000  Uiso   1.00
C1016  C     0.63368   0.57111   0.86024   0.00000  Uiso   1.00
C1017  C     0.68467   0.63938   0.87659   0.00000  Uiso   1.00
C1018  C     0.50162   0.44215   0.86035   0.00000  Uiso   1.00
C1019  C     0.46469   0.43279   0.84333   0.00000  Uiso   1.00
C1020  C     0.42769   0.42350   0.86026   0.00000  Uiso   1.00
C1021  C     0.35945   0.40632   0.87662   0.00000  Uiso   1.00
C1022  C     0.55664   0.42038   0.86047   0.00000  Uiso   1.00
C1023  C     0.56595   0.39270   0.84354   0.00000  Uiso   1.00
C1024  C     0.57526   0.36507   0.86058   0.00000  Uiso   1.00
C1025  C     0.59244   0.31409   0.87712   0.00000  Uiso   1.00
C1026  C     0.54552   0.45335   0.90695   0.00000  Uiso   1.00
C1027  C     0.57838   0.49725   0.89312   0.00000  Uiso   1.00
C1028  C     0.60599   0.53424   0.91008   0.00000  Uiso   1.00
C1029  C     0.63366   0.57119   0.89308   0.00000  Uiso   1.00
C1030  C     0.50160   0.44224   0.89313   0.00000  Uiso   1.00
C1031  C     0.46464   0.43296   0.91009   0.00000  Uiso   1.00
C1032  C     0.42766   0.42359   0.89310   0.00000  Uiso   1.00
C1033  C     0.55661   0.42046   0.89325   0.00000  Uiso   1.00
C1034  C     0.56590   0.39287   0.91031   0.00000  Uiso   1.00
C1035  C     0.57523   0.36516   0.89341   0.00000  Uiso   1.00
H1036  H     0.54558   0.45313   0.82109   0.00000  Uiso   1.00
H1037  H     0.60604   0.53400   0.81795   0.00000  Uiso   1.00
H1038  H     0.46471   0.43272   0.81796   0.00000  Uiso   1.00
H1039  H     0.56596   0.39264   0.81818   0.00000  Uiso   1.00
H1040  H     0.67306   0.62369   0.82893   0.00000  Uiso   1.00
H1041  H     0.37505   0.41013   0.82895   0.00000  Uiso   1.00
H1042  H     0.58855   0.32561   0.82941   0.00000  Uiso   1.00
H1043  H     0.54550   0.45342   0.93247   0.00000  Uiso   1.00
H1044  H     0.60597   0.53430   0.93544   0.00000  Uiso   1.00
H1045  H     0.46463   0.43302   0.93545   0.00000  Uiso   1.00
H1046  H     0.56588   0.39294   0.93567   0.00000  Uiso   1.00
H1047  H     0.67299   0.62393   0.92429   0.00000  Uiso   1.00
H1048  H     0.37498   0.41038   0.92431   0.00000  Uiso   1.00
H1049  H     0.58849   0.32586   0.92477   0.00000  Uiso   1.00
O1050  O     0.71279   0.67702   0.87656   0.00000  Uiso   1.00
O1051  O     0.32181   0.39683   0.87659   0.00000  Uiso   1.00
O1052  O     0.60192   0.28595   0.87719   0.00000  Uiso   1.00
N1053  N     0.66475   0.61265   0.85096   0.00000  Uiso   1.00
N1054  N     0.38613   0.41299   0.85099   0.00000  Uiso   1.00
N1055  N     0.58573   0.33396   0.85141   0.00000  Uiso   1.00
N1056  N     0.66472   0.61278   0.90228   0.00000  Uiso   1.00
N1057  N     0.38610   0.41312   0.90230   0.00000  Uiso   1.00
N1058  N     0.58569   0.33410   0.90273   0.00000  Uiso   1.00
C1059  C     0.21223   0.78653   0.17994   0.00000  Uiso   1.00
C1060  C     0.24508   0.83051   0.19368   0.00000  Uiso   1.00
C1061  C     0.27271   0.86741   0.17665   0.00000  Uiso   1.00
C1062  C     0.30035   0.90444   0.19358   0.00000  Uiso   1.00
C1063  C     0.35133   0.97271   0.20993   0.00000  Uiso   1.00
C1064  C     0.16829   0.77549   0.19369   0.00000  Uiso   1.00
C1065  C     0.13135   0.76612   0.17666   0.00000  Uiso   1.00
C1066  C     0.09435   0.75684   0.19359   0.00000  Uiso   1.00
C1067  C     0.02611   0.73966   0.20995   0.00000  Uiso   1.00
C1068  C     0.22330   0.75371   0.19380   0.00000  Uiso   1.00
C1069  C     0.23261   0.72603   0.17688   0.00000  Uiso   1.00
C1070  C     0.24192   0.69841   0.19391   0.00000  Uiso   1.00
C1071  C     0.25910   0.64742   0.21045   0.00000  Uiso   1.00
C1072  C     0.21219   0.78669   0.24028   0.00000  Uiso   1.00
C1073  C     0.24505   0.83059   0.22646   0.00000  Uiso   1.00
C1074  C     0.27266   0.86758   0.24341   0.00000  Uiso   1.00
C1075  C     0.30033   0.90453   0.22641   0.00000  Uiso   1.00
C1076  C     0.16826   0.77557   0.22646   0.00000  Uiso   1.00
C1077  C     0.13131   0.76629   0.24342   0.00000  Uiso   1.00
C1078  C     0.09433   0.75692   0.22643   0.00000  Uiso   1.00
C1079  C     0.22328   0.75380   0.22658   0.00000  Uiso   1.00
C1080  C     0.23257   0.72620   0.24364   0.00000  Uiso   1.00
C1081  C     0.24190   0.69849   0.22675   0.00000  Uiso   1.00
H1082  H     0.21225   0.78647   0.15442   0.00000  Uiso   1.00
H1083  H     0.27271   0.86733   0.15128   0.00000  Uiso   1.00
H1084  H     0.13138   0.76606   0.15130   0.00000  Uiso   1.00
H1085  H     0.23263   0.72598   0.15151   0.00000  Uiso   1.00
H1086  H     0.33973   0.95702   0.16226   0.00000  Uiso   1.00
H1087  H     0.04172   0.74347   0.16229   0.00000  Uiso   1.00
H1088  H     0.25522   0.65895   0.16275   0.00000  Uiso   1.00
H1089  H     0.21217   0.78675   0.26580   0.00000  Uiso   1.00
H1090  H     0.27263   0.86763   0.26878   0.00000  Uiso   1.00
H1091  H     0.13130   0.76636   0.26879   0.00000  Uiso   1.00
H1092  H     0.23255   0.72628   0.26900   0.00000  Uiso   1.00
H1093  H     0.33966   0.95727   0.25762   0.00000  Uiso   1.00
H1094  H     0.04165   0.74371   0.25765   0.00000  Uiso   1.00
H1095  H     0.25515   0.65919   0.25811   0.00000  Uiso   1.00
O1096  O     0.37946   0.01035   0.20989   0.00000  Uiso   1.00
O1097  O     0.98848   0.73016   0.20992   0.00000  Uiso   1.00
O1098  O     0.26859   0.61928   0.21052   0.00000  Uiso   1.00
N1099  N     0.33142   0.94598   0.18430   0.00000  Uiso   1.00
N1100  N     0.05280   0.74632   0.18432   0.00000  Uiso   1.00
N1101  N     0.25239   0.66730   0.18475   0.00000  Uiso   1.00
N1102  N     0.33138   0.94611   0.23561   0.00000  Uiso   1.00
N1103  N     0.05276   0.74645   0.23563   0.00000  Uiso   1.00
N1104  N     0.25236   0.66743   0.23606   0.00000  Uiso   1.00
C1105  C     0.88013   0.75903   0.51327   0.00000  Uiso   1.00
C1106  C     0.83616   0.74790   0.52701   0.00000  Uiso   1.00
C1107  C     0.79926   0.73863   0.50998   0.00000  Uiso   1.00
C1108  C     0.76222   0.72924   0.52691   0.00000  Uiso   1.00
C1109  C     0.69395   0.71195   0.54326   0.00000  Uiso   1.00
C1110  C     0.89118   0.72613   0.52702   0.00000  Uiso   1.00
C1111  C     0.90055   0.69857   0.50999   0.00000  Uiso   1.00
C1112  C     0.90983   0.67085   0.52693   0.00000  Uiso   1.00
C1113  C     0.92701   0.61979   0.54329   0.00000  Uiso   1.00
C1114  C     0.91295   0.80292   0.52714   0.00000  Uiso   1.00
C1115  C     0.94064   0.83992   0.51021   0.00000  Uiso   1.00
C1116  C     0.96826   0.87685   0.52724   0.00000  Uiso   1.00
C1117  C     0.01924   0.94501   0.54379   0.00000  Uiso   1.00
C1118  C     0.87998   0.75884   0.57362   0.00000  Uiso   1.00
C1119  C     0.83608   0.74780   0.55979   0.00000  Uiso   1.00
C1120  C     0.79909   0.73842   0.57675   0.00000  Uiso   1.00
C1121  C     0.76214   0.72913   0.55974   0.00000  Uiso   1.00
C1122  C     0.89110   0.72603   0.55979   0.00000  Uiso   1.00
C1123  C     0.90038   0.69835   0.57676   0.00000  Uiso   1.00
C1124  C     0.90975   0.67074   0.55976   0.00000  Uiso   1.00
C1125  C     0.91287   0.80282   0.55991   0.00000  Uiso   1.00
C1126  C     0.94046   0.83970   0.57697   0.00000  Uiso   1.00
C1127  C     0.96818   0.87674   0.56008   0.00000  Uiso   1.00
H1128  H     0.88020   0.75911   0.48775   0.00000  Uiso   1.00
H1129  H     0.79934   0.73871   0.48462   0.00000  Uiso   1.00
H1130  H     0.90061   0.69866   0.48463   0.00000  Uiso   1.00
H1131  H     0.94069   0.83999   0.48485   0.00000  Uiso   1.00
H1132  H     0.70964   0.71604   0.49559   0.00000  Uiso   1.00
H1133  H     0.92320   0.63158   0.49562   0.00000  Uiso   1.00
H1134  H     0.00772   0.92960   0.49608   0.00000  Uiso   1.00
H1135  H     0.87992   0.75875   0.59913   0.00000  Uiso   1.00
H1136  H     0.79904   0.73834   0.60211   0.00000  Uiso   1.00
H1137  H     0.90031   0.69828   0.60212   0.00000  Uiso   1.00
H1138  H     0.94039   0.83961   0.60234   0.00000  Uiso   1.00
H1139  H     0.70940   0.71573   0.59095   0.00000  Uiso   1.00
H1140  H     0.92296   0.63127   0.59098   0.00000  Uiso   1.00
H1141  H     0.00747   0.92929   0.59144   0.00000  Uiso   1.00
O1142  O     0.65632   0.70244   0.54322   0.00000  Uiso   1.00
O1143  O     0.93650   0.59165   0.54325   0.00000  Uiso   1.00
O1144  O     0.04738   0.98264   0.54386   0.00000  Uiso   1.00
N1145  N     0.72069   0.71877   0.51763   0.00000  Uiso   1.00
N1146  N     0.92034   0.63981   0.51765   0.00000  Uiso   1.00
N1147  N     0.99937   0.91843   0.51808   0.00000  Uiso   1.00
N1148  N     0.72056   0.71861   0.56894   0.00000  Uiso   1.00
N1149  N     0.92021   0.63964   0.56897   0.00000  Uiso   1.00
N1150  N     0.99924   0.91826   0.56939   0.00000  Uiso   1.00
C1151  C     0.54680   0.09237   0.84661   0.00000  Uiso   1.00
C1152  C     0.50283   0.08124   0.86035   0.00000  Uiso   1.00
C1153  C     0.46593   0.07197   0.84332   0.00000  Uiso   1.00
C1154  C     0.42889   0.06257   0.86024   0.00000  Uiso   1.00
C1155  C     0.36062   0.04529   0.87659   0.00000  Uiso   1.00
C1156  C     0.55785   0.05947   0.86035   0.00000  Uiso   1.00
C1157  C     0.56721   0.03190   0.84333   0.00000  Uiso   1.00
C1158  C     0.57650   0.00418   0.86026   0.00000  Uiso   1.00
C1159  C     0.59368   0.95312   0.87662   0.00000  Uiso   1.00
C1160  C     0.57962   0.13626   0.86047   0.00000  Uiso   1.00
C1161  C     0.60730   0.17325   0.84354   0.00000  Uiso   1.00
C1162  C     0.63493   0.21018   0.86058   0.00000  Uiso   1.00
C1163  C     0.68591   0.27835   0.87712   0.00000  Uiso   1.00
C1164  C     0.54665   0.09217   0.90695   0.00000  Uiso   1.00
C1165  C     0.50275   0.08113   0.89312   0.00000  Uiso   1.00
C1166  C     0.46576   0.07175   0.91008   0.00000  Uiso   1.00
C1167  C     0.42881   0.06247   0.89308   0.00000  Uiso   1.00
C1168  C     0.55776   0.05936   0.89313   0.00000  Uiso   1.00
C1169  C     0.56704   0.03168   0.91009   0.00000  Uiso   1.00
C1170  C     0.57641   0.00408   0.89310   0.00000  Uiso   1.00
C1171  C     0.57954   0.13615   0.89325   0.00000  Uiso   1.00
C1172  C     0.60713   0.17303   0.91031   0.00000  Uiso   1.00
C1173  C     0.63484   0.21008   0.89341   0.00000  Uiso   1.00
H1174  H     0.54687   0.09245   0.82109   0.00000  Uiso   1.00
H1175  H     0.46600   0.07205   0.81795   0.00000  Uiso   1.00
H1176  H     0.56728   0.03199   0.81796   0.00000  Uiso   1.00
H1177  H     0.60736   0.17332   0.81818   0.00000  Uiso   1.00
H1178  H     0.37631   0.04937   0.82893   0.00000  Uiso   1.00
H1179  H     0.58987   0.96492   0.82895   0.00000  Uiso   1.00
H1180  H     0.67439   0.26294   0.82941   0.00000  Uiso   1.00
H1181  H     0.54658   0.09209   0.93247   0.00000  Uiso   1.00
H1182  H     0.46570   0.07167   0.93544   0.00000  Uiso   1.00
H1183  H     0.56698   0.03161   0.93545   0.00000  Uiso   1.00
H1184  H     0.60706   0.17294   0.93567   0.00000  Uiso   1.00
H1185  H     0.37607   0.04906   0.92429   0.00000  Uiso   1.00
H1186  H     0.58962   0.96461   0.92431   0.00000  Uiso   1.00
H1187  H     0.67414   0.26263   0.92477   0.00000  Uiso   1.00
O1188  O     0.32298   0.03578   0.87656   0.00000  Uiso   1.00
O1189  O     0.60317   0.92498   0.87659   0.00000  Uiso   1.00
O1190  O     0.71405   0.31598   0.87719   0.00000  Uiso   1.00
N1191  N     0.38735   0.05211   0.85096   0.00000  Uiso   1.00
N1192  N     0.58701   0.97314   0.85099   0.00000  Uiso   1.00
N1193  N     0.66604   0.25176   0.85141   0.00000  Uiso   1.00
N1194  N     0.38722   0.05194   0.90228   0.00000  Uiso   1.00
N1195  N     0.58688   0.97298   0.90230   0.00000  Uiso   1.00
N1196  N     0.66590   0.25160   0.90273   0.00000  Uiso   1.00
C1197  C     0.21347   0.42570   0.17994   0.00000  Uiso   1.00
C1198  C     0.16949   0.41457   0.19368   0.00000  Uiso   1.00
C1199  C     0.13259   0.40530   0.17665   0.00000  Uiso   1.00
C1200  C     0.09556   0.39591   0.19358   0.00000  Uiso   1.00
C1201  C     0.02729   0.37862   0.20993   0.00000  Uiso   1.00
C1202  C     0.22451   0.39280   0.19369   0.00000  Uiso   1.00
C1203  C     0.23388   0.36523   0.17666   0.00000  Uiso   1.00
C1204  C     0.24316   0.33752   0.19359   0.00000  Uiso   1.00
C1205  C     0.26034   0.28646   0.20995   0.00000  Uiso   1.00
C1206  C     0.24629   0.46959   0.19380   0.00000  Uiso   1.00
C1207  C     0.27397   0.50658   0.17688   0.00000  Uiso   1.00
C1208  C     0.30159   0.54352   0.19391   0.00000  Uiso   1.00
C1209  C     0.35258   0.61168   0.21045   0.00000  Uiso   1.00
C1210  C     0.21331   0.42550   0.24028   0.00000  Uiso   1.00
C1211  C     0.16941   0.41446   0.22646   0.00000  Uiso   1.00
C1212  C     0.13242   0.40508   0.24341   0.00000  Uiso   1.00
C1213  C     0.09547   0.39580   0.22641   0.00000  Uiso   1.00
C1214  C     0.22443   0.39269   0.22646   0.00000  Uiso   1.00
C1215  C     0.23371   0.36502   0.24342   0.00000  Uiso   1.00
C1216  C     0.24308   0.33741   0.22643   0.00000  Uiso   1.00
C1217  C     0.24620   0.46948   0.22658   0.00000  Uiso   1.00
C1218  C     0.27380   0.50637   0.24364   0.00000  Uiso   1.00
C1219  C     0.30151   0.54341   0.22675   0.00000  Uiso   1.00
H1220  H     0.21353   0.42578   0.15442   0.00000  Uiso   1.00
H1221  H     0.13267   0.40538   0.15128   0.00000  Uiso   1.00
H1222  H     0.23394   0.36532   0.15130   0.00000  Uiso   1.00
H1223  H     0.27402   0.50665   0.15151   0.00000  Uiso   1.00
H1224  H     0.04298   0.38270   0.16226   0.00000  Uiso   1.00
H1225  H     0.25653   0.29825   0.16229   0.00000  Uiso   1.00
H1226  H     0.34105   0.59627   0.16275   0.00000  Uiso   1.00
H1227  H     0.21325   0.42542   0.26580   0.00000  Uiso   1.00
H1228  H     0.13237   0.40500   0.26878   0.00000  Uiso   1.00
H1229  H     0.23364   0.36494   0.26879   0.00000  Uiso   1.00
H1230  H     0.27372   0.50627   0.26900   0.00000  Uiso   1.00
H1231  H     0.04273   0.38239   0.25762   0.00000  Uiso   1.00
H1232  H     0.25629   0.29794   0.25765   0.00000  Uiso   1.00
H1233  H     0.34081   0.59596   0.25811   0.00000  Uiso   1.00
O1234  O     0.98965   0.36911   0.20989   0.00000  Uiso   1.00
O1235  O     0.26984   0.25832   0.20992   0.00000  Uiso   1.00
O1236  O     0.38072   0.64931   0.21052   0.00000  Uiso   1.00
N1237  N     0.05402   0.38544   0.18430   0.00000  Uiso   1.00
N1238  N     0.25368   0.30648   0.18432   0.00000  Uiso   1.00
N1239  N     0.33270   0.58510   0.18475   0.00000  Uiso   1.00
N1240  N     0.05389   0.38527   0.23561   0.00000  Uiso   1.00
N1241  N     0.25355   0.30631   0.23563   0.00000  Uiso   1.00
N1242  N     0.33257   0.58493   0.23606   0.00000  Uiso   1.00
C1243  C     0.12110   0.24097   0.98673   0.00000  Uiso   1.00
C1244  C     0.08826   0.25210   0.97299   0.00000  Uiso   1.00
C1245  C     0.06063   0.26137   0.99002   0.00000  Uiso   1.00
C1246  C     0.03299   0.27076   0.97309   0.00000  Uiso   1.00
C1247  C     0.98200   0.28805   0.95674   0.00000  Uiso   1.00
C1248  C     0.16505   0.27387   0.97298   0.00000  Uiso   1.00
C1249  C     0.20198   0.30143   0.99001   0.00000  Uiso   1.00
C1250  C     0.23898   0.32915   0.97307   0.00000  Uiso   1.00
C1251  C     0.30722   0.38021   0.95671   0.00000  Uiso   1.00
C1252  C     0.11003   0.19708   0.97286   0.00000  Uiso   1.00
C1253  C     0.10072   0.16008   0.98979   0.00000  Uiso   1.00
C1254  C     0.09141   0.12315   0.97276   0.00000  Uiso   1.00
C1255  C     0.07423   0.05499   0.95621   0.00000  Uiso   1.00
C1256  C     0.12114   0.24116   0.92638   0.00000  Uiso   1.00
C1257  C     0.08828   0.25220   0.94021   0.00000  Uiso   1.00
C1258  C     0.06067   0.26158   0.92325   0.00000  Uiso   1.00
C1259  C     0.03301   0.27087   0.94026   0.00000  Uiso   1.00
C1260  C     0.16507   0.27397   0.94021   0.00000  Uiso   1.00
C1261  C     0.20203   0.30165   0.92324   0.00000  Uiso   1.00
C1262  C     0.23901   0.32926   0.94024   0.00000  Uiso   1.00
C1263  C     0.11005   0.19718   0.94009   0.00000  Uiso   1.00
C1264  C     0.10076   0.16030   0.92303   0.00000  Uiso   1.00
C1265  C     0.09144   0.12326   0.93992   0.00000  Uiso   1.00
H1266  H     0.12109   0.24089   0.01225   0.00000  Uiso   1.00
H1267  H     0.06062   0.26129   0.01538   0.00000  Uiso   1.00
H1268  H     0.20195   0.30134   0.01537   0.00000  Uiso   1.00
H1269  H     0.10070   0.16001   0.01515   0.00000  Uiso   1.00
H1270  H     0.99361   0.28396   0.00441   0.00000  Uiso   1.00
H1271  H     0.29162   0.36842   0.00438   0.00000  Uiso   1.00
H1272  H     0.07812   0.07040   0.00392   0.00000  Uiso   1.00
H1273  H     0.12116   0.24125   0.90087   0.00000  Uiso   1.00
H1274  H     0.06070   0.26166   0.89789   0.00000  Uiso   1.00
H1275  H     0.20203   0.30172   0.89788   0.00000  Uiso   1.00
H1276  H     0.10078   0.16039   0.89766   0.00000  Uiso   1.00
H1277  H     0.99367   0.28427   0.90905   0.00000  Uiso   1.00
H1278  H     0.29168   0.36873   0.90902   0.00000  Uiso   1.00
H1279  H     0.07818   0.07071   0.90856   0.00000  Uiso   1.00
O1280  O     0.95387   0.29756   0.95678   0.00000  Uiso   1.00
O1281  O     0.34485   0.40835   0.95675   0.00000  Uiso   1.00
O1282  O     0.06474   0.01736   0.95614   0.00000  Uiso   1.00
N1283  N     0.00191   0.28123   0.98237   0.00000  Uiso   1.00
N1284  N     0.28053   0.36019   0.98235   0.00000  Uiso   1.00
N1285  N     0.08094   0.08157   0.98192   0.00000  Uiso   1.00
N1286  N     0.00195   0.28139   0.93106   0.00000  Uiso   1.00
N1287  N     0.28057   0.36036   0.93103   0.00000  Uiso   1.00
N1288  N     0.08097   0.08174   0.93061   0.00000  Uiso   1.00
C1289  C     0.78777   0.57430   0.32006   0.00000  Uiso   1.00
C1290  C     0.75492   0.58543   0.30632   0.00000  Uiso   1.00
C1291  C     0.72729   0.59470   0.32335   0.00000  Uiso   1.00
C1292  C     0.69965   0.60409   0.30642   0.00000  Uiso   1.00
C1293  C     0.64867   0.62138   0.29007   0.00000  Uiso   1.00
C1294  C     0.83171   0.60720   0.30631   0.00000  Uiso   1.00
C1295  C     0.86865   0.63477   0.32334   0.00000  Uiso   1.00
C1296  C     0.90565   0.66248   0.30641   0.00000  Uiso   1.00
C1297  C     0.97389   0.71354   0.29005   0.00000  Uiso   1.00
C1298  C     0.77670   0.53041   0.30620   0.00000  Uiso   1.00
C1299  C     0.76739   0.49342   0.32312   0.00000  Uiso   1.00
C1300  C     0.75808   0.45648   0.30609   0.00000  Uiso   1.00
C1301  C     0.74090   0.38832   0.28955   0.00000  Uiso   1.00
C1302  C     0.78781   0.57450   0.25972   0.00000  Uiso   1.00
C1303  C     0.75495   0.58554   0.27354   0.00000  Uiso   1.00
C1304  C     0.72734   0.59492   0.25659   0.00000  Uiso   1.00
C1305  C     0.69967   0.60420   0.27359   0.00000  Uiso   1.00
C1306  C     0.83174   0.60731   0.27354   0.00000  Uiso   1.00
C1307  C     0.86869   0.63498   0.25658   0.00000  Uiso   1.00
C1308  C     0.90567   0.66259   0.27357   0.00000  Uiso   1.00
C1309  C     0.77672   0.53052   0.27342   0.00000  Uiso   1.00
C1310  C     0.76743   0.49363   0.25636   0.00000  Uiso   1.00
C1311  C     0.75810   0.45659   0.27325   0.00000  Uiso   1.00
H1312  H     0.78775   0.57422   0.34558   0.00000  Uiso   1.00
H1313  H     0.72729   0.59462   0.34872   0.00000  Uiso   1.00
H1314  H     0.86862   0.63468   0.34870   0.00000  Uiso   1.00
H1315  H     0.76737   0.49335   0.34849   0.00000  Uiso   1.00
H1316  H     0.66027   0.61730   0.33774   0.00000  Uiso   1.00
H1317  H     0.95828   0.70175   0.33771   0.00000  Uiso   1.00
H1318  H     0.74478   0.40373   0.33725   0.00000  Uiso   1.00
H1319  H     0.78783   0.57458   0.23420   0.00000  Uiso   1.00
H1320  H     0.72737   0.59500   0.23122   0.00000  Uiso   1.00
H1321  H     0.86870   0.63506   0.23121   0.00000  Uiso   1.00
H1322  H     0.76745   0.49373   0.23100   0.00000  Uiso   1.00
H1323  H     0.66034   0.61761   0.24238   0.00000  Uiso   1.00
H1324  H     0.95835   0.70206   0.24235   0.00000  Uiso   1.00
H1325  H     0.74485   0.40404   0.24189   0.00000  Uiso   1.00
O1326  O     0.62054   0.63089   0.29011   0.00000  Uiso   1.00
O1327  O     0.01152   0.74168   0.29008   0.00000  Uiso   1.00
O1328  O     0.73141   0.35069   0.28948   0.00000  Uiso   1.00
N1329  N     0.66858   0.61456   0.31570   0.00000  Uiso   1.00
N1330  N     0.94720   0.69352   0.31568   0.00000  Uiso   1.00
N1331  N     0.74761   0.41490   0.31525   0.00000  Uiso   1.00
N1332  N     0.66862   0.61473   0.26439   0.00000  Uiso   1.00
N1333  N     0.94724   0.69369   0.26437   0.00000  Uiso   1.00
N1334  N     0.74764   0.41507   0.26394   0.00000  Uiso   1.00
C1335  C     0.45443   0.90763   0.65339   0.00000  Uiso   1.00
C1336  C     0.42159   0.91876   0.63965   0.00000  Uiso   1.00
C1337  C     0.39396   0.92803   0.65668   0.00000  Uiso   1.00
C1338  C     0.36632   0.93743   0.63976   0.00000  Uiso   1.00
C1339  C     0.31533   0.95471   0.62341   0.00000  Uiso   1.00
C1340  C     0.49838   0.94053   0.63965   0.00000  Uiso   1.00
C1341  C     0.53531   0.96810   0.65667   0.00000  Uiso   1.00
C1342  C     0.57231   0.99582   0.63974   0.00000  Uiso   1.00
C1343  C     0.64055   0.04688   0.62338   0.00000  Uiso   1.00
C1344  C     0.44336   0.86374   0.63953   0.00000  Uiso   1.00
C1345  C     0.43405   0.82675   0.65646   0.00000  Uiso   1.00
C1346  C     0.42474   0.78982   0.63942   0.00000  Uiso   1.00
C1347  C     0.40756   0.72165   0.62288   0.00000  Uiso   1.00
C1348  C     0.45448   0.90783   0.59305   0.00000  Uiso   1.00
C1349  C     0.42162   0.91887   0.60688   0.00000  Uiso   1.00
C1350  C     0.39401   0.92825   0.58992   0.00000  Uiso   1.00
C1351  C     0.36634   0.93753   0.60692   0.00000  Uiso   1.00
C1352  C     0.49840   0.94064   0.60687   0.00000  Uiso   1.00
C1353  C     0.53536   0.96832   0.58991   0.00000  Uiso   1.00
C1354  C     0.57234   0.99592   0.60690   0.00000  Uiso   1.00
C1355  C     0.44339   0.86385   0.60675   0.00000  Uiso   1.00
C1356  C     0.43410   0.82697   0.58969   0.00000  Uiso   1.00
C1357  C     0.42477   0.78992   0.60659   0.00000  Uiso   1.00
H1358  H     0.45442   0.90755   0.67891   0.00000  Uiso   1.00
H1359  H     0.39396   0.92795   0.68205   0.00000  Uiso   1.00
H1360  H     0.53529   0.96801   0.68204   0.00000  Uiso   1.00
H1361  H     0.43404   0.82668   0.68182   0.00000  Uiso   1.00
H1362  H     0.32694   0.95063   0.67107   0.00000  Uiso   1.00
H1363  H     0.62495   0.03508   0.67105   0.00000  Uiso   1.00
H1364  H     0.41145   0.73706   0.67059   0.00000  Uiso   1.00
H1365  H     0.45450   0.90791   0.56753   0.00000  Uiso   1.00
H1366  H     0.39403   0.92833   0.56456   0.00000  Uiso   1.00
H1367  H     0.53537   0.96839   0.56455   0.00000  Uiso   1.00
H1368  H     0.43412   0.82706   0.56433   0.00000  Uiso   1.00
H1369  H     0.32701   0.95094   0.57571   0.00000  Uiso   1.00
H1370  H     0.62502   0.03539   0.57569   0.00000  Uiso   1.00
H1371  H     0.41151   0.73737   0.57523   0.00000  Uiso   1.00
O1372  O     0.28721   0.96422   0.62344   0.00000  Uiso   1.00
O1373  O     0.67819   0.07502   0.62341   0.00000  Uiso   1.00
O1374  O     0.39808   0.68402   0.62281   0.00000  Uiso   1.00
N1375  N     0.33525   0.94789   0.64904   0.00000  Uiso   1.00
N1376  N     0.61387   0.02686   0.64901   0.00000  Uiso   1.00
N1377  N     0.41427   0.74824   0.64859   0.00000  Uiso   1.00
N1378  N     0.33528   0.94806   0.59772   0.00000  Uiso   1.00
N1379  N     0.61390   0.02702   0.59770   0.00000  Uiso   1.00
N1380  N     0.41431   0.74840   0.59727   0.00000  Uiso   1.00
C1381  C     0.11987   0.87890   0.98673   0.00000  Uiso   1.00
C1382  C     0.16384   0.91174   0.97299   0.00000  Uiso   1.00
C1383  C     0.20074   0.93937   0.99002   0.00000  Uiso   1.00
C1384  C     0.23778   0.96701   0.97309   0.00000  Uiso   1.00
C1385  C     0.30605   0.01800   0.95674   0.00000  Uiso   1.00
C1386  C     0.10882   0.83495   0.97298   0.00000  Uiso   1.00
C1387  C     0.09945   0.79802   0.99001   0.00000  Uiso   1.00
C1388  C     0.09017   0.76102   0.97307   0.00000  Uiso   1.00
C1389  C     0.07299   0.69278   0.95671   0.00000  Uiso   1.00
C1390  C     0.08705   0.88997   0.97286   0.00000  Uiso   1.00
C1391  C     0.05936   0.89928   0.98979   0.00000  Uiso   1.00
C1392  C     0.03174   0.90859   0.97276   0.00000  Uiso   1.00
C1393  C     0.98076   0.92577   0.95621   0.00000  Uiso   1.00
C1394  C     0.12002   0.87886   0.92638   0.00000  Uiso   1.00
C1395  C     0.16392   0.91172   0.94021   0.00000  Uiso   1.00
C1396  C     0.20091   0.93933   0.92325   0.00000  Uiso   1.00
C1397  C     0.23786   0.96699   0.94026   0.00000  Uiso   1.00
C1398  C     0.10890   0.83493   0.94021   0.00000  Uiso   1.00
C1399  C     0.09962   0.79797   0.92324   0.00000  Uiso   1.00
C1400  C     0.09025   0.76099   0.94024   0.00000  Uiso   1.00
C1401  C     0.08713   0.88995   0.94009   0.00000  Uiso   1.00
C1402  C     0.05954   0.89924   0.92303   0.00000  Uiso   1.00
C1403  C     0.03182   0.90856   0.93992   0.00000  Uiso   1.00
H1404  H     0.11980   0.87891   0.01225   0.00000  Uiso   1.00
H1405  H     0.20066   0.93938   0.01538   0.00000  Uiso   1.00
H1406  H     0.09939   0.79805   0.01537   0.00000  Uiso   1.00
H1407  H     0.05931   0.89930   0.01515   0.00000  Uiso   1.00
H1408  H     0.29036   0.00639   0.00441   0.00000  Uiso   1.00
H1409  H     0.07680   0.70838   0.00438   0.00000  Uiso   1.00
H1410  H     0.99228   0.92188   0.00392   0.00000  Uiso   1.00
H1411  H     0.12008   0.87884   0.90087   0.00000  Uiso   1.00
H1412  H     0.20096   0.93930   0.89789   0.00000  Uiso   1.00
H1413  H     0.09969   0.79797   0.89788   0.00000  Uiso   1.00
H1414  H     0.05961   0.89922   0.89766   0.00000  Uiso   1.00
H1415  H     0.29060   0.00633   0.90905   0.00000  Uiso   1.00
H1416  H     0.07704   0.70832   0.90902   0.00000  Uiso   1.00
H1417  H     0.99253   0.92182   0.90856   0.00000  Uiso   1.00
O1418  O     0.34368   0.04613   0.95678   0.00000  Uiso   1.00
O1419  O     0.06350   0.65515   0.95675   0.00000  Uiso   1.00
O1420  O     0.95262   0.93526   0.95614   0.00000  Uiso   1.00
N1421  N     0.27931   0.99809   0.98237   0.00000  Uiso   1.00
N1422  N     0.07966   0.71947   0.98235   0.00000  Uiso   1.00
N1423  N     0.00063   0.91906   0.98192   0.00000  Uiso   1.00
N1424  N     0.27944   0.99805   0.93106   0.00000  Uiso   1.00
N1425  N     0.07979   0.71943   0.93103   0.00000  Uiso   1.00
N1426  N     0.00076   0.91903   0.93061   0.00000  Uiso   1.00
C1427  C     0.78653   0.21223   0.32006   0.00000  Uiso   1.00
C1428  C     0.83051   0.24508   0.30632   0.00000  Uiso   1.00
C1429  C     0.86741   0.27271   0.32335   0.00000  Uiso   1.00
C1430  C     0.90444   0.30035   0.30642   0.00000  Uiso   1.00
C1431  C     0.97271   0.35133   0.29007   0.00000  Uiso   1.00
C1432  C     0.77549   0.16829   0.30631   0.00000  Uiso   1.00
C1433  C     0.76612   0.13135   0.32334   0.00000  Uiso   1.00
C1434  C     0.75684   0.09435   0.30641   0.00000  Uiso   1.00
C1435  C     0.73966   0.02611   0.29005   0.00000  Uiso   1.00
C1436  C     0.75371   0.22330   0.30620   0.00000  Uiso   1.00
C1437  C     0.72603   0.23261   0.32312   0.00000  Uiso   1.00
C1438  C     0.69841   0.24192   0.30609   0.00000  Uiso   1.00
C1439  C     0.64742   0.25910   0.28955   0.00000  Uiso   1.00
C1440  C     0.78669   0.21219   0.25972   0.00000  Uiso   1.00
C1441  C     0.83059   0.24505   0.27354   0.00000  Uiso   1.00
C1442  C     0.86758   0.27266   0.25659   0.00000  Uiso   1.00
C1443  C     0.90453   0.30033   0.27359   0.00000  Uiso   1.00
C1444  C     0.77557   0.16826   0.27354   0.00000  Uiso   1.00
C1445  C     0.76629   0.13131   0.25658   0.00000  Uiso   1.00
C1446  C     0.75692   0.09433   0.27357   0.00000  Uiso   1.00
C1447  C     0.75380   0.22328   0.27342   0.00000  Uiso   1.00
C1448  C     0.72620   0.23257   0.25636   0.00000  Uiso   1.00
C1449  C     0.69849   0.24190   0.27325   0.00000  Uiso   1.00
H1450  H     0.78647   0.21225   0.34558   0.00000  Uiso   1.00
H1451  H     0.86733   0.27271   0.34872   0.00000  Uiso   1.00
H1452  H     0.76606   0.13138   0.34870   0.00000  Uiso   1.00
H1453  H     0.72598   0.23263   0.34849   0.00000  Uiso   1.00
H1454  H     0.95702   0.33973   0.33774   0.00000  Uiso   1.00
H1455  H     0.74347   0.04172   0.33771   0.00000  Uiso   1.00
H1456  H     0.65895   0.25522   0.33725   0.00000  Uiso   1.00
H1457  H     0.78675   0.21217   0.23420   0.00000  Uiso   1.00
H1458  H     0.86763   0.27263   0.23122   0.00000  Uiso   1.00
H1459  H     0.76636   0.13130   0.23121   0.00000  Uiso   1.00
H1460  H     0.72628   0.23255   0.23100   0.00000  Uiso   1.00
H1461  H     0.95727   0.33966   0.24238   0.00000  Uiso   1.00
H1462  H     0.74371   0.04165   0.24235   0.00000  Uiso   1.00
H1463  H     0.65919   0.25515   0.24189   0.00000  Uiso   1.00
O1464  O     0.01035   0.37946   0.29011   0.00000  Uiso   1.00
O1465  O     0.73016   0.98848   0.29008   0.00000  Uiso   1.00
O1466  O     0.61928   0.26859   0.28948   0.00000  Uiso   1.00
N1467  N     0.94598   0.33142   0.31570   0.00000  Uiso   1.00
N1468  N     0.74632   0.05280   0.31568   0.00000  Uiso   1.00
N1469  N     0.66730   0.25239   0.31525   0.00000  Uiso   1.00
N1470  N     0.94611   0.33138   0.26439   0.00000  Uiso   1.00
N1471  N     0.74645   0.05276   0.26437   0.00000  Uiso   1.00
N1472  N     0.66743   0.25236   0.26394   0.00000  Uiso   1.00
C1473  C     0.45320   0.54557   0.65339   0.00000  Uiso   1.00
C1474  C     0.49717   0.57841   0.63965   0.00000  Uiso   1.00
C1475  C     0.53407   0.60604   0.65668   0.00000  Uiso   1.00
C1476  C     0.57111   0.63368   0.63976   0.00000  Uiso   1.00
C1477  C     0.63938   0.68467   0.62341   0.00000  Uiso   1.00
C1478  C     0.44215   0.50162   0.63965   0.00000  Uiso   1.00
C1479  C     0.43279   0.46469   0.65667   0.00000  Uiso   1.00
C1480  C     0.42350   0.42769   0.63974   0.00000  Uiso   1.00
C1481  C     0.40632   0.35945   0.62338   0.00000  Uiso   1.00
C1482  C     0.42038   0.55664   0.63953   0.00000  Uiso   1.00
C1483  C     0.39270   0.56595   0.65646   0.00000  Uiso   1.00
C1484  C     0.36507   0.57526   0.63942   0.00000  Uiso   1.00
C1485  C     0.31409   0.59244   0.62288   0.00000  Uiso   1.00
C1486  C     0.45335   0.54552   0.59305   0.00000  Uiso   1.00
C1487  C     0.49725   0.57838   0.60688   0.00000  Uiso   1.00
C1488  C     0.53424   0.60599   0.58992   0.00000  Uiso   1.00
C1489  C     0.57119   0.63366   0.60692   0.00000  Uiso   1.00
C1490  C     0.44224   0.50160   0.60687   0.00000  Uiso   1.00
C1491  C     0.43296   0.46464   0.58991   0.00000  Uiso   1.00
C1492  C     0.42359   0.42766   0.60690   0.00000  Uiso   1.00
C1493  C     0.42046   0.55661   0.60675   0.00000  Uiso   1.00
C1494  C     0.39287   0.56590   0.58969   0.00000  Uiso   1.00
C1495  C     0.36516   0.57523   0.60659   0.00000  Uiso   1.00
H1496  H     0.45313   0.54558   0.67891   0.00000  Uiso   1.00
H1497  H     0.53400   0.60604   0.68205   0.00000  Uiso   1.00
H1498  H     0.43272   0.46471   0.68204   0.00000  Uiso   1.00
H1499  H     0.39264   0.56596   0.68182   0.00000  Uiso   1.00
H1500  H     0.62369   0.67306   0.67107   0.00000  Uiso   1.00
H1501  H     0.41013   0.37505   0.67105   0.00000  Uiso   1.00
H1502  H     0.32561   0.58855   0.67059   0.00000  Uiso   1.00
H1503  H     0.45342   0.54550   0.56753   0.00000  Uiso   1.00
H1504  H     0.53430   0.60597   0.56456   0.00000  Uiso   1.00
H1505  H     0.43302   0.46463   0.56455   0.00000  Uiso   1.00
H1506  H     0.39294   0.56588   0.56433   0.00000  Uiso   1.00
H1507  H     0.62393   0.67299   0.57571   0.00000  Uiso   1.00
H1508  H     0.41038   0.37498   0.57569   0.00000  Uiso   1.00
H1509  H     0.32586   0.58849   0.57523   0.00000  Uiso   1.00
O1510  O     0.67702   0.71279   0.62344   0.00000  Uiso   1.00
O1511  O     0.39683   0.32181   0.62341   0.00000  Uiso   1.00
O1512  O     0.28595   0.60192   0.62281   0.00000  Uiso   1.00
N1513  N     0.61265   0.66475   0.64904   0.00000  Uiso   1.00
N1514  N     0.41299   0.38613   0.64901   0.00000  Uiso   1.00
N1515  N     0.33396   0.58573   0.64859   0.00000  Uiso   1.00
N1516  N     0.61278   0.66472   0.59772   0.00000  Uiso   1.00
N1517  N     0.41312   0.38610   0.59770   0.00000  Uiso   1.00
N1518  N     0.33410   0.58569   0.59727   0.00000  Uiso   1.00
C1519  C     0.75903   0.88013   0.98673   0.00000  Uiso   1.00
C1520  C     0.74790   0.83616   0.97299   0.00000  Uiso   1.00
C1521  C     0.73863   0.79926   0.99002   0.00000  Uiso   1.00
C1522  C     0.72924   0.76222   0.97309   0.00000  Uiso   1.00
C1523  C     0.71195   0.69395   0.95674   0.00000  Uiso   1.00
C1524  C     0.72613   0.89118   0.97298   0.00000  Uiso   1.00
C1525  C     0.69857   0.90055   0.99001   0.00000  Uiso   1.00
C1526  C     0.67085   0.90983   0.97307   0.00000  Uiso   1.00
C1527  C     0.61979   0.92701   0.95671   0.00000  Uiso   1.00
C1528  C     0.80292   0.91295   0.97286   0.00000  Uiso   1.00
C1529  C     0.83992   0.94064   0.98979   0.00000  Uiso   1.00
C1530  C     0.87685   0.96826   0.97276   0.00000  Uiso   1.00
C1531  C     0.94501   0.01924   0.95621   0.00000  Uiso   1.00
C1532  C     0.75884   0.87998   0.92638   0.00000  Uiso   1.00
C1533  C     0.74780   0.83608   0.94021   0.00000  Uiso   1.00
C1534  C     0.73842   0.79909   0.92325   0.00000  Uiso   1.00
C1535  C     0.72913   0.76214   0.94026   0.00000  Uiso   1.00
C1536  C     0.72603   0.89110   0.94021   0.00000  Uiso   1.00
C1537  C     0.69835   0.90038   0.92324   0.00000  Uiso   1.00
C1538  C     0.67074   0.90975   0.94024   0.00000  Uiso   1.00
C1539  C     0.80282   0.91287   0.94009   0.00000  Uiso   1.00
C1540  C     0.83970   0.94046   0.92303   0.00000  Uiso   1.00
C1541  C     0.87674   0.96818   0.93992   0.00000  Uiso   1.00
H1542  H     0.75911   0.88020   0.01225   0.00000  Uiso   1.00
H1543  H     0.73871   0.79934   0.01538   0.00000  Uiso   1.00
H1544  H     0.69866   0.90061   0.01537   0.00000  Uiso   1.00
H1545  H     0.83999   0.94069   0.01515   0.00000  Uiso   1.00
H1546  H     0.71604   0.70964   0.00441   0.00000  Uiso   1.00
H1547  H     0.63158   0.92320   0.00438   0.00000  Uiso   1.00
H1548  H     0.92960   0.00772   0.00392   0.00000  Uiso   1.00
H1549  H     0.75875   0.87992   0.90087   0.00000  Uiso   1.00
H1550  H     0.73834   0.79904   0.89789   0.00000  Uiso   1.00
H1551  H     0.69828   0.90031   0.89788   0.00000  Uiso   1.00
H1552  H     0.83961   0.94039   0.89766   0.00000  Uiso   1.00
H1553  H     0.71573   0.70940   0.90905   0.00000  Uiso   1.00
H1554  H     0.63127   0.92296   0.90902   0.00000  Uiso   1.00
H1555  H     0.92929   0.00747   0.90856   0.00000  Uiso   1.00
O1556  O     0.70244   0.65632   0.95678   0.00000  Uiso   1.00
O1557  O     0.59165   0.93650   0.95675   0.00000  Uiso   1.00
O1558  O     0.98264   0.04738   0.95614   0.00000  Uiso   1.00
N1559  N     0.71877   0.72069   0.98237   0.00000  Uiso   1.00
N1560  N     0.63981   0.92034   0.98235   0.00000  Uiso   1.00
N1561  N     0.91843   0.99937   0.98192   0.00000  Uiso   1.00
N1562  N     0.71861   0.72056   0.93106   0.00000  Uiso   1.00
N1563  N     0.63964   0.92021   0.93103   0.00000  Uiso   1.00
N1564  N     0.91826   0.99924   0.93061   0.00000  Uiso   1.00
C1565  C     0.42570   0.21347   0.32006   0.00000  Uiso   1.00
C1566  C     0.41457   0.16949   0.30632   0.00000  Uiso   1.00
C1567  C     0.40530   0.13259   0.32335   0.00000  Uiso   1.00
C1568  C     0.39591   0.09556   0.30642   0.00000  Uiso   1.00
C1569  C     0.37862   0.02729   0.29007   0.00000  Uiso   1.00
C1570  C     0.39280   0.22451   0.30631   0.00000  Uiso   1.00
C1571  C     0.36523   0.23388   0.32334   0.00000  Uiso   1.00
C1572  C     0.33752   0.24316   0.30641   0.00000  Uiso   1.00
C1573  C     0.28646   0.26034   0.29005   0.00000  Uiso   1.00
C1574  C     0.46959   0.24629   0.30620   0.00000  Uiso   1.00
C1575  C     0.50658   0.27397   0.32312   0.00000  Uiso   1.00
C1576  C     0.54352   0.30159   0.30609   0.00000  Uiso   1.00
C1577  C     0.61168   0.35258   0.28955   0.00000  Uiso   1.00
C1578  C     0.42550   0.21331   0.25972   0.00000  Uiso   1.00
C1579  C     0.41446   0.16941   0.27354   0.00000  Uiso   1.00
C1580  C     0.40508   0.13242   0.25659   0.00000  Uiso   1.00
C1581  C     0.39580   0.09547   0.27359   0.00000  Uiso   1.00
C1582  C     0.39269   0.22443   0.27354   0.00000  Uiso   1.00
C1583  C     0.36502   0.23371   0.25658   0.00000  Uiso   1.00
C1584  C     0.33741   0.24308   0.27357   0.00000  Uiso   1.00
C1585  C     0.46948   0.24620   0.27342   0.00000  Uiso   1.00
C1586  C     0.50637   0.27380   0.25636   0.00000  Uiso   1.00
C1587  C     0.54341   0.30151   0.27325   0.00000  Uiso   1.00
H1588  H     0.42578   0.21353   0.34558   0.00000  Uiso   1.00
H1589  H     0.40538   0.13267   0.34872   0.00000  Uiso   1.00
H1590  H     0.36532   0.23394   0.34870   0.00000  Uiso   1.00
H1591  H     0.50665   0.27402   0.34849   0.00000  Uiso   1.00
H1592  H     0.38270   0.04298   0.33774   0.00000  Uiso   1.00
H1593  H     0.29825   0.25653   0.33771   0.00000  Uiso   1.00
H1594  H     0.59627   0.34105   0.33725   0.00000  Uiso   1.00
H1595  H     0.42542   0.21325   0.23420   0.00000  Uiso   1.00
H1596  H     0.40500   0.13237   0.23122   0.00000  Uiso   1.00
H1597  H     0.36494   0.23364   0.23121   0.00000  Uiso   1.00
H1598  H     0.50627   0.27372   0.23100   0.00000  Uiso   1.00
H1599  H     0.38239   0.04273   0.24238   0.00000  Uiso   1.00
H1600  H     0.29794   0.25629   0.24235   0.00000  Uiso   1.00
H1601  H     0.59596   0.34081   0.24189   0.00000  Uiso   1.00
O1602  O     0.36911   0.98965   0.29011   0.00000  Uiso   1.00
O1603  O     0.25832   0.26984   0.29008   0.00000  Uiso   1.00
O1604  O     0.64931   0.38072   0.28948   0.00000  Uiso   1.00
N1605  N     0.38544   0.05402   0.31570   0.00000  Uiso   1.00
N1606  N     0.30648   0.25368   0.31568   0.00000  Uiso   1.00
N1607  N     0.58510   0.33270   0.31525   0.00000  Uiso   1.00
N1608  N     0.38527   0.05389   0.26439   0.00000  Uiso   1.00
N1609  N     0.30631   0.25355   0.26437   0.00000  Uiso   1.00
N1610  N     0.58493   0.33257   0.26394   0.00000  Uiso   1.00
C1611  C     0.09237   0.54680   0.65339   0.00000  Uiso   1.00
C1612  C     0.08124   0.50283   0.63965   0.00000  Uiso   1.00
C1613  C     0.07197   0.46593   0.65668   0.00000  Uiso   1.00
C1614  C     0.06257   0.42889   0.63976   0.00000  Uiso   1.00
C1615  C     0.04529   0.36062   0.62341   0.00000  Uiso   1.00
C1616  C     0.05947   0.55785   0.63965   0.00000  Uiso   1.00
C1617  C     0.03190   0.56721   0.65667   0.00000  Uiso   1.00
C1618  C     0.00418   0.57650   0.63974   0.00000  Uiso   1.00
C1619  C     0.95312   0.59368   0.62338   0.00000  Uiso   1.00
C1620  C     0.13626   0.57962   0.63953   0.00000  Uiso   1.00
C1621  C     0.17325   0.60730   0.65646   0.00000  Uiso   1.00
C1622  C     0.21018   0.63493   0.63942   0.00000  Uiso   1.00
C1623  C     0.27835   0.68591   0.62288   0.00000  Uiso   1.00
C1624  C     0.09217   0.54665   0.59305   0.00000  Uiso   1.00
C1625  C     0.08113   0.50275   0.60688   0.00000  Uiso   1.00
C1626  C     0.07175   0.46576   0.58992   0.00000  Uiso   1.00
C1627  C     0.06247   0.42881   0.60692   0.00000  Uiso   1.00
C1628  C     0.05936   0.55776   0.60687   0.00000  Uiso   1.00
C1629  C     0.03168   0.56704   0.58991   0.00000  Uiso   1.00
C1630  C     0.00408   0.57641   0.60690   0.00000  Uiso   1.00
C1631  C     0.13615   0.57954   0.60675   0.00000  Uiso   1.00
C1632  C     0.17303   0.60713   0.58969   0.00000  Uiso   1.00
C1633  C     0.21008   0.63484   0.60659   0.00000  Uiso   1.00
H1634  H     0.09245   0.54687   0.67891   0.00000  Uiso   1.00
H1635  H     0.07205   0.46600   0.68205   0.00000  Uiso   1.00
H1636  H     0.03199   0.56728   0.68204   0.00000  Uiso   1.00
H1637  H     0.17332   0.60736   0.68182   0.00000  Uiso   1.00
H1638  H     0.04937   0.37631   0.67107   0.00000  Uiso   1.00
H1639  H     0.96492   0.58987   0.67105   0.00000  Uiso   1.00
H1640  H     0.26294   0.67439   0.67059   0.00000  Uiso   1.00
H1641  H     0.09209   0.54658   0.56753   0.00000  Uiso   1.00
H1642  H     0.07167   0.46570   0.56456   0.00000  Uiso   1.00
H1643  H     0.03161   0.56698   0.56455   0.00000  Uiso   1.00
H1644  H     0.17294   0.60706   0.56433   0.00000  Uiso   1.00
H1645  H     0.04906   0.37607   0.57571   0.00000  Uiso   1.00
H1646  H     0.96461   0.58962   0.57569   0.00000  Uiso   1.00
H1647  H     0.26263   0.67414   0.57523   0.00000  Uiso   1.00
O1648  O     0.03578   0.32298   0.62344   0.00000  Uiso   1.00
O1649  O     0.92498   0.60317   0.62341   0.00000  Uiso   1.00
O1650  O     0.31598   0.71405   0.62281   0.00000  Uiso   1.00
N1651  N     0.05211   0.38735   0.64904   0.00000  Uiso   1.00
N1652  N     0.97314   0.58701   0.64901   0.00000  Uiso   1.00
N1653  N     0.25176   0.66604   0.64859   0.00000  Uiso   1.00
N1654  N     0.05194   0.38722   0.59772   0.00000  Uiso   1.00
N1655  N     0.97298   0.58688   0.59770   0.00000  Uiso   1.00
N1656  N     0.25160   0.66590   0.59727   0.00000  Uiso   1.00
