data_job_02375
_audit_creation_date              2018-12-19
_audit_creation_method            'Materials Studio'
_symmetry_space_group_name_H-M    'P1'
_symmetry_Int_Tables_number       1
_symmetry_cell_setting            triclinic
loop_
_symmetry_equiv_pos_as_xyz
  x,y,z
_cell_length_a                    26.2487
_cell_length_b                    12.4826
_cell_length_c                    42.4319
_cell_angle_alpha                 90.0000
_cell_angle_beta                  90.0000
_cell_angle_gamma                 90.0000
loop_
_atom_site_label
_atom_site_type_symbol
_atom_site_fract_x
_atom_site_fract_y
_atom_site_fract_z
_atom_site_U_iso_or_equiv
_atom_site_adp_type
_atom_site_occupancy
C1     C     0.59845   0.35858   0.67412   0.00000  Uiso   1.00
C2     C     0.62853   0.28165   0.69493   0.00000  Uiso   1.00
C3     C     0.60960   0.18912   0.70878   0.00000  Uiso   1.00
C4     C     0.64320   0.12958   0.72699   0.00000  Uiso   1.00
C5     C     0.68218   0.00529   0.75868   0.00000  Uiso   1.00
C6     C     0.60308   0.46845   0.68956   0.00000  Uiso   1.00
C7     C     0.56276   0.53300   0.69890   0.00000  Uiso   1.00
C8     C     0.57495   0.63072   0.71259   0.00000  Uiso   1.00
C9     C     0.57442   0.79648   0.73593   0.00000  Uiso   1.00
C10    C     0.62771   0.36594   0.64315   0.00000  Uiso   1.00
C11    C     0.60810   0.34432   0.61344   0.00000  Uiso   1.00
C12    C     0.64102   0.35576   0.58805   0.00000  Uiso   1.00
C13    C     0.67874   0.36235   0.53932   0.00000  Uiso   1.00
C14    C     0.69179   0.41737   0.68184   0.00000  Uiso   1.00
C15    C     0.67922   0.31358   0.69912   0.00000  Uiso   1.00
C16    C     0.71286   0.25416   0.71732   0.00000  Uiso   1.00
C17    C     0.69399   0.16156   0.73119   0.00000  Uiso   1.00
C18    C     0.65377   0.50038   0.69376   0.00000  Uiso   1.00
C19    C     0.66602   0.59803   0.70744   0.00000  Uiso   1.00
C20    C     0.62573   0.66271   0.71679   0.00000  Uiso   1.00
C21    C     0.67841   0.39787   0.64734   0.00000  Uiso   1.00
C22    C     0.71137   0.40935   0.62199   0.00000  Uiso   1.00
C23    C     0.69181   0.38774   0.59226   0.00000  Uiso   1.00
H24    H     0.55899   0.33373   0.67085   0.00000  Uiso   1.00
H25    H     0.57036   0.16445   0.70553   0.00000  Uiso   1.00
H26    H     0.52353   0.50828   0.69565   0.00000  Uiso   1.00
H27    H     0.56887   0.31962   0.61021   0.00000  Uiso   1.00
H28    H     0.60533   0.99086   0.74583   0.00000  Uiso   1.00
H29    H     0.50658   0.71586   0.72499   0.00000  Uiso   1.00
H30    H     0.60218   0.31804   0.54482   0.00000  Uiso   1.00
H31    H     0.73126   0.44223   0.68510   0.00000  Uiso   1.00
H32    H     0.75209   0.27888   0.72056   0.00000  Uiso   1.00
H33    H     0.70526   0.62271   0.71068   0.00000  Uiso   1.00
H34    H     0.75060   0.43406   0.62524   0.00000  Uiso   1.00
H35    H     0.75282   0.08375   0.75803   0.00000  Uiso   1.00
H36    H     0.65408   0.80875   0.73719   0.00000  Uiso   1.00
H37    H     0.74968   0.41093   0.55703   0.00000  Uiso   1.00
O38    O     0.68967   0.92792   0.77501   0.00000  Uiso   1.00
O39    O     0.56012   0.87909   0.74765   0.00000  Uiso   1.00
O40    O     0.68554   0.35716   0.51129   0.00000  Uiso   1.00
N41    N     0.63719   0.03513   0.74383   0.00000  Uiso   1.00
N42    N     0.54487   0.71295   0.72435   0.00000  Uiso   1.00
N43    N     0.63424   0.34105   0.55591   0.00000  Uiso   1.00
N44    N     0.71655   0.08511   0.75040   0.00000  Uiso   1.00
N45    N     0.62423   0.76293   0.73091   0.00000  Uiso   1.00
N46    N     0.71361   0.39103   0.56248   0.00000  Uiso   1.00
C47    C     0.59798   0.14441   0.87759   0.00000  Uiso   1.00
C48    C     0.62779   0.22168   0.85674   0.00000  Uiso   1.00
C49    C     0.60879   0.31483   0.84330   0.00000  Uiso   1.00
C50    C     0.64214   0.37458   0.82497   0.00000  Uiso   1.00
C51    C     0.68073   0.49945   0.79329   0.00000  Uiso   1.00
C52    C     0.60201   0.03498   0.86181   0.00000  Uiso   1.00
C53    C     0.56133   0.97115   0.85264   0.00000  Uiso   1.00
C54    C     0.57298   0.87374   0.83859   0.00000  Uiso   1.00
C55    C     0.57155   0.70872   0.81481   0.00000  Uiso   1.00
C56    C     0.62788   0.13579   0.90830   0.00000  Uiso   1.00
C57    C     0.60897   0.15668   0.93821   0.00000  Uiso   1.00
C58    C     0.64240   0.14411   0.96330   0.00000  Uiso   1.00
C59    C     0.68115   0.13561   0.01169   0.00000  Uiso   1.00
C60    C     0.69099   0.08490   0.86894   0.00000  Uiso   1.00
C61    C     0.67831   0.18935   0.85204   0.00000  Uiso   1.00
C62    C     0.71170   0.24898   0.83373   0.00000  Uiso   1.00
C63    C     0.69275   0.34220   0.82026   0.00000  Uiso   1.00
C64    C     0.65253   0.00265   0.85711   0.00000  Uiso   1.00
C65    C     0.66424   0.90531   0.84307   0.00000  Uiso   1.00
C66    C     0.62359   0.84135   0.83388   0.00000  Uiso   1.00
C67    C     0.67841   0.10346   0.90360   0.00000  Uiso   1.00
C68    C     0.71188   0.09084   0.92864   0.00000  Uiso   1.00
C69    C     0.69302   0.11173   0.95859   0.00000  Uiso   1.00
H70    H     0.55864   0.16957   0.88125   0.00000  Uiso   1.00
H71    H     0.56969   0.33981   0.84693   0.00000  Uiso   1.00
H72    H     0.52224   0.99619   0.85628   0.00000  Uiso   1.00
H73    H     0.56987   0.18170   0.94184   0.00000  Uiso   1.00
H74    H     0.60420   0.51427   0.80681   0.00000  Uiso   1.00
H75    H     0.50415   0.78971   0.82653   0.00000  Uiso   1.00
H76    H     0.60459   0.18089   0.00694   0.00000  Uiso   1.00
H77    H     0.73033   0.05973   0.86529   0.00000  Uiso   1.00
H78    H     0.75079   0.22394   0.83010   0.00000  Uiso   1.00
H79    H     0.70334   0.88032   0.83944   0.00000  Uiso   1.00
H80    H     0.75097   0.06583   0.92500   0.00000  Uiso   1.00
H81    H     0.75119   0.42023   0.79314   0.00000  Uiso   1.00
H82    H     0.65115   0.69566   0.81286   0.00000  Uiso   1.00
H83    H     0.75158   0.08684   0.99328   0.00000  Uiso   1.00
O84    O     0.68806   0.57724   0.77711   0.00000  Uiso   1.00
O85    O     0.55680   0.62663   0.80299   0.00000  Uiso   1.00
O86    O     0.68857   0.13986   0.03968   0.00000  Uiso   1.00
N87    N     0.63599   0.46962   0.80843   0.00000  Uiso   1.00
N88    N     0.54245   0.79220   0.82686   0.00000  Uiso   1.00
N89    N     0.63635   0.15789   0.99553   0.00000  Uiso   1.00
N90    N     0.71509   0.41901   0.80107   0.00000  Uiso   1.00
N91    N     0.62155   0.74159   0.81951   0.00000  Uiso   1.00
N92    N     0.71544   0.10729   0.98818   0.00000  Uiso   1.00
C93    C     0.90155   0.14142   0.17412   0.00000  Uiso   1.00
C94    C     0.87147   0.21835   0.19493   0.00000  Uiso   1.00
C95    C     0.89040   0.31088   0.20878   0.00000  Uiso   1.00
C96    C     0.85680   0.37042   0.22699   0.00000  Uiso   1.00
C97    C     0.81782   0.49471   0.25868   0.00000  Uiso   1.00
C98    C     0.89692   0.03155   0.18956   0.00000  Uiso   1.00
C99    C     0.93724   0.96700   0.19890   0.00000  Uiso   1.00
C100   C     0.92505   0.86928   0.21259   0.00000  Uiso   1.00
C101   C     0.92558   0.70352   0.23593   0.00000  Uiso   1.00
C102   C     0.87229   0.13406   0.14315   0.00000  Uiso   1.00
C103   C     0.89190   0.15568   0.11344   0.00000  Uiso   1.00
C104   C     0.85898   0.14424   0.08805   0.00000  Uiso   1.00
C105   C     0.82126   0.13765   0.03932   0.00000  Uiso   1.00
C106   C     0.80821   0.08263   0.18184   0.00000  Uiso   1.00
C107   C     0.82078   0.18642   0.19912   0.00000  Uiso   1.00
C108   C     0.78714   0.24584   0.21732   0.00000  Uiso   1.00
C109   C     0.80601   0.33844   0.23119   0.00000  Uiso   1.00
C110   C     0.84623   0.99962   0.19376   0.00000  Uiso   1.00
C111   C     0.83398   0.90197   0.20744   0.00000  Uiso   1.00
C112   C     0.87427   0.83729   0.21679   0.00000  Uiso   1.00
C113   C     0.82159   0.10213   0.14734   0.00000  Uiso   1.00
C114   C     0.78863   0.09065   0.12199   0.00000  Uiso   1.00
C115   C     0.80819   0.11226   0.09226   0.00000  Uiso   1.00
H116   H     0.94101   0.16627   0.17085   0.00000  Uiso   1.00
H117   H     0.92964   0.33555   0.20553   0.00000  Uiso   1.00
H118   H     0.97647   0.99172   0.19565   0.00000  Uiso   1.00
H119   H     0.93113   0.18038   0.11021   0.00000  Uiso   1.00
H120   H     0.89467   0.50914   0.24583   0.00000  Uiso   1.00
H121   H     0.99342   0.78414   0.22499   0.00000  Uiso   1.00
H122   H     0.89782   0.18196   0.04482   0.00000  Uiso   1.00
H123   H     0.76874   0.05777   0.18510   0.00000  Uiso   1.00
H124   H     0.74791   0.22112   0.22056   0.00000  Uiso   1.00
H125   H     0.79474   0.87729   0.21068   0.00000  Uiso   1.00
H126   H     0.74940   0.06594   0.12524   0.00000  Uiso   1.00
H127   H     0.74718   0.41625   0.25803   0.00000  Uiso   1.00
H128   H     0.84592   0.69125   0.23719   0.00000  Uiso   1.00
H129   H     0.75032   0.08907   0.05703   0.00000  Uiso   1.00
O130   O     0.81033   0.57208   0.27501   0.00000  Uiso   1.00
O131   O     0.93988   0.62091   0.24765   0.00000  Uiso   1.00
O132   O     0.81446   0.14284   0.01129   0.00000  Uiso   1.00
N133   N     0.86281   0.46487   0.24383   0.00000  Uiso   1.00
N134   N     0.95513   0.78705   0.22435   0.00000  Uiso   1.00
N135   N     0.86576   0.15895   0.05591   0.00000  Uiso   1.00
N136   N     0.78345   0.41489   0.25040   0.00000  Uiso   1.00
N137   N     0.87577   0.73707   0.23091   0.00000  Uiso   1.00
N138   N     0.78639   0.10897   0.06248   0.00000  Uiso   1.00
C139   C     0.90202   0.35559   0.37759   0.00000  Uiso   1.00
C140   C     0.87221   0.27832   0.35674   0.00000  Uiso   1.00
C141   C     0.89121   0.18517   0.34330   0.00000  Uiso   1.00
C142   C     0.85786   0.12542   0.32497   0.00000  Uiso   1.00
C143   C     0.81927   0.00055   0.29329   0.00000  Uiso   1.00
C144   C     0.89799   0.46502   0.36181   0.00000  Uiso   1.00
C145   C     0.93867   0.52885   0.35264   0.00000  Uiso   1.00
C146   C     0.92702   0.62626   0.33859   0.00000  Uiso   1.00
C147   C     0.92845   0.79128   0.31481   0.00000  Uiso   1.00
C148   C     0.87212   0.36421   0.40830   0.00000  Uiso   1.00
C149   C     0.89103   0.34332   0.43821   0.00000  Uiso   1.00
C150   C     0.85760   0.35589   0.46330   0.00000  Uiso   1.00
C151   C     0.81885   0.36439   0.51169   0.00000  Uiso   1.00
C152   C     0.80901   0.41510   0.36894   0.00000  Uiso   1.00
C153   C     0.82169   0.31065   0.35204   0.00000  Uiso   1.00
C154   C     0.78830   0.25102   0.33373   0.00000  Uiso   1.00
C155   C     0.80725   0.15780   0.32026   0.00000  Uiso   1.00
C156   C     0.84747   0.49735   0.35711   0.00000  Uiso   1.00
C157   C     0.83576   0.59469   0.34307   0.00000  Uiso   1.00
C158   C     0.87641   0.65865   0.33388   0.00000  Uiso   1.00
C159   C     0.82159   0.39654   0.40360   0.00000  Uiso   1.00
C160   C     0.78812   0.40916   0.42864   0.00000  Uiso   1.00
C161   C     0.80698   0.38827   0.45859   0.00000  Uiso   1.00
H162   H     0.94136   0.33043   0.38125   0.00000  Uiso   1.00
H163   H     0.93031   0.16019   0.34693   0.00000  Uiso   1.00
H164   H     0.97776   0.50381   0.35628   0.00000  Uiso   1.00
H165   H     0.93013   0.31830   0.44184   0.00000  Uiso   1.00
H166   H     0.89580   0.98573   0.30681   0.00000  Uiso   1.00
H167   H     0.99585   0.71029   0.32653   0.00000  Uiso   1.00
H168   H     0.89541   0.31911   0.50694   0.00000  Uiso   1.00
H169   H     0.76967   0.44027   0.36529   0.00000  Uiso   1.00
H170   H     0.74921   0.27606   0.33010   0.00000  Uiso   1.00
H171   H     0.79666   0.61968   0.33944   0.00000  Uiso   1.00
H172   H     0.74903   0.43417   0.42500   0.00000  Uiso   1.00
H173   H     0.74881   0.07977   0.29314   0.00000  Uiso   1.00
H174   H     0.84885   0.80434   0.31286   0.00000  Uiso   1.00
H175   H     0.74842   0.41316   0.49328   0.00000  Uiso   1.00
O176   O     0.81194   0.92276   0.27711   0.00000  Uiso   1.00
O177   O     0.94320   0.87337   0.30299   0.00000  Uiso   1.00
O178   O     0.81143   0.36014   0.53968   0.00000  Uiso   1.00
N179   N     0.86401   0.03038   0.30843   0.00000  Uiso   1.00
N180   N     0.95755   0.70780   0.32686   0.00000  Uiso   1.00
N181   N     0.86365   0.34211   0.49553   0.00000  Uiso   1.00
N182   N     0.78491   0.08099   0.30107   0.00000  Uiso   1.00
N183   N     0.87845   0.75841   0.31951   0.00000  Uiso   1.00
N184   N     0.78456   0.39271   0.48818   0.00000  Uiso   1.00
C185   C     0.40155   0.35858   0.82588   0.00000  Uiso   1.00
C186   C     0.37147   0.28165   0.80507   0.00000  Uiso   1.00
C187   C     0.39040   0.18912   0.79122   0.00000  Uiso   1.00
C188   C     0.35680   0.12958   0.77301   0.00000  Uiso   1.00
C189   C     0.31782   0.00529   0.74132   0.00000  Uiso   1.00
C190   C     0.39692   0.46845   0.81044   0.00000  Uiso   1.00
C191   C     0.43724   0.53300   0.80110   0.00000  Uiso   1.00
C192   C     0.42505   0.63072   0.78741   0.00000  Uiso   1.00
C193   C     0.42558   0.79648   0.76407   0.00000  Uiso   1.00
C194   C     0.37229   0.36594   0.85685   0.00000  Uiso   1.00
C195   C     0.39190   0.34432   0.88656   0.00000  Uiso   1.00
C196   C     0.35898   0.35576   0.91195   0.00000  Uiso   1.00
C197   C     0.32126   0.36235   0.96068   0.00000  Uiso   1.00
C198   C     0.30821   0.41737   0.81816   0.00000  Uiso   1.00
C199   C     0.32078   0.31358   0.80088   0.00000  Uiso   1.00
C200   C     0.28714   0.25416   0.78268   0.00000  Uiso   1.00
C201   C     0.30601   0.16156   0.76881   0.00000  Uiso   1.00
C202   C     0.34623   0.50038   0.80624   0.00000  Uiso   1.00
C203   C     0.33398   0.59803   0.79256   0.00000  Uiso   1.00
C204   C     0.37427   0.66271   0.78321   0.00000  Uiso   1.00
C205   C     0.32159   0.39787   0.85266   0.00000  Uiso   1.00
C206   C     0.28863   0.40935   0.87801   0.00000  Uiso   1.00
C207   C     0.30819   0.38774   0.90774   0.00000  Uiso   1.00
H208   H     0.44101   0.33373   0.82915   0.00000  Uiso   1.00
H209   H     0.42964   0.16445   0.79447   0.00000  Uiso   1.00
H210   H     0.47647   0.50828   0.80435   0.00000  Uiso   1.00
H211   H     0.43113   0.31962   0.88979   0.00000  Uiso   1.00
H212   H     0.39467   0.99086   0.75417   0.00000  Uiso   1.00
H213   H     0.49342   0.71586   0.77501   0.00000  Uiso   1.00
H214   H     0.39782   0.31804   0.95518   0.00000  Uiso   1.00
H215   H     0.26874   0.44223   0.81490   0.00000  Uiso   1.00
H216   H     0.24791   0.27888   0.77944   0.00000  Uiso   1.00
H217   H     0.29474   0.62271   0.78932   0.00000  Uiso   1.00
H218   H     0.24940   0.43406   0.87476   0.00000  Uiso   1.00
H219   H     0.24718   0.08375   0.74197   0.00000  Uiso   1.00
H220   H     0.34592   0.80875   0.76281   0.00000  Uiso   1.00
H221   H     0.25032   0.41093   0.94297   0.00000  Uiso   1.00
O222   O     0.31033   0.92792   0.72499   0.00000  Uiso   1.00
O223   O     0.43988   0.87909   0.75235   0.00000  Uiso   1.00
O224   O     0.31446   0.35716   0.98871   0.00000  Uiso   1.00
N225   N     0.36281   0.03513   0.75617   0.00000  Uiso   1.00
N226   N     0.45513   0.71295   0.77565   0.00000  Uiso   1.00
N227   N     0.36576   0.34105   0.94409   0.00000  Uiso   1.00
N228   N     0.28345   0.08511   0.74960   0.00000  Uiso   1.00
N229   N     0.37577   0.76293   0.76909   0.00000  Uiso   1.00
N230   N     0.28639   0.39103   0.93752   0.00000  Uiso   1.00
C231   C     0.40202   0.14441   0.62241   0.00000  Uiso   1.00
C232   C     0.37221   0.22168   0.64326   0.00000  Uiso   1.00
C233   C     0.39121   0.31483   0.65670   0.00000  Uiso   1.00
C234   C     0.35786   0.37458   0.67503   0.00000  Uiso   1.00
C235   C     0.31927   0.49945   0.70671   0.00000  Uiso   1.00
C236   C     0.39799   0.03498   0.63819   0.00000  Uiso   1.00
C237   C     0.43867   0.97115   0.64736   0.00000  Uiso   1.00
C238   C     0.42702   0.87374   0.66141   0.00000  Uiso   1.00
C239   C     0.42845   0.70872   0.68519   0.00000  Uiso   1.00
C240   C     0.37212   0.13579   0.59170   0.00000  Uiso   1.00
C241   C     0.39103   0.15668   0.56179   0.00000  Uiso   1.00
C242   C     0.35760   0.14411   0.53670   0.00000  Uiso   1.00
C243   C     0.31885   0.13561   0.48831   0.00000  Uiso   1.00
C244   C     0.30901   0.08490   0.63106   0.00000  Uiso   1.00
C245   C     0.32169   0.18935   0.64796   0.00000  Uiso   1.00
C246   C     0.28830   0.24898   0.66627   0.00000  Uiso   1.00
C247   C     0.30725   0.34220   0.67974   0.00000  Uiso   1.00
C248   C     0.34747   0.00265   0.64289   0.00000  Uiso   1.00
C249   C     0.33576   0.90531   0.65693   0.00000  Uiso   1.00
C250   C     0.37641   0.84135   0.66612   0.00000  Uiso   1.00
C251   C     0.32159   0.10346   0.59640   0.00000  Uiso   1.00
C252   C     0.28812   0.09084   0.57136   0.00000  Uiso   1.00
C253   C     0.30698   0.11173   0.54141   0.00000  Uiso   1.00
H254   H     0.44136   0.16957   0.61875   0.00000  Uiso   1.00
H255   H     0.43031   0.33981   0.65307   0.00000  Uiso   1.00
H256   H     0.47776   0.99619   0.64372   0.00000  Uiso   1.00
H257   H     0.43013   0.18170   0.55816   0.00000  Uiso   1.00
H258   H     0.39580   0.51427   0.69319   0.00000  Uiso   1.00
H259   H     0.49585   0.78971   0.67347   0.00000  Uiso   1.00
H260   H     0.39541   0.18089   0.49306   0.00000  Uiso   1.00
H261   H     0.26967   0.05973   0.63471   0.00000  Uiso   1.00
H262   H     0.24921   0.22394   0.66990   0.00000  Uiso   1.00
H263   H     0.29666   0.88032   0.66056   0.00000  Uiso   1.00
H264   H     0.24903   0.06583   0.57500   0.00000  Uiso   1.00
H265   H     0.24881   0.42023   0.70686   0.00000  Uiso   1.00
H266   H     0.34885   0.69566   0.68714   0.00000  Uiso   1.00
H267   H     0.24842   0.08684   0.50672   0.00000  Uiso   1.00
O268   O     0.31194   0.57724   0.72289   0.00000  Uiso   1.00
O269   O     0.44320   0.62663   0.69701   0.00000  Uiso   1.00
O270   O     0.31143   0.13986   0.46032   0.00000  Uiso   1.00
N271   N     0.36401   0.46962   0.69157   0.00000  Uiso   1.00
N272   N     0.45755   0.79220   0.67314   0.00000  Uiso   1.00
N273   N     0.36365   0.15789   0.50447   0.00000  Uiso   1.00
N274   N     0.28491   0.41901   0.69893   0.00000  Uiso   1.00
N275   N     0.37845   0.74159   0.68049   0.00000  Uiso   1.00
N276   N     0.28456   0.10729   0.51182   0.00000  Uiso   1.00
C277   C     0.09845   0.14142   0.32588   0.00000  Uiso   1.00
C278   C     0.12853   0.21835   0.30507   0.00000  Uiso   1.00
C279   C     0.10960   0.31088   0.29122   0.00000  Uiso   1.00
C280   C     0.14320   0.37042   0.27301   0.00000  Uiso   1.00
C281   C     0.18218   0.49471   0.24132   0.00000  Uiso   1.00
C282   C     0.10308   0.03155   0.31044   0.00000  Uiso   1.00
C283   C     0.06276   0.96700   0.30110   0.00000  Uiso   1.00
C284   C     0.07495   0.86928   0.28741   0.00000  Uiso   1.00
C285   C     0.07442   0.70352   0.26407   0.00000  Uiso   1.00
C286   C     0.12771   0.13406   0.35685   0.00000  Uiso   1.00
C287   C     0.10810   0.15568   0.38656   0.00000  Uiso   1.00
C288   C     0.14102   0.14424   0.41195   0.00000  Uiso   1.00
C289   C     0.17874   0.13765   0.46068   0.00000  Uiso   1.00
C290   C     0.19179   0.08263   0.31816   0.00000  Uiso   1.00
C291   C     0.17922   0.18642   0.30088   0.00000  Uiso   1.00
C292   C     0.21286   0.24584   0.28268   0.00000  Uiso   1.00
C293   C     0.19399   0.33844   0.26881   0.00000  Uiso   1.00
C294   C     0.15377   0.99962   0.30624   0.00000  Uiso   1.00
C295   C     0.16602   0.90197   0.29256   0.00000  Uiso   1.00
C296   C     0.12573   0.83729   0.28321   0.00000  Uiso   1.00
C297   C     0.17841   0.10213   0.35266   0.00000  Uiso   1.00
C298   C     0.21137   0.09065   0.37801   0.00000  Uiso   1.00
C299   C     0.19181   0.11226   0.40774   0.00000  Uiso   1.00
H300   H     0.05899   0.16627   0.32915   0.00000  Uiso   1.00
H301   H     0.07036   0.33555   0.29447   0.00000  Uiso   1.00
H302   H     0.02353   0.99172   0.30435   0.00000  Uiso   1.00
H303   H     0.06887   0.18038   0.38979   0.00000  Uiso   1.00
H304   H     0.10533   0.50914   0.25417   0.00000  Uiso   1.00
H305   H     0.00658   0.78414   0.27501   0.00000  Uiso   1.00
H306   H     0.10218   0.18196   0.45518   0.00000  Uiso   1.00
H307   H     0.23126   0.05777   0.31490   0.00000  Uiso   1.00
H308   H     0.25209   0.22112   0.27944   0.00000  Uiso   1.00
H309   H     0.20526   0.87729   0.28932   0.00000  Uiso   1.00
H310   H     0.25060   0.06594   0.37476   0.00000  Uiso   1.00
H311   H     0.25282   0.41625   0.24197   0.00000  Uiso   1.00
H312   H     0.15408   0.69125   0.26281   0.00000  Uiso   1.00
H313   H     0.24968   0.08907   0.44297   0.00000  Uiso   1.00
O314   O     0.18967   0.57208   0.22499   0.00000  Uiso   1.00
O315   O     0.06012   0.62091   0.25235   0.00000  Uiso   1.00
O316   O     0.18554   0.14284   0.48871   0.00000  Uiso   1.00
N317   N     0.13719   0.46487   0.25617   0.00000  Uiso   1.00
N318   N     0.04487   0.78705   0.27565   0.00000  Uiso   1.00
N319   N     0.13424   0.15895   0.44409   0.00000  Uiso   1.00
N320   N     0.21655   0.41489   0.24960   0.00000  Uiso   1.00
N321   N     0.12423   0.73707   0.26909   0.00000  Uiso   1.00
N322   N     0.21361   0.10897   0.43752   0.00000  Uiso   1.00
C323   C     0.09798   0.35559   0.12241   0.00000  Uiso   1.00
C324   C     0.12779   0.27832   0.14326   0.00000  Uiso   1.00
C325   C     0.10879   0.18517   0.15670   0.00000  Uiso   1.00
C326   C     0.14214   0.12542   0.17503   0.00000  Uiso   1.00
C327   C     0.18073   0.00055   0.20671   0.00000  Uiso   1.00
C328   C     0.10201   0.46502   0.13819   0.00000  Uiso   1.00
C329   C     0.06133   0.52885   0.14736   0.00000  Uiso   1.00
C330   C     0.07298   0.62626   0.16141   0.00000  Uiso   1.00
C331   C     0.07155   0.79128   0.18519   0.00000  Uiso   1.00
C332   C     0.12788   0.36421   0.09170   0.00000  Uiso   1.00
C333   C     0.10897   0.34332   0.06179   0.00000  Uiso   1.00
C334   C     0.14240   0.35589   0.03670   0.00000  Uiso   1.00
C335   C     0.18115   0.36439   0.98831   0.00000  Uiso   1.00
C336   C     0.19099   0.41510   0.13106   0.00000  Uiso   1.00
C337   C     0.17831   0.31065   0.14796   0.00000  Uiso   1.00
C338   C     0.21170   0.25102   0.16627   0.00000  Uiso   1.00
C339   C     0.19275   0.15780   0.17974   0.00000  Uiso   1.00
C340   C     0.15253   0.49735   0.14289   0.00000  Uiso   1.00
C341   C     0.16424   0.59469   0.15693   0.00000  Uiso   1.00
C342   C     0.12359   0.65865   0.16612   0.00000  Uiso   1.00
C343   C     0.17841   0.39654   0.09640   0.00000  Uiso   1.00
C344   C     0.21188   0.40916   0.07136   0.00000  Uiso   1.00
C345   C     0.19302   0.38827   0.04141   0.00000  Uiso   1.00
H346   H     0.05864   0.33043   0.11875   0.00000  Uiso   1.00
H347   H     0.06969   0.16019   0.15307   0.00000  Uiso   1.00
H348   H     0.02224   0.50381   0.14372   0.00000  Uiso   1.00
H349   H     0.06987   0.31830   0.05816   0.00000  Uiso   1.00
H350   H     0.10420   0.98573   0.19319   0.00000  Uiso   1.00
H351   H     0.00415   0.71029   0.17347   0.00000  Uiso   1.00
H352   H     0.10459   0.31911   0.99306   0.00000  Uiso   1.00
H353   H     0.23033   0.44027   0.13471   0.00000  Uiso   1.00
H354   H     0.25079   0.27606   0.16990   0.00000  Uiso   1.00
H355   H     0.20334   0.61968   0.16056   0.00000  Uiso   1.00
H356   H     0.25097   0.43417   0.07500   0.00000  Uiso   1.00
H357   H     0.25119   0.07977   0.20686   0.00000  Uiso   1.00
H358   H     0.15115   0.80434   0.18714   0.00000  Uiso   1.00
H359   H     0.25158   0.41316   0.00672   0.00000  Uiso   1.00
O360   O     0.18806   0.92276   0.22289   0.00000  Uiso   1.00
O361   O     0.05680   0.87337   0.19701   0.00000  Uiso   1.00
O362   O     0.18857   0.36014   0.96032   0.00000  Uiso   1.00
N363   N     0.13599   0.03038   0.19157   0.00000  Uiso   1.00
N364   N     0.04245   0.70780   0.17314   0.00000  Uiso   1.00
N365   N     0.13635   0.34211   0.00447   0.00000  Uiso   1.00
N366   N     0.21509   0.08099   0.19893   0.00000  Uiso   1.00
N367   N     0.12155   0.75841   0.18049   0.00000  Uiso   1.00
N368   N     0.21544   0.39271   0.01182   0.00000  Uiso   1.00
C369   C     0.40155   0.64142   0.32588   0.00000  Uiso   1.00
C370   C     0.37147   0.71835   0.30507   0.00000  Uiso   1.00
C371   C     0.39040   0.81088   0.29122   0.00000  Uiso   1.00
C372   C     0.35680   0.87042   0.27301   0.00000  Uiso   1.00
C373   C     0.31782   0.99471   0.24132   0.00000  Uiso   1.00
C374   C     0.39692   0.53155   0.31044   0.00000  Uiso   1.00
C375   C     0.43724   0.46700   0.30110   0.00000  Uiso   1.00
C376   C     0.42505   0.36928   0.28741   0.00000  Uiso   1.00
C377   C     0.42558   0.20352   0.26407   0.00000  Uiso   1.00
C378   C     0.37229   0.63406   0.35685   0.00000  Uiso   1.00
C379   C     0.39190   0.65568   0.38656   0.00000  Uiso   1.00
C380   C     0.35898   0.64424   0.41195   0.00000  Uiso   1.00
C381   C     0.32126   0.63765   0.46068   0.00000  Uiso   1.00
C382   C     0.30821   0.58263   0.31816   0.00000  Uiso   1.00
C383   C     0.32078   0.68642   0.30088   0.00000  Uiso   1.00
C384   C     0.28714   0.74584   0.28268   0.00000  Uiso   1.00
C385   C     0.30601   0.83844   0.26881   0.00000  Uiso   1.00
C386   C     0.34623   0.49962   0.30624   0.00000  Uiso   1.00
C387   C     0.33398   0.40197   0.29256   0.00000  Uiso   1.00
C388   C     0.37427   0.33729   0.28321   0.00000  Uiso   1.00
C389   C     0.32159   0.60213   0.35266   0.00000  Uiso   1.00
C390   C     0.28863   0.59065   0.37801   0.00000  Uiso   1.00
C391   C     0.30819   0.61226   0.40774   0.00000  Uiso   1.00
H392   H     0.44101   0.66627   0.32915   0.00000  Uiso   1.00
H393   H     0.42964   0.83555   0.29447   0.00000  Uiso   1.00
H394   H     0.47647   0.49172   0.30435   0.00000  Uiso   1.00
H395   H     0.43113   0.68038   0.38979   0.00000  Uiso   1.00
H396   H     0.39467   0.00914   0.25417   0.00000  Uiso   1.00
H397   H     0.49342   0.28414   0.27501   0.00000  Uiso   1.00
H398   H     0.39782   0.68196   0.45518   0.00000  Uiso   1.00
H399   H     0.26874   0.55777   0.31490   0.00000  Uiso   1.00
H400   H     0.24791   0.72112   0.27944   0.00000  Uiso   1.00
H401   H     0.29474   0.37729   0.28932   0.00000  Uiso   1.00
H402   H     0.24940   0.56594   0.37476   0.00000  Uiso   1.00
H403   H     0.24718   0.91625   0.24197   0.00000  Uiso   1.00
H404   H     0.34592   0.19125   0.26281   0.00000  Uiso   1.00
H405   H     0.25032   0.58907   0.44297   0.00000  Uiso   1.00
O406   O     0.31033   0.07208   0.22499   0.00000  Uiso   1.00
O407   O     0.43988   0.12091   0.25235   0.00000  Uiso   1.00
O408   O     0.31446   0.64284   0.48871   0.00000  Uiso   1.00
N409   N     0.36281   0.96487   0.25617   0.00000  Uiso   1.00
N410   N     0.45513   0.28705   0.27565   0.00000  Uiso   1.00
N411   N     0.36576   0.65895   0.44409   0.00000  Uiso   1.00
N412   N     0.28345   0.91489   0.24960   0.00000  Uiso   1.00
N413   N     0.37577   0.23707   0.26909   0.00000  Uiso   1.00
N414   N     0.28639   0.60897   0.43752   0.00000  Uiso   1.00
C415   C     0.40202   0.85559   0.12241   0.00000  Uiso   1.00
C416   C     0.37221   0.77832   0.14326   0.00000  Uiso   1.00
C417   C     0.39121   0.68517   0.15670   0.00000  Uiso   1.00
C418   C     0.35786   0.62542   0.17503   0.00000  Uiso   1.00
C419   C     0.31927   0.50055   0.20671   0.00000  Uiso   1.00
C420   C     0.39799   0.96502   0.13819   0.00000  Uiso   1.00
C421   C     0.43867   0.02885   0.14736   0.00000  Uiso   1.00
C422   C     0.42702   0.12626   0.16141   0.00000  Uiso   1.00
C423   C     0.42845   0.29128   0.18519   0.00000  Uiso   1.00
C424   C     0.37212   0.86421   0.09170   0.00000  Uiso   1.00
C425   C     0.39103   0.84332   0.06179   0.00000  Uiso   1.00
C426   C     0.35760   0.85589   0.03670   0.00000  Uiso   1.00
C427   C     0.31885   0.86439   0.98831   0.00000  Uiso   1.00
C428   C     0.30901   0.91510   0.13106   0.00000  Uiso   1.00
C429   C     0.32169   0.81065   0.14796   0.00000  Uiso   1.00
C430   C     0.28830   0.75102   0.16627   0.00000  Uiso   1.00
C431   C     0.30725   0.65780   0.17974   0.00000  Uiso   1.00
C432   C     0.34747   0.99735   0.14289   0.00000  Uiso   1.00
C433   C     0.33576   0.09469   0.15693   0.00000  Uiso   1.00
C434   C     0.37641   0.15865   0.16612   0.00000  Uiso   1.00
C435   C     0.32159   0.89654   0.09640   0.00000  Uiso   1.00
C436   C     0.28812   0.90916   0.07136   0.00000  Uiso   1.00
C437   C     0.30698   0.88827   0.04141   0.00000  Uiso   1.00
H438   H     0.44136   0.83043   0.11875   0.00000  Uiso   1.00
H439   H     0.43031   0.66019   0.15307   0.00000  Uiso   1.00
H440   H     0.47776   0.00381   0.14372   0.00000  Uiso   1.00
H441   H     0.43013   0.81830   0.05816   0.00000  Uiso   1.00
H442   H     0.39580   0.48573   0.19319   0.00000  Uiso   1.00
H443   H     0.49585   0.21029   0.17347   0.00000  Uiso   1.00
H444   H     0.39541   0.81911   0.99306   0.00000  Uiso   1.00
H445   H     0.26967   0.94027   0.13471   0.00000  Uiso   1.00
H446   H     0.24921   0.77606   0.16990   0.00000  Uiso   1.00
H447   H     0.29666   0.11968   0.16056   0.00000  Uiso   1.00
H448   H     0.24903   0.93417   0.07500   0.00000  Uiso   1.00
H449   H     0.24881   0.57977   0.20686   0.00000  Uiso   1.00
H450   H     0.34885   0.30434   0.18714   0.00000  Uiso   1.00
H451   H     0.24842   0.91316   0.00672   0.00000  Uiso   1.00
O452   O     0.31194   0.42276   0.22289   0.00000  Uiso   1.00
O453   O     0.44320   0.37337   0.19701   0.00000  Uiso   1.00
O454   O     0.31143   0.86014   0.96032   0.00000  Uiso   1.00
N455   N     0.36401   0.53038   0.19157   0.00000  Uiso   1.00
N456   N     0.45755   0.20780   0.17314   0.00000  Uiso   1.00
N457   N     0.36365   0.84211   0.00447   0.00000  Uiso   1.00
N458   N     0.28491   0.58099   0.19893   0.00000  Uiso   1.00
N459   N     0.37845   0.25841   0.18049   0.00000  Uiso   1.00
N460   N     0.28456   0.89271   0.01182   0.00000  Uiso   1.00
C461   C     0.09845   0.85858   0.82588   0.00000  Uiso   1.00
C462   C     0.12853   0.78165   0.80507   0.00000  Uiso   1.00
C463   C     0.10960   0.68912   0.79122   0.00000  Uiso   1.00
C464   C     0.14320   0.62958   0.77301   0.00000  Uiso   1.00
C465   C     0.18218   0.50529   0.74132   0.00000  Uiso   1.00
C466   C     0.10308   0.96845   0.81044   0.00000  Uiso   1.00
C467   C     0.06276   0.03300   0.80110   0.00000  Uiso   1.00
C468   C     0.07495   0.13072   0.78741   0.00000  Uiso   1.00
C469   C     0.07442   0.29648   0.76407   0.00000  Uiso   1.00
C470   C     0.12771   0.86594   0.85685   0.00000  Uiso   1.00
C471   C     0.10810   0.84432   0.88656   0.00000  Uiso   1.00
C472   C     0.14102   0.85576   0.91195   0.00000  Uiso   1.00
C473   C     0.17874   0.86235   0.96068   0.00000  Uiso   1.00
C474   C     0.19179   0.91737   0.81816   0.00000  Uiso   1.00
C475   C     0.17922   0.81358   0.80088   0.00000  Uiso   1.00
C476   C     0.21286   0.75416   0.78268   0.00000  Uiso   1.00
C477   C     0.19399   0.66156   0.76881   0.00000  Uiso   1.00
C478   C     0.15377   0.00038   0.80624   0.00000  Uiso   1.00
C479   C     0.16602   0.09803   0.79256   0.00000  Uiso   1.00
C480   C     0.12573   0.16271   0.78321   0.00000  Uiso   1.00
C481   C     0.17841   0.89787   0.85266   0.00000  Uiso   1.00
C482   C     0.21137   0.90935   0.87801   0.00000  Uiso   1.00
C483   C     0.19181   0.88774   0.90774   0.00000  Uiso   1.00
H484   H     0.05899   0.83373   0.82915   0.00000  Uiso   1.00
H485   H     0.07036   0.66445   0.79447   0.00000  Uiso   1.00
H486   H     0.02353   0.00828   0.80435   0.00000  Uiso   1.00
H487   H     0.06887   0.81962   0.88979   0.00000  Uiso   1.00
H488   H     0.10533   0.49086   0.75417   0.00000  Uiso   1.00
H489   H     0.00658   0.21586   0.77501   0.00000  Uiso   1.00
H490   H     0.10218   0.81804   0.95518   0.00000  Uiso   1.00
H491   H     0.23126   0.94223   0.81490   0.00000  Uiso   1.00
H492   H     0.25209   0.77888   0.77944   0.00000  Uiso   1.00
H493   H     0.20526   0.12271   0.78932   0.00000  Uiso   1.00
H494   H     0.25060   0.93406   0.87476   0.00000  Uiso   1.00
H495   H     0.25282   0.58375   0.74197   0.00000  Uiso   1.00
H496   H     0.15408   0.30875   0.76281   0.00000  Uiso   1.00
H497   H     0.24968   0.91093   0.94297   0.00000  Uiso   1.00
O498   O     0.18967   0.42792   0.72499   0.00000  Uiso   1.00
O499   O     0.06012   0.37909   0.75235   0.00000  Uiso   1.00
O500   O     0.18554   0.85716   0.98871   0.00000  Uiso   1.00
N501   N     0.13719   0.53513   0.75617   0.00000  Uiso   1.00
N502   N     0.04487   0.21295   0.77565   0.00000  Uiso   1.00
N503   N     0.13424   0.84105   0.94409   0.00000  Uiso   1.00
N504   N     0.21655   0.58511   0.74960   0.00000  Uiso   1.00
N505   N     0.12423   0.26293   0.76909   0.00000  Uiso   1.00
N506   N     0.21361   0.89103   0.93752   0.00000  Uiso   1.00
C507   C     0.09798   0.64441   0.62241   0.00000  Uiso   1.00
C508   C     0.12779   0.72168   0.64326   0.00000  Uiso   1.00
C509   C     0.10879   0.81483   0.65670   0.00000  Uiso   1.00
C510   C     0.14214   0.87458   0.67503   0.00000  Uiso   1.00
C511   C     0.18073   0.99945   0.70671   0.00000  Uiso   1.00
C512   C     0.10201   0.53498   0.63819   0.00000  Uiso   1.00
C513   C     0.06133   0.47115   0.64736   0.00000  Uiso   1.00
C514   C     0.07298   0.37374   0.66141   0.00000  Uiso   1.00
C515   C     0.07155   0.20872   0.68519   0.00000  Uiso   1.00
C516   C     0.12788   0.63579   0.59170   0.00000  Uiso   1.00
C517   C     0.10897   0.65668   0.56179   0.00000  Uiso   1.00
C518   C     0.14240   0.64411   0.53670   0.00000  Uiso   1.00
C519   C     0.18115   0.63561   0.48831   0.00000  Uiso   1.00
C520   C     0.19099   0.58490   0.63106   0.00000  Uiso   1.00
C521   C     0.17831   0.68935   0.64796   0.00000  Uiso   1.00
C522   C     0.21170   0.74898   0.66627   0.00000  Uiso   1.00
C523   C     0.19275   0.84220   0.67974   0.00000  Uiso   1.00
C524   C     0.15253   0.50265   0.64289   0.00000  Uiso   1.00
C525   C     0.16424   0.40531   0.65693   0.00000  Uiso   1.00
C526   C     0.12359   0.34135   0.66612   0.00000  Uiso   1.00
C527   C     0.17841   0.60346   0.59640   0.00000  Uiso   1.00
C528   C     0.21188   0.59084   0.57136   0.00000  Uiso   1.00
C529   C     0.19302   0.61173   0.54141   0.00000  Uiso   1.00
H530   H     0.05864   0.66957   0.61875   0.00000  Uiso   1.00
H531   H     0.06969   0.83981   0.65307   0.00000  Uiso   1.00
H532   H     0.02224   0.49619   0.64372   0.00000  Uiso   1.00
H533   H     0.06987   0.68170   0.55816   0.00000  Uiso   1.00
H534   H     0.10420   0.01427   0.69319   0.00000  Uiso   1.00
H535   H     0.00415   0.28971   0.67347   0.00000  Uiso   1.00
H536   H     0.10459   0.68089   0.49306   0.00000  Uiso   1.00
H537   H     0.23033   0.55973   0.63471   0.00000  Uiso   1.00
H538   H     0.25079   0.72394   0.66990   0.00000  Uiso   1.00
H539   H     0.20334   0.38032   0.66056   0.00000  Uiso   1.00
H540   H     0.25097   0.56583   0.57500   0.00000  Uiso   1.00
H541   H     0.25119   0.92023   0.70686   0.00000  Uiso   1.00
H542   H     0.15115   0.19566   0.68714   0.00000  Uiso   1.00
H543   H     0.25158   0.58684   0.50672   0.00000  Uiso   1.00
O544   O     0.18806   0.07724   0.72289   0.00000  Uiso   1.00
O545   O     0.05680   0.12663   0.69701   0.00000  Uiso   1.00
O546   O     0.18857   0.63986   0.46032   0.00000  Uiso   1.00
N547   N     0.13599   0.96962   0.69157   0.00000  Uiso   1.00
N548   N     0.04245   0.29220   0.67314   0.00000  Uiso   1.00
N549   N     0.13635   0.65789   0.50447   0.00000  Uiso   1.00
N550   N     0.21509   0.91901   0.69893   0.00000  Uiso   1.00
N551   N     0.12155   0.24159   0.68049   0.00000  Uiso   1.00
N552   N     0.21544   0.60729   0.51182   0.00000  Uiso   1.00
C553   C     0.59845   0.64142   0.17412   0.00000  Uiso   1.00
C554   C     0.62853   0.71835   0.19493   0.00000  Uiso   1.00
C555   C     0.60960   0.81088   0.20878   0.00000  Uiso   1.00
C556   C     0.64320   0.87042   0.22699   0.00000  Uiso   1.00
C557   C     0.68218   0.99471   0.25868   0.00000  Uiso   1.00
C558   C     0.60308   0.53155   0.18956   0.00000  Uiso   1.00
C559   C     0.56276   0.46700   0.19890   0.00000  Uiso   1.00
C560   C     0.57495   0.36928   0.21259   0.00000  Uiso   1.00
C561   C     0.57442   0.20352   0.23593   0.00000  Uiso   1.00
C562   C     0.62771   0.63406   0.14315   0.00000  Uiso   1.00
C563   C     0.60810   0.65568   0.11344   0.00000  Uiso   1.00
C564   C     0.64102   0.64424   0.08805   0.00000  Uiso   1.00
C565   C     0.67874   0.63765   0.03932   0.00000  Uiso   1.00
C566   C     0.69179   0.58263   0.18184   0.00000  Uiso   1.00
C567   C     0.67922   0.68642   0.19912   0.00000  Uiso   1.00
C568   C     0.71286   0.74584   0.21732   0.00000  Uiso   1.00
C569   C     0.69399   0.83844   0.23119   0.00000  Uiso   1.00
C570   C     0.65377   0.49962   0.19376   0.00000  Uiso   1.00
C571   C     0.66602   0.40197   0.20744   0.00000  Uiso   1.00
C572   C     0.62573   0.33729   0.21679   0.00000  Uiso   1.00
C573   C     0.67841   0.60213   0.14734   0.00000  Uiso   1.00
C574   C     0.71137   0.59065   0.12199   0.00000  Uiso   1.00
C575   C     0.69181   0.61226   0.09226   0.00000  Uiso   1.00
H576   H     0.55899   0.66627   0.17085   0.00000  Uiso   1.00
H577   H     0.57036   0.83555   0.20553   0.00000  Uiso   1.00
H578   H     0.52353   0.49172   0.19565   0.00000  Uiso   1.00
H579   H     0.56887   0.68038   0.11021   0.00000  Uiso   1.00
H580   H     0.60533   0.00914   0.24583   0.00000  Uiso   1.00
H581   H     0.50658   0.28414   0.22499   0.00000  Uiso   1.00
H582   H     0.60218   0.68196   0.04482   0.00000  Uiso   1.00
H583   H     0.73126   0.55777   0.18510   0.00000  Uiso   1.00
H584   H     0.75209   0.72112   0.22056   0.00000  Uiso   1.00
H585   H     0.70526   0.37729   0.21068   0.00000  Uiso   1.00
H586   H     0.75060   0.56594   0.12524   0.00000  Uiso   1.00
H587   H     0.75282   0.91625   0.25803   0.00000  Uiso   1.00
H588   H     0.65408   0.19125   0.23719   0.00000  Uiso   1.00
H589   H     0.74968   0.58907   0.05703   0.00000  Uiso   1.00
O590   O     0.68967   0.07208   0.27501   0.00000  Uiso   1.00
O591   O     0.56012   0.12091   0.24765   0.00000  Uiso   1.00
O592   O     0.68554   0.64284   0.01129   0.00000  Uiso   1.00
N593   N     0.63719   0.96487   0.24383   0.00000  Uiso   1.00
N594   N     0.54487   0.28705   0.22435   0.00000  Uiso   1.00
N595   N     0.63424   0.65895   0.05591   0.00000  Uiso   1.00
N596   N     0.71655   0.91489   0.25040   0.00000  Uiso   1.00
N597   N     0.62423   0.23707   0.23091   0.00000  Uiso   1.00
N598   N     0.71361   0.60897   0.06248   0.00000  Uiso   1.00
C599   C     0.59798   0.85559   0.37759   0.00000  Uiso   1.00
C600   C     0.62779   0.77832   0.35674   0.00000  Uiso   1.00
C601   C     0.60879   0.68517   0.34330   0.00000  Uiso   1.00
C602   C     0.64214   0.62542   0.32497   0.00000  Uiso   1.00
C603   C     0.68073   0.50055   0.29329   0.00000  Uiso   1.00
C604   C     0.60201   0.96502   0.36181   0.00000  Uiso   1.00
C605   C     0.56133   0.02885   0.35264   0.00000  Uiso   1.00
C606   C     0.57298   0.12626   0.33859   0.00000  Uiso   1.00
C607   C     0.57155   0.29128   0.31481   0.00000  Uiso   1.00
C608   C     0.62788   0.86421   0.40830   0.00000  Uiso   1.00
C609   C     0.60897   0.84332   0.43821   0.00000  Uiso   1.00
C610   C     0.64240   0.85589   0.46330   0.00000  Uiso   1.00
C611   C     0.68115   0.86439   0.51169   0.00000  Uiso   1.00
C612   C     0.69099   0.91510   0.36894   0.00000  Uiso   1.00
C613   C     0.67831   0.81065   0.35204   0.00000  Uiso   1.00
C614   C     0.71170   0.75102   0.33373   0.00000  Uiso   1.00
C615   C     0.69275   0.65780   0.32026   0.00000  Uiso   1.00
C616   C     0.65253   0.99735   0.35711   0.00000  Uiso   1.00
C617   C     0.66424   0.09469   0.34307   0.00000  Uiso   1.00
C618   C     0.62359   0.15865   0.33388   0.00000  Uiso   1.00
C619   C     0.67841   0.89654   0.40360   0.00000  Uiso   1.00
C620   C     0.71188   0.90916   0.42864   0.00000  Uiso   1.00
C621   C     0.69302   0.88827   0.45859   0.00000  Uiso   1.00
H622   H     0.55864   0.83043   0.38125   0.00000  Uiso   1.00
H623   H     0.56969   0.66019   0.34693   0.00000  Uiso   1.00
H624   H     0.52224   0.00381   0.35628   0.00000  Uiso   1.00
H625   H     0.56987   0.81830   0.44184   0.00000  Uiso   1.00
H626   H     0.60420   0.48573   0.30681   0.00000  Uiso   1.00
H627   H     0.50415   0.21029   0.32653   0.00000  Uiso   1.00
H628   H     0.60459   0.81911   0.50694   0.00000  Uiso   1.00
H629   H     0.73033   0.94027   0.36529   0.00000  Uiso   1.00
H630   H     0.75079   0.77606   0.33010   0.00000  Uiso   1.00
H631   H     0.70334   0.11968   0.33944   0.00000  Uiso   1.00
H632   H     0.75097   0.93417   0.42500   0.00000  Uiso   1.00
H633   H     0.75119   0.57977   0.29314   0.00000  Uiso   1.00
H634   H     0.65115   0.30434   0.31286   0.00000  Uiso   1.00
H635   H     0.75158   0.91316   0.49328   0.00000  Uiso   1.00
O636   O     0.68806   0.42276   0.27711   0.00000  Uiso   1.00
O637   O     0.55680   0.37337   0.30299   0.00000  Uiso   1.00
O638   O     0.68857   0.86014   0.53968   0.00000  Uiso   1.00
N639   N     0.63599   0.53038   0.30843   0.00000  Uiso   1.00
N640   N     0.54245   0.20780   0.32686   0.00000  Uiso   1.00
N641   N     0.63635   0.84211   0.49553   0.00000  Uiso   1.00
N642   N     0.71509   0.58099   0.30107   0.00000  Uiso   1.00
N643   N     0.62155   0.25841   0.31951   0.00000  Uiso   1.00
N644   N     0.71544   0.89271   0.48818   0.00000  Uiso   1.00
C645   C     0.90155   0.85858   0.67412   0.00000  Uiso   1.00
C646   C     0.87147   0.78165   0.69493   0.00000  Uiso   1.00
C647   C     0.89040   0.68912   0.70878   0.00000  Uiso   1.00
C648   C     0.85680   0.62958   0.72699   0.00000  Uiso   1.00
C649   C     0.81782   0.50529   0.75868   0.00000  Uiso   1.00
C650   C     0.89692   0.96845   0.68956   0.00000  Uiso   1.00
C651   C     0.93724   0.03300   0.69890   0.00000  Uiso   1.00
C652   C     0.92505   0.13072   0.71259   0.00000  Uiso   1.00
C653   C     0.92558   0.29648   0.73593   0.00000  Uiso   1.00
C654   C     0.87229   0.86594   0.64315   0.00000  Uiso   1.00
C655   C     0.89190   0.84432   0.61344   0.00000  Uiso   1.00
C656   C     0.85898   0.85576   0.58805   0.00000  Uiso   1.00
C657   C     0.82126   0.86235   0.53932   0.00000  Uiso   1.00
C658   C     0.80821   0.91737   0.68184   0.00000  Uiso   1.00
C659   C     0.82078   0.81358   0.69912   0.00000  Uiso   1.00
C660   C     0.78714   0.75416   0.71732   0.00000  Uiso   1.00
C661   C     0.80601   0.66156   0.73119   0.00000  Uiso   1.00
C662   C     0.84623   0.00038   0.69376   0.00000  Uiso   1.00
C663   C     0.83398   0.09803   0.70744   0.00000  Uiso   1.00
C664   C     0.87427   0.16271   0.71679   0.00000  Uiso   1.00
C665   C     0.82159   0.89787   0.64734   0.00000  Uiso   1.00
C666   C     0.78863   0.90935   0.62199   0.00000  Uiso   1.00
C667   C     0.80819   0.88774   0.59226   0.00000  Uiso   1.00
H668   H     0.94101   0.83373   0.67085   0.00000  Uiso   1.00
H669   H     0.92964   0.66445   0.70553   0.00000  Uiso   1.00
H670   H     0.97647   0.00828   0.69565   0.00000  Uiso   1.00
H671   H     0.93113   0.81962   0.61021   0.00000  Uiso   1.00
H672   H     0.89467   0.49086   0.74583   0.00000  Uiso   1.00
H673   H     0.99342   0.21586   0.72499   0.00000  Uiso   1.00
H674   H     0.89782   0.81804   0.54482   0.00000  Uiso   1.00
H675   H     0.76874   0.94223   0.68510   0.00000  Uiso   1.00
H676   H     0.74791   0.77888   0.72056   0.00000  Uiso   1.00
H677   H     0.79474   0.12271   0.71068   0.00000  Uiso   1.00
H678   H     0.74940   0.93406   0.62524   0.00000  Uiso   1.00
H679   H     0.74718   0.58375   0.75803   0.00000  Uiso   1.00
H680   H     0.84592   0.30875   0.73719   0.00000  Uiso   1.00
H681   H     0.75032   0.91093   0.55703   0.00000  Uiso   1.00
O682   O     0.81033   0.42792   0.77501   0.00000  Uiso   1.00
O683   O     0.93988   0.37909   0.74765   0.00000  Uiso   1.00
O684   O     0.81446   0.85716   0.51129   0.00000  Uiso   1.00
N685   N     0.86281   0.53513   0.74383   0.00000  Uiso   1.00
N686   N     0.95513   0.21295   0.72435   0.00000  Uiso   1.00
N687   N     0.86576   0.84105   0.55591   0.00000  Uiso   1.00
N688   N     0.78345   0.58511   0.75040   0.00000  Uiso   1.00
N689   N     0.87577   0.26293   0.73091   0.00000  Uiso   1.00
N690   N     0.78639   0.89103   0.56248   0.00000  Uiso   1.00
C691   C     0.90202   0.64441   0.87759   0.00000  Uiso   1.00
C692   C     0.87221   0.72168   0.85674   0.00000  Uiso   1.00
C693   C     0.89121   0.81483   0.84330   0.00000  Uiso   1.00
C694   C     0.85786   0.87458   0.82497   0.00000  Uiso   1.00
C695   C     0.81927   0.99945   0.79329   0.00000  Uiso   1.00
C696   C     0.89799   0.53498   0.86181   0.00000  Uiso   1.00
C697   C     0.93867   0.47115   0.85264   0.00000  Uiso   1.00
C698   C     0.92702   0.37374   0.83859   0.00000  Uiso   1.00
C699   C     0.92845   0.20872   0.81481   0.00000  Uiso   1.00
C700   C     0.87212   0.63579   0.90830   0.00000  Uiso   1.00
C701   C     0.89103   0.65668   0.93821   0.00000  Uiso   1.00
C702   C     0.85760   0.64411   0.96330   0.00000  Uiso   1.00
C703   C     0.81885   0.63561   0.01169   0.00000  Uiso   1.00
C704   C     0.80901   0.58490   0.86894   0.00000  Uiso   1.00
C705   C     0.82169   0.68935   0.85204   0.00000  Uiso   1.00
C706   C     0.78830   0.74898   0.83373   0.00000  Uiso   1.00
C707   C     0.80725   0.84220   0.82026   0.00000  Uiso   1.00
C708   C     0.84747   0.50265   0.85711   0.00000  Uiso   1.00
C709   C     0.83576   0.40531   0.84307   0.00000  Uiso   1.00
C710   C     0.87641   0.34135   0.83388   0.00000  Uiso   1.00
C711   C     0.82159   0.60346   0.90360   0.00000  Uiso   1.00
C712   C     0.78812   0.59084   0.92864   0.00000  Uiso   1.00
C713   C     0.80698   0.61173   0.95859   0.00000  Uiso   1.00
H714   H     0.94136   0.66957   0.88125   0.00000  Uiso   1.00
H715   H     0.93031   0.83981   0.84693   0.00000  Uiso   1.00
H716   H     0.97776   0.49619   0.85628   0.00000  Uiso   1.00
H717   H     0.93013   0.68170   0.94184   0.00000  Uiso   1.00
H718   H     0.89580   0.01427   0.80681   0.00000  Uiso   1.00
H719   H     0.99585   0.28971   0.82653   0.00000  Uiso   1.00
H720   H     0.89541   0.68089   0.00694   0.00000  Uiso   1.00
H721   H     0.76967   0.55973   0.86529   0.00000  Uiso   1.00
H722   H     0.74921   0.72394   0.83010   0.00000  Uiso   1.00
H723   H     0.79666   0.38032   0.83944   0.00000  Uiso   1.00
H724   H     0.74903   0.56583   0.92500   0.00000  Uiso   1.00
H725   H     0.74881   0.92023   0.79314   0.00000  Uiso   1.00
H726   H     0.84885   0.19566   0.81286   0.00000  Uiso   1.00
H727   H     0.74842   0.58684   0.99328   0.00000  Uiso   1.00
O728   O     0.81194   0.07724   0.77711   0.00000  Uiso   1.00
O729   O     0.94320   0.12663   0.80299   0.00000  Uiso   1.00
O730   O     0.81143   0.63986   0.03968   0.00000  Uiso   1.00
N731   N     0.86401   0.96962   0.80843   0.00000  Uiso   1.00
N732   N     0.95755   0.29220   0.82686   0.00000  Uiso   1.00
N733   N     0.86365   0.65789   0.99553   0.00000  Uiso   1.00
N734   N     0.78491   0.91901   0.80107   0.00000  Uiso   1.00
N735   N     0.87845   0.24159   0.81951   0.00000  Uiso   1.00
N736   N     0.78456   0.60729   0.98818   0.00000  Uiso   1.00
