data_job_06519
_audit_creation_date              2018-12-19
_audit_creation_method            'Materials Studio'
_symmetry_space_group_name_H-M    'P1'
_symmetry_Int_Tables_number       1
_symmetry_cell_setting            triclinic
loop_
_symmetry_equiv_pos_as_xyz
  x,y,z
_cell_length_a                    26.9481
_cell_length_b                    38.9165
_cell_length_c                    16.2611
_cell_angle_alpha                 90.0000
_cell_angle_beta                  111.2304
_cell_angle_gamma                 90.0000
loop_
_atom_site_label
_atom_site_type_symbol
_atom_site_fract_x
_atom_site_fract_y
_atom_site_fract_z
_atom_site_U_iso_or_equiv
_atom_site_adp_type
_atom_site_occupancy
C1     C     0.73495   0.06324   0.26798   0.00000  Uiso   1.00
C2     C     0.73721   0.06180   0.36298   0.00000  Uiso   1.00
C3     C     0.75735   0.03483   0.42144   0.00000  Uiso   1.00
C4     C     0.75581   0.03844   0.50543   0.00000  Uiso   1.00
C5     C     0.76247   0.03170   0.64919   0.00000  Uiso   1.00
C6     C     0.67671   0.06932   0.21097   0.00000  Uiso   1.00
C7     C     0.64598   0.04869   0.14161   0.00000  Uiso   1.00
C8     C     0.59352   0.05864   0.09763   0.00000  Uiso   1.00
C9     C     0.50626   0.06359   0.00535   0.00000  Uiso   1.00
C10    C     0.76453   0.09586   0.26097   0.00000  Uiso   1.00
C11    C     0.80765   0.09753   0.23362   0.00000  Uiso   1.00
C12    C     0.82912   0.12982   0.23172   0.00000  Uiso   1.00
C13    C     0.87823   0.17597   0.21707   0.00000  Uiso   1.00
C14    C     0.69641   0.11760   0.31319   0.00000  Uiso   1.00
C15    C     0.71627   0.09132   0.38753   0.00000  Uiso   1.00
C16    C     0.71471   0.09498   0.47146   0.00000  Uiso   1.00
C17    C     0.73485   0.06802   0.53003   0.00000  Uiso   1.00
C18    C     0.65577   0.09885   0.23552   0.00000  Uiso   1.00
C19    C     0.60335   0.10883   0.19163   0.00000  Uiso   1.00
C20    C     0.57255   0.08822   0.12223   0.00000  Uiso   1.00
C21    C     0.74360   0.12538   0.28552   0.00000  Uiso   1.00
C22    C     0.76501   0.15768   0.28365   0.00000  Uiso   1.00
C23    C     0.80815   0.15940   0.25631   0.00000  Uiso   1.00
H24    H     0.75125   0.04025   0.24886   0.00000  Uiso   1.00
H25    H     0.77354   0.01198   0.40241   0.00000  Uiso   1.00
H26    H     0.66220   0.02584   0.12262   0.00000  Uiso   1.00
H27    H     0.82384   0.07468   0.21463   0.00000  Uiso   1.00
H28    H     0.78900   0.99366   0.58346   0.00000  Uiso   1.00
H29    H     0.55424   0.02288   0.99350   0.00000  Uiso   1.00
H30    H     0.89508   0.12586   0.18751   0.00000  Uiso   1.00
H31    H     0.68012   0.14059   0.33230   0.00000  Uiso   1.00
H32    H     0.69851   0.11783   0.49044   0.00000  Uiso   1.00
H33    H     0.58716   0.13169   0.21065   0.00000  Uiso   1.00
H34    H     0.74880   0.18052   0.30265   0.00000  Uiso   1.00
H35    H     0.72810   0.07956   0.65491   0.00000  Uiso   1.00
H36    H     0.49333   0.10879   0.06494   0.00000  Uiso   1.00
H37    H     0.83418   0.21177   0.25895   0.00000  Uiso   1.00
O38    O     0.77192   0.01982   0.72170   0.00000  Uiso   1.00
O39    O     0.46392   0.05817   0.94768   0.00000  Uiso   1.00
O40    O     0.91110   0.19327   0.20221   0.00000  Uiso   1.00
N41    N     0.77216   0.01700   0.57858   0.00000  Uiso   1.00
N42    N     0.55266   0.04432   0.02701   0.00000  Uiso   1.00
N43    N     0.87132   0.14060   0.20837   0.00000  Uiso   1.00
N44    N     0.73939   0.06323   0.61703   0.00000  Uiso   1.00
N45    N     0.51989   0.09055   0.06545   0.00000  Uiso   1.00
N46    N     0.83855   0.18683   0.24681   0.00000  Uiso   1.00
C47    C     0.19479   0.09446   0.61552   0.00000  Uiso   1.00
C48    C     0.16232   0.07035   0.65032   0.00000  Uiso   1.00
C49    C     0.11741   0.05220   0.59920   0.00000  Uiso   1.00
C50    C     0.09336   0.03151   0.64358   0.00000  Uiso   1.00
C51    C     0.03986   0.99445   0.68360   0.00000  Uiso   1.00
C52    C     0.19575   0.12897   0.66050   0.00000  Uiso   1.00
C53    C     0.17895   0.16011   0.61794   0.00000  Uiso   1.00
C54    C     0.18306   0.18876   0.67088   0.00000  Uiso   1.00
C55    C     0.18149   0.24272   0.72671   0.00000  Uiso   1.00
C56    C     0.25178   0.08099   0.65202   0.00000  Uiso   1.00
C57    C     0.28210   0.07181   0.60234   0.00000  Uiso   1.00
C58    C     0.33338   0.06008   0.64815   0.00000  Uiso   1.00
C59    C     0.41881   0.03954   0.69081   0.00000  Uiso   1.00
C60    C     0.23197   0.08997   0.78522   0.00000  Uiso   1.00
C61    C     0.18252   0.06791   0.74250   0.00000  Uiso   1.00
C62    C     0.15854   0.04723   0.78696   0.00000  Uiso   1.00
C63    C     0.11360   0.02906   0.73592   0.00000  Uiso   1.00
C64    C     0.21595   0.12653   0.75268   0.00000  Uiso   1.00
C65    C     0.22008   0.15514   0.80570   0.00000  Uiso   1.00
C66    C     0.20329   0.18632   0.76323   0.00000  Uiso   1.00
C67    C     0.27198   0.07855   0.74420   0.00000  Uiso   1.00
C68    C     0.32323   0.06684   0.79010   0.00000  Uiso   1.00
C69    C     0.35361   0.05763   0.74049   0.00000  Uiso   1.00
H70    H     0.17907   0.09636   0.54375   0.00000  Uiso   1.00
H71    H     0.10179   0.05410   0.52787   0.00000  Uiso   1.00
H72    H     0.16333   0.16199   0.54661   0.00000  Uiso   1.00
H73    H     0.26646   0.07370   0.53101   0.00000  Uiso   1.00
H74    H     0.02500   0.00618   0.55091   0.00000  Uiso   1.00
H75    H     0.15478   0.23368   0.59042   0.00000  Uiso   1.00
H76    H     0.37224   0.04750   0.55752   0.00000  Uiso   1.00
H77    H     0.24770   0.08807   0.85699   0.00000  Uiso   1.00
H78    H     0.17418   0.04535   0.85830   0.00000  Uiso   1.00
H79    H     0.23572   0.15324   0.87703   0.00000  Uiso   1.00
H80    H     0.33884   0.06495   0.86143   0.00000  Uiso   1.00
H81    H     0.08375   0.99908   0.81910   0.00000  Uiso   1.00
H82    H     0.21353   0.22658   0.85860   0.00000  Uiso   1.00
H83    H     0.43099   0.04040   0.82571   0.00000  Uiso   1.00
O84    O     0.00476   0.97469   0.68022   0.00000  Uiso   1.00
O85    O     0.17504   0.27315   0.73204   0.00000  Uiso   1.00
O86    O     0.46034   0.02889   0.68888   0.00000  Uiso   1.00
N87    N     0.04892   0.01037   0.61385   0.00000  Uiso   1.00
N88    N     0.17025   0.22306   0.65078   0.00000  Uiso   1.00
N89    N     0.37356   0.04901   0.62003   0.00000  Uiso   1.00
N90    N     0.08053   0.00654   0.75816   0.00000  Uiso   1.00
N91    N     0.20186   0.21924   0.79509   0.00000  Uiso   1.00
N92    N     0.40518   0.04519   0.76434   0.00000  Uiso   1.00
C93    C     0.05198   0.83699   0.51241   0.00000  Uiso   1.00
C94    C     0.06023   0.85356   0.60137   0.00000  Uiso   1.00
C95    C     0.08827   0.88364   0.63328   0.00000  Uiso   1.00
C96    C     0.09127   0.89456   0.71622   0.00000  Uiso   1.00
C97    C     0.10779   0.92311   0.84689   0.00000  Uiso   1.00
C98    C     0.07327   0.80042   0.53260   0.00000  Uiso   1.00
C99    C     0.11226   0.78582   0.50667   0.00000  Uiso   1.00
C100   C     0.12623   0.75201   0.53172   0.00000  Uiso   1.00
C101   C     0.16297   0.69804   0.55557   0.00000  Uiso   1.00
C102   C     0.99192   0.83362   0.46532   0.00000  Uiso   1.00
C103   C     0.96252   0.84692   0.38281   0.00000  Uiso   1.00
C104   C     0.90800   0.84106   0.35120   0.00000  Uiso   1.00
C105   C     0.81842   0.83865   0.27059   0.00000  Uiso   1.00
C106   C     0.00744   0.80291   0.60298   0.00000  Uiso   1.00
C107   C     0.03604   0.83506   0.65056   0.00000  Uiso   1.00
C108   C     0.03900   0.84594   0.73348   0.00000  Uiso   1.00
C109   C     0.06704   0.87603   0.76550   0.00000  Uiso   1.00
C110   C     0.04908   0.78192   0.58179   0.00000  Uiso   1.00
C111   C     0.06299   0.74812   0.60688   0.00000  Uiso   1.00
C112   C     0.10200   0.73347   0.58100   0.00000  Uiso   1.00
C113   C     0.96773   0.81512   0.51451   0.00000  Uiso   1.00
C114   C     0.91325   0.80923   0.48302   0.00000  Uiso   1.00
C115   C     0.88377   0.82252   0.40048   0.00000  Uiso   1.00
H116   H     0.07081   0.85139   0.47411   0.00000  Uiso   1.00
H117   H     0.10699   0.89795   0.59519   0.00000  Uiso   1.00
H118   H     0.13097   0.80014   0.46860   0.00000  Uiso   1.00
H119   H     0.98125   0.86124   0.34476   0.00000  Uiso   1.00
H120   H     0.13644   0.94140   0.75114   0.00000  Uiso   1.00
H121   H     0.18701   0.73516   0.48419   0.00000  Uiso   1.00
H122   H     0.87129   0.86401   0.22305   0.00000  Uiso   1.00
H123   H     0.98861   0.78851   0.64128   0.00000  Uiso   1.00
H124   H     0.02028   0.83161   0.77153   0.00000  Uiso   1.00
H125   H     0.04426   0.73381   0.64494   0.00000  Uiso   1.00
H126   H     0.89454   0.79491   0.52111   0.00000  Uiso   1.00
H127   H     0.06607   0.88756   0.89427   0.00000  Uiso   1.00
H128   H     0.11663   0.68132   0.62732   0.00000  Uiso   1.00
H129   H     0.80091   0.81016   0.36618   0.00000  Uiso   1.00
O130   O     0.12358   0.94396   0.90538   0.00000  Uiso   1.00
O131   O     0.18991   0.67339   0.55514   0.00000  Uiso   1.00
O132   O     0.77570   0.84243   0.21254   0.00000  Uiso   1.00
N133   N     0.11553   0.92281   0.76694   0.00000  Uiso   1.00
N134   N     0.16281   0.73000   0.51737   0.00000  Uiso   1.00
N135   N     0.86763   0.85045   0.27322   0.00000  Uiso   1.00
N136   N     0.07766   0.89384   0.84396   0.00000  Uiso   1.00
N137   N     0.12494   0.70103   0.59439   0.00000  Uiso   1.00
N138   N     0.82977   0.82148   0.35023   0.00000  Uiso   1.00
C139   C     0.29299   0.93749   0.75803   0.00000  Uiso   1.00
C140   C     0.28316   0.95151   0.66590   0.00000  Uiso   1.00
C141   C     0.24986   0.97874   0.62613   0.00000  Uiso   1.00
C142   C     0.24629   0.98766   0.54150   0.00000  Uiso   1.00
C143   C     0.22668   0.01214   0.40503   0.00000  Uiso   1.00
C144   C     0.35301   0.93925   0.80754   0.00000  Uiso   1.00
C145   C     0.37842   0.95616   0.88686   0.00000  Uiso   1.00
C146   C     0.43364   0.95475   0.92147   0.00000  Uiso   1.00
C147   C     0.52246   0.96018   0.00493   0.00000  Uiso   1.00
C148   C     0.27905   0.89938   0.74614   0.00000  Uiso   1.00
C149   C     0.24229   0.88276   0.77386   0.00000  Uiso   1.00
C150   C     0.23526   0.84778   0.75679   0.00000  Uiso   1.00
C151   C     0.20926   0.79130   0.74492   0.00000  Uiso   1.00
C152   C     0.34588   0.90492   0.67846   0.00000  Uiso   1.00
C153   C     0.31189   0.93382   0.62268   0.00000  Uiso   1.00
C154   C     0.30837   0.94270   0.53809   0.00000  Uiso   1.00
C155   C     0.27506   0.96993   0.49820   0.00000  Uiso   1.00
C156   C     0.38173   0.92156   0.76432   0.00000  Uiso   1.00
C157   C     0.43693   0.92013   0.79882   0.00000  Uiso   1.00
C158   C     0.46242   0.93703   0.87817   0.00000  Uiso   1.00
C159   C     0.30778   0.88169   0.70292   0.00000  Uiso   1.00
C160   C     0.30080   0.84673   0.68582   0.00000  Uiso   1.00
C161   C     0.26404   0.83006   0.71350   0.00000  Uiso   1.00
H162   H     0.27063   0.95126   0.79168   0.00000  Uiso   1.00
H163   H     0.22764   0.99242   0.65960   0.00000  Uiso   1.00
H164   H     0.35618   0.96985   0.92029   0.00000  Uiso   1.00
H165   H     0.22007   0.89646   0.80730   0.00000  Uiso   1.00
H166   H     0.19265   0.03027   0.49411   0.00000  Uiso   1.00
H167   H     0.46369   0.98265   0.04381   0.00000  Uiso   1.00
H168   H     0.17668   0.82790   0.80555   0.00000  Uiso   1.00
H169   H     0.36824   0.89114   0.64481   0.00000  Uiso   1.00
H170   H     0.33060   0.92901   0.50466   0.00000  Uiso   1.00
H171   H     0.45915   0.90643   0.76536   0.00000  Uiso   1.00
H172   H     0.32304   0.83305   0.65237   0.00000  Uiso   1.00
H173   H     0.27623   0.97880   0.36836   0.00000  Uiso   1.00
H174   H     0.54726   0.93118   0.91807   0.00000  Uiso   1.00
H175   H     0.26026   0.77643   0.67980   0.00000  Uiso   1.00
O176   O     0.20793   0.03053   0.34170   0.00000  Uiso   1.00
O177   O     0.56352   0.96806   0.06290   0.00000  Uiso   1.00
O178   O     0.18697   0.76503   0.75030   0.00000  Uiso   1.00
N179   N     0.21748   0.01295   0.48374   0.00000  Uiso   1.00
N180   N     0.47088   0.96844   0.99768   0.00000  Uiso   1.00
N181   N     0.20257   0.82376   0.77494   0.00000  Uiso   1.00
N182   N     0.26245   0.98525   0.41607   0.00000  Uiso   1.00
N183   N     0.51585   0.94075   0.93001   0.00000  Uiso   1.00
N184   N     0.24754   0.79607   0.70728   0.00000  Uiso   1.00
C185   C     0.74407   0.91941   0.49089   0.00000  Uiso   1.00
C186   C     0.79386   0.92305   0.46781   0.00000  Uiso   1.00
C187   C     0.84344   0.93389   0.52481   0.00000  Uiso   1.00
C188   C     0.88391   0.93549   0.49106   0.00000  Uiso   1.00
C189   C     0.96257   0.94247   0.46856   0.00000  Uiso   1.00
C190   C     0.72563   0.88232   0.46973   0.00000  Uiso   1.00
C191   C     0.71784   0.85892   0.52834   0.00000  Uiso   1.00
C192   C     0.70086   0.82623   0.49620   0.00000  Uiso   1.00
C193   C     0.17355   0.27000   0.47666   0.00000  Uiso   1.00
C194   C     0.70155   0.94159   0.42461   0.00000  Uiso   1.00
C195   C     0.67352   0.96803   0.44527   0.00000  Uiso   1.00
C196   C     0.63626   0.98523   0.37514   0.00000  Uiso   1.00
C197   C     0.57157   0.02103   0.28554   0.00000  Uiso   1.00
C198   C     0.72775   0.90296   0.32960   0.00000  Uiso   1.00
C199   C     0.78499   0.91411   0.38020   0.00000  Uiso   1.00
C200   C     0.82539   0.91569   0.34635   0.00000  Uiso   1.00
C201   C     0.87503   0.92653   0.40329   0.00000  Uiso   1.00
C202   C     0.71676   0.87338   0.38213   0.00000  Uiso   1.00
C203   C     0.69979   0.84072   0.34989   0.00000  Uiso   1.00
C204   C     0.69198   0.81728   0.40843   0.00000  Uiso   1.00
C205   C     0.69269   0.93265   0.33700   0.00000  Uiso   1.00
C206   C     0.65547   0.94982   0.26682   0.00000  Uiso   1.00
C207   C     0.62738   0.97628   0.28737   0.00000  Uiso   1.00
H208   H     0.75097   0.92637   0.55910   0.00000  Uiso   1.00
H209   H     0.85029   0.94080   0.59261   0.00000  Uiso   1.00
H210   H     0.22470   0.36585   0.59613   0.00000  Uiso   1.00
H211   H     0.68039   0.97494   0.51308   0.00000  Uiso   1.00
H212   H     0.95650   0.95285   0.59112   0.00000  Uiso   1.00
H213   H     0.19167   0.29481   0.59855   0.00000  Uiso   1.00
H214   H     0.59822   0.02484   0.42341   0.00000  Uiso   1.00
H215   H     0.72085   0.89600   0.26139   0.00000  Uiso   1.00
H216   H     0.81852   0.90877   0.27855   0.00000  Uiso   1.00
H217   H     0.69293   0.83381   0.28208   0.00000  Uiso   1.00
H218   H     0.64862   0.94290   0.19903   0.00000  Uiso   1.00
H219   H     0.93071   0.92685   0.33623   0.00000  Uiso   1.00
H220   H     0.66588   0.76881   0.34366   0.00000  Uiso   1.00
H221   H     0.57244   0.99884   0.16852   0.00000  Uiso   1.00
O222   O     0.00840   0.94879   0.48035   0.00000  Uiso   1.00
O223   O     0.16094   0.24145   0.49009   0.00000  Uiso   1.00
O224   O     0.53835   0.04324   0.26032   0.00000  Uiso   1.00
N225   N     0.93702   0.94499   0.52877   0.00000  Uiso   1.00
N226   N     0.18943   0.29723   0.53572   0.00000  Uiso   1.00
N227   N     0.60206   0.01228   0.37198   0.00000  Uiso   1.00
N228   N     0.92315   0.93100   0.39162   0.00000  Uiso   1.00
N229   N     0.67555   0.78324   0.39857   0.00000  Uiso   1.00
N230   N     0.58818   0.99829   0.23483   0.00000  Uiso   1.00
C231   C     0.90266   0.09093   0.57008   0.00000  Uiso   1.00
C232   C     0.91119   0.07515   0.49039   0.00000  Uiso   1.00
C233   C     0.89057   0.04403   0.45112   0.00000  Uiso   1.00
C234   C     0.90296   0.03409   0.37882   0.00000  Uiso   1.00
C235   C     0.91134   0.00648   0.25989   0.00000  Uiso   1.00
C236   C     0.87892   0.12646   0.54091   0.00000  Uiso   1.00
C237   C     0.83118   0.13848   0.54414   0.00000  Uiso   1.00
C238   C     0.81641   0.17173   0.51438   0.00000  Uiso   1.00
C239   C     0.77471   0.22378   0.47395   0.00000  Uiso   1.00
C240   C     0.95806   0.09702   0.63879   0.00000  Uiso   1.00
C241   C     0.97684   0.08430   0.72433   0.00000  Uiso   1.00
C242   C     0.02870   0.09277   0.77698   0.00000  Uiso   1.00
C243   C     0.10987   0.09912   0.88853   0.00000  Uiso   1.00
C244   C     0.96133   0.12861   0.51150   0.00000  Uiso   1.00
C245   C     0.94306   0.09561   0.45857   0.00000  Uiso   1.00
C246   C     0.95548   0.08572   0.38631   0.00000  Uiso   1.00
C247   C     0.93489   0.05459   0.34695   0.00000  Uiso   1.00
C248   C     0.91079   0.14692   0.50910   0.00000  Uiso   1.00
C249   C     0.89609   0.18016   0.47933   0.00000  Uiso   1.00
C250   C     0.84833   0.19223   0.48251   0.00000  Uiso   1.00
C251   C     0.98993   0.11748   0.60698   0.00000  Uiso   1.00
C252   C     0.04175   0.12598   0.65951   0.00000  Uiso   1.00
C253   C     0.06062   0.11328   0.74511   0.00000  Uiso   1.00
H254   H     0.87785   0.07500   0.59485   0.00000  Uiso   1.00
H255   H     0.86591   0.02820   0.47576   0.00000  Uiso   1.00
H256   H     0.80653   0.12263   0.56877   0.00000  Uiso   1.00
H257   H     0.95217   0.06846   0.74892   0.00000  Uiso   1.00
H258   H     0.86671   0.98535   0.32967   0.00000  Uiso   1.00
H259   H     0.74151   0.18447   0.52582   0.00000  Uiso   1.00
H260   H     0.04863   0.07023   0.90572   0.00000  Uiso   1.00
H261   H     0.98614   0.14455   0.48673   0.00000  Uiso   1.00
H262   H     0.98014   0.10156   0.36171   0.00000  Uiso   1.00
H263   H     0.92076   0.19599   0.45472   0.00000  Uiso   1.00
H264   H     0.06640   0.14182   0.63487   0.00000  Uiso   1.00
H265   H     0.95942   0.04489   0.23710   0.00000  Uiso   1.00
H266   H     0.83422   0.24401   0.43326   0.00000  Uiso   1.00
H267   H     0.14135   0.12978   0.81315   0.00000  Uiso   1.00
O268   O     0.90716   0.98559   0.20308   0.00000  Uiso   1.00
O269   O     0.74290   0.24683   0.46043   0.00000  Uiso   1.00
O270   O     0.14584   0.09696   0.95884   0.00000  Uiso   1.00
N271   N     0.88936   0.00526   0.32506   0.00000  Uiso   1.00
N272   N     0.77230   0.19142   0.50843   0.00000  Uiso   1.00
N273   N     0.05943   0.08463   0.86361   0.00000  Uiso   1.00
N274   N     0.93925   0.03730   0.27525   0.00000  Uiso   1.00
N275   N     0.82219   0.22346   0.45862   0.00000  Uiso   1.00
N276   N     0.10932   0.11667   0.81380   0.00000  Uiso   1.00
C277   C     0.23495   0.56324   0.26798   0.00000  Uiso   1.00
C278   C     0.23721   0.56180   0.36298   0.00000  Uiso   1.00
C279   C     0.25735   0.53483   0.42144   0.00000  Uiso   1.00
C280   C     0.25581   0.53844   0.50543   0.00000  Uiso   1.00
C281   C     0.26247   0.53170   0.64919   0.00000  Uiso   1.00
C282   C     0.17671   0.56932   0.21097   0.00000  Uiso   1.00
C283   C     0.14598   0.54869   0.14161   0.00000  Uiso   1.00
C284   C     0.09352   0.55864   0.09763   0.00000  Uiso   1.00
C285   C     0.00626   0.56359   0.00535   0.00000  Uiso   1.00
C286   C     0.26453   0.59586   0.26097   0.00000  Uiso   1.00
C287   C     0.30765   0.59753   0.23362   0.00000  Uiso   1.00
C288   C     0.32912   0.62982   0.23172   0.00000  Uiso   1.00
C289   C     0.37823   0.67597   0.21707   0.00000  Uiso   1.00
C290   C     0.19641   0.61760   0.31319   0.00000  Uiso   1.00
C291   C     0.21627   0.59132   0.38753   0.00000  Uiso   1.00
C292   C     0.21471   0.59498   0.47146   0.00000  Uiso   1.00
C293   C     0.23485   0.56802   0.53003   0.00000  Uiso   1.00
C294   C     0.15577   0.59885   0.23552   0.00000  Uiso   1.00
C295   C     0.10335   0.60883   0.19163   0.00000  Uiso   1.00
C296   C     0.07255   0.58822   0.12223   0.00000  Uiso   1.00
C297   C     0.24360   0.62538   0.28552   0.00000  Uiso   1.00
C298   C     0.26501   0.65768   0.28365   0.00000  Uiso   1.00
C299   C     0.30815   0.65940   0.25631   0.00000  Uiso   1.00
H300   H     0.25125   0.54025   0.24886   0.00000  Uiso   1.00
H301   H     0.27354   0.51198   0.40241   0.00000  Uiso   1.00
H302   H     0.16220   0.52584   0.12262   0.00000  Uiso   1.00
H303   H     0.32384   0.57468   0.21463   0.00000  Uiso   1.00
H304   H     0.28900   0.49366   0.58346   0.00000  Uiso   1.00
H305   H     0.05424   0.52288   0.99350   0.00000  Uiso   1.00
H306   H     0.39508   0.62586   0.18751   0.00000  Uiso   1.00
H307   H     0.18012   0.64059   0.33230   0.00000  Uiso   1.00
H308   H     0.19851   0.61783   0.49044   0.00000  Uiso   1.00
H309   H     0.08716   0.63169   0.21065   0.00000  Uiso   1.00
H310   H     0.24880   0.68052   0.30265   0.00000  Uiso   1.00
H311   H     0.22810   0.57956   0.65491   0.00000  Uiso   1.00
H312   H     0.99333   0.60879   0.06494   0.00000  Uiso   1.00
H313   H     0.33418   0.71177   0.25895   0.00000  Uiso   1.00
O314   O     0.27192   0.51982   0.72170   0.00000  Uiso   1.00
O315   O     0.96392   0.55817   0.94768   0.00000  Uiso   1.00
O316   O     0.41110   0.69327   0.20221   0.00000  Uiso   1.00
N317   N     0.27216   0.51700   0.57858   0.00000  Uiso   1.00
N318   N     0.05266   0.54432   0.02701   0.00000  Uiso   1.00
N319   N     0.37132   0.64060   0.20837   0.00000  Uiso   1.00
N320   N     0.23939   0.56323   0.61703   0.00000  Uiso   1.00
N321   N     0.01989   0.59055   0.06545   0.00000  Uiso   1.00
N322   N     0.33855   0.68683   0.24681   0.00000  Uiso   1.00
C323   C     0.69479   0.59446   0.61552   0.00000  Uiso   1.00
C324   C     0.66232   0.57035   0.65032   0.00000  Uiso   1.00
C325   C     0.61741   0.55220   0.59920   0.00000  Uiso   1.00
C326   C     0.59336   0.53151   0.64358   0.00000  Uiso   1.00
C327   C     0.53986   0.49445   0.68360   0.00000  Uiso   1.00
C328   C     0.69575   0.62897   0.66050   0.00000  Uiso   1.00
C329   C     0.67895   0.66011   0.61794   0.00000  Uiso   1.00
C330   C     0.68306   0.68876   0.67088   0.00000  Uiso   1.00
C331   C     0.68149   0.74272   0.72671   0.00000  Uiso   1.00
C332   C     0.75178   0.58099   0.65202   0.00000  Uiso   1.00
C333   C     0.78210   0.57181   0.60234   0.00000  Uiso   1.00
C334   C     0.83338   0.56008   0.64815   0.00000  Uiso   1.00
C335   C     0.91881   0.53954   0.69081   0.00000  Uiso   1.00
C336   C     0.73197   0.58997   0.78522   0.00000  Uiso   1.00
C337   C     0.68252   0.56791   0.74250   0.00000  Uiso   1.00
C338   C     0.65854   0.54723   0.78696   0.00000  Uiso   1.00
C339   C     0.61360   0.52906   0.73592   0.00000  Uiso   1.00
C340   C     0.71595   0.62653   0.75268   0.00000  Uiso   1.00
C341   C     0.72008   0.65514   0.80570   0.00000  Uiso   1.00
C342   C     0.70329   0.68632   0.76323   0.00000  Uiso   1.00
C343   C     0.77198   0.57855   0.74420   0.00000  Uiso   1.00
C344   C     0.82323   0.56684   0.79010   0.00000  Uiso   1.00
C345   C     0.85361   0.55763   0.74049   0.00000  Uiso   1.00
H346   H     0.67907   0.59636   0.54375   0.00000  Uiso   1.00
H347   H     0.60179   0.55410   0.52787   0.00000  Uiso   1.00
H348   H     0.66333   0.66199   0.54661   0.00000  Uiso   1.00
H349   H     0.76646   0.57370   0.53101   0.00000  Uiso   1.00
H350   H     0.52500   0.50618   0.55091   0.00000  Uiso   1.00
H351   H     0.65478   0.73368   0.59042   0.00000  Uiso   1.00
H352   H     0.87224   0.54750   0.55752   0.00000  Uiso   1.00
H353   H     0.74770   0.58807   0.85699   0.00000  Uiso   1.00
H354   H     0.67418   0.54535   0.85830   0.00000  Uiso   1.00
H355   H     0.73572   0.65324   0.87703   0.00000  Uiso   1.00
H356   H     0.83884   0.56495   0.86143   0.00000  Uiso   1.00
H357   H     0.58375   0.49908   0.81910   0.00000  Uiso   1.00
H358   H     0.71353   0.72658   0.85860   0.00000  Uiso   1.00
H359   H     0.93099   0.54040   0.82571   0.00000  Uiso   1.00
O360   O     0.50476   0.47469   0.68022   0.00000  Uiso   1.00
O361   O     0.67504   0.77315   0.73204   0.00000  Uiso   1.00
O362   O     0.96034   0.52889   0.68888   0.00000  Uiso   1.00
N363   N     0.54892   0.51037   0.61385   0.00000  Uiso   1.00
N364   N     0.67025   0.72306   0.65078   0.00000  Uiso   1.00
N365   N     0.87356   0.54901   0.62003   0.00000  Uiso   1.00
N366   N     0.58053   0.50654   0.75816   0.00000  Uiso   1.00
N367   N     0.70186   0.71924   0.79509   0.00000  Uiso   1.00
N368   N     0.90518   0.54519   0.76434   0.00000  Uiso   1.00
C369   C     0.55198   0.33699   0.51241   0.00000  Uiso   1.00
C370   C     0.56023   0.35356   0.60137   0.00000  Uiso   1.00
C371   C     0.58827   0.38364   0.63328   0.00000  Uiso   1.00
C372   C     0.59127   0.39456   0.71622   0.00000  Uiso   1.00
C373   C     0.60779   0.42311   0.84689   0.00000  Uiso   1.00
C374   C     0.57327   0.30042   0.53260   0.00000  Uiso   1.00
C375   C     0.61226   0.28582   0.50667   0.00000  Uiso   1.00
C376   C     0.62623   0.25201   0.53172   0.00000  Uiso   1.00
C377   C     0.66297   0.19804   0.55557   0.00000  Uiso   1.00
C378   C     0.49192   0.33362   0.46532   0.00000  Uiso   1.00
C379   C     0.46252   0.34692   0.38281   0.00000  Uiso   1.00
C380   C     0.40800   0.34106   0.35120   0.00000  Uiso   1.00
C381   C     0.31842   0.33865   0.27059   0.00000  Uiso   1.00
C382   C     0.50744   0.30291   0.60298   0.00000  Uiso   1.00
C383   C     0.53604   0.33506   0.65056   0.00000  Uiso   1.00
C384   C     0.53900   0.34594   0.73348   0.00000  Uiso   1.00
C385   C     0.56704   0.37603   0.76550   0.00000  Uiso   1.00
C386   C     0.54908   0.28192   0.58179   0.00000  Uiso   1.00
C387   C     0.56299   0.24812   0.60688   0.00000  Uiso   1.00
C388   C     0.60200   0.23347   0.58100   0.00000  Uiso   1.00
C389   C     0.46773   0.31512   0.51451   0.00000  Uiso   1.00
C390   C     0.41325   0.30923   0.48302   0.00000  Uiso   1.00
C391   C     0.38377   0.32252   0.40048   0.00000  Uiso   1.00
H392   H     0.57081   0.35139   0.47411   0.00000  Uiso   1.00
H393   H     0.60699   0.39795   0.59519   0.00000  Uiso   1.00
H394   H     0.63097   0.30014   0.46860   0.00000  Uiso   1.00
H395   H     0.48125   0.36124   0.34476   0.00000  Uiso   1.00
H396   H     0.63644   0.44140   0.75114   0.00000  Uiso   1.00
H397   H     0.68701   0.23516   0.48419   0.00000  Uiso   1.00
H398   H     0.37129   0.36401   0.22305   0.00000  Uiso   1.00
H399   H     0.48861   0.28851   0.64128   0.00000  Uiso   1.00
H400   H     0.52028   0.33161   0.77153   0.00000  Uiso   1.00
H401   H     0.54426   0.23381   0.64494   0.00000  Uiso   1.00
H402   H     0.39454   0.29491   0.52111   0.00000  Uiso   1.00
H403   H     0.56607   0.38756   0.89427   0.00000  Uiso   1.00
H404   H     0.61663   0.18132   0.62732   0.00000  Uiso   1.00
H405   H     0.30091   0.31016   0.36618   0.00000  Uiso   1.00
O406   O     0.62358   0.44396   0.90538   0.00000  Uiso   1.00
O407   O     0.68991   0.17339   0.55514   0.00000  Uiso   1.00
O408   O     0.27570   0.34243   0.21254   0.00000  Uiso   1.00
N409   N     0.61553   0.42281   0.76694   0.00000  Uiso   1.00
N410   N     0.66281   0.23000   0.51737   0.00000  Uiso   1.00
N411   N     0.36763   0.35045   0.27322   0.00000  Uiso   1.00
N412   N     0.57766   0.39384   0.84396   0.00000  Uiso   1.00
N413   N     0.62494   0.20103   0.59439   0.00000  Uiso   1.00
N414   N     0.32977   0.32148   0.35023   0.00000  Uiso   1.00
C415   C     0.79299   0.43749   0.75803   0.00000  Uiso   1.00
C416   C     0.78316   0.45151   0.66590   0.00000  Uiso   1.00
C417   C     0.74986   0.47874   0.62613   0.00000  Uiso   1.00
C418   C     0.74629   0.48766   0.54150   0.00000  Uiso   1.00
C419   C     0.72668   0.51214   0.40503   0.00000  Uiso   1.00
C420   C     0.85301   0.43925   0.80754   0.00000  Uiso   1.00
C421   C     0.87842   0.45616   0.88686   0.00000  Uiso   1.00
C422   C     0.93364   0.45475   0.92147   0.00000  Uiso   1.00
C423   C     0.02246   0.46018   0.00493   0.00000  Uiso   1.00
C424   C     0.77905   0.39938   0.74614   0.00000  Uiso   1.00
C425   C     0.74229   0.38276   0.77386   0.00000  Uiso   1.00
C426   C     0.73526   0.34778   0.75679   0.00000  Uiso   1.00
C427   C     0.70926   0.29130   0.74492   0.00000  Uiso   1.00
C428   C     0.84588   0.40492   0.67846   0.00000  Uiso   1.00
C429   C     0.81189   0.43382   0.62268   0.00000  Uiso   1.00
C430   C     0.80837   0.44270   0.53809   0.00000  Uiso   1.00
C431   C     0.77506   0.46993   0.49820   0.00000  Uiso   1.00
C432   C     0.88173   0.42156   0.76432   0.00000  Uiso   1.00
C433   C     0.93693   0.42013   0.79882   0.00000  Uiso   1.00
C434   C     0.96242   0.43703   0.87817   0.00000  Uiso   1.00
C435   C     0.80778   0.38169   0.70292   0.00000  Uiso   1.00
C436   C     0.80080   0.34673   0.68582   0.00000  Uiso   1.00
C437   C     0.76404   0.33006   0.71350   0.00000  Uiso   1.00
H438   H     0.77063   0.45126   0.79168   0.00000  Uiso   1.00
H439   H     0.72764   0.49242   0.65960   0.00000  Uiso   1.00
H440   H     0.85618   0.46985   0.92029   0.00000  Uiso   1.00
H441   H     0.72007   0.39646   0.80730   0.00000  Uiso   1.00
H442   H     0.69265   0.53027   0.49411   0.00000  Uiso   1.00
H443   H     0.96369   0.48265   0.04381   0.00000  Uiso   1.00
H444   H     0.67668   0.32790   0.80555   0.00000  Uiso   1.00
H445   H     0.86824   0.39114   0.64481   0.00000  Uiso   1.00
H446   H     0.83060   0.42901   0.50466   0.00000  Uiso   1.00
H447   H     0.95915   0.40643   0.76536   0.00000  Uiso   1.00
H448   H     0.82304   0.33305   0.65237   0.00000  Uiso   1.00
H449   H     0.77623   0.47880   0.36836   0.00000  Uiso   1.00
H450   H     0.04726   0.43118   0.91807   0.00000  Uiso   1.00
H451   H     0.76026   0.27643   0.67980   0.00000  Uiso   1.00
O452   O     0.70793   0.53053   0.34170   0.00000  Uiso   1.00
O453   O     0.06352   0.46806   0.06290   0.00000  Uiso   1.00
O454   O     0.68697   0.26503   0.75030   0.00000  Uiso   1.00
N455   N     0.71748   0.51295   0.48374   0.00000  Uiso   1.00
N456   N     0.97088   0.46844   0.99768   0.00000  Uiso   1.00
N457   N     0.70257   0.32376   0.77494   0.00000  Uiso   1.00
N458   N     0.76245   0.48525   0.41607   0.00000  Uiso   1.00
N459   N     0.01585   0.44075   0.93001   0.00000  Uiso   1.00
N460   N     0.74754   0.29607   0.70728   0.00000  Uiso   1.00
C461   C     0.24407   0.41941   0.49089   0.00000  Uiso   1.00
C462   C     0.29386   0.42305   0.46781   0.00000  Uiso   1.00
C463   C     0.34344   0.43389   0.52481   0.00000  Uiso   1.00
C464   C     0.38391   0.43549   0.49106   0.00000  Uiso   1.00
C465   C     0.46257   0.44247   0.46856   0.00000  Uiso   1.00
C466   C     0.22563   0.38232   0.46973   0.00000  Uiso   1.00
C467   C     0.21784   0.35892   0.52834   0.00000  Uiso   1.00
C468   C     0.20086   0.32623   0.49620   0.00000  Uiso   1.00
C469   C     0.67355   0.77000   0.47666   0.00000  Uiso   1.00
C470   C     0.20155   0.44159   0.42461   0.00000  Uiso   1.00
C471   C     0.17352   0.46803   0.44527   0.00000  Uiso   1.00
C472   C     0.13626   0.48523   0.37514   0.00000  Uiso   1.00
C473   C     0.07157   0.52103   0.28554   0.00000  Uiso   1.00
C474   C     0.22775   0.40296   0.32960   0.00000  Uiso   1.00
C475   C     0.28499   0.41411   0.38020   0.00000  Uiso   1.00
C476   C     0.32539   0.41569   0.34635   0.00000  Uiso   1.00
C477   C     0.37503   0.42653   0.40329   0.00000  Uiso   1.00
C478   C     0.21676   0.37338   0.38213   0.00000  Uiso   1.00
C479   C     0.19979   0.34072   0.34989   0.00000  Uiso   1.00
C480   C     0.19198   0.31728   0.40843   0.00000  Uiso   1.00
C481   C     0.19269   0.43265   0.33700   0.00000  Uiso   1.00
C482   C     0.15547   0.44982   0.26682   0.00000  Uiso   1.00
C483   C     0.12738   0.47628   0.28737   0.00000  Uiso   1.00
H484   H     0.25097   0.42637   0.55910   0.00000  Uiso   1.00
H485   H     0.35029   0.44080   0.59261   0.00000  Uiso   1.00
H486   H     0.72470   0.86585   0.59613   0.00000  Uiso   1.00
H487   H     0.18039   0.47494   0.51308   0.00000  Uiso   1.00
H488   H     0.45650   0.45285   0.59112   0.00000  Uiso   1.00
H489   H     0.69167   0.79481   0.59855   0.00000  Uiso   1.00
H490   H     0.09822   0.52484   0.42341   0.00000  Uiso   1.00
H491   H     0.22085   0.39600   0.26139   0.00000  Uiso   1.00
H492   H     0.31852   0.40877   0.27855   0.00000  Uiso   1.00
H493   H     0.19293   0.33381   0.28208   0.00000  Uiso   1.00
H494   H     0.14862   0.44290   0.19903   0.00000  Uiso   1.00
H495   H     0.43071   0.42685   0.33623   0.00000  Uiso   1.00
H496   H     0.16588   0.26881   0.34366   0.00000  Uiso   1.00
H497   H     0.07244   0.49884   0.16852   0.00000  Uiso   1.00
O498   O     0.50840   0.44879   0.48035   0.00000  Uiso   1.00
O499   O     0.66094   0.74145   0.49009   0.00000  Uiso   1.00
O500   O     0.03835   0.54324   0.26032   0.00000  Uiso   1.00
N501   N     0.43702   0.44499   0.52877   0.00000  Uiso   1.00
N502   N     0.68943   0.79723   0.53572   0.00000  Uiso   1.00
N503   N     0.10206   0.51228   0.37198   0.00000  Uiso   1.00
N504   N     0.42315   0.43100   0.39162   0.00000  Uiso   1.00
N505   N     0.17555   0.28324   0.39857   0.00000  Uiso   1.00
N506   N     0.08818   0.49829   0.23483   0.00000  Uiso   1.00
C507   C     0.40266   0.59093   0.57008   0.00000  Uiso   1.00
C508   C     0.41119   0.57515   0.49039   0.00000  Uiso   1.00
C509   C     0.39057   0.54403   0.45112   0.00000  Uiso   1.00
C510   C     0.40296   0.53409   0.37882   0.00000  Uiso   1.00
C511   C     0.41134   0.50648   0.25989   0.00000  Uiso   1.00
C512   C     0.37892   0.62646   0.54091   0.00000  Uiso   1.00
C513   C     0.33118   0.63848   0.54414   0.00000  Uiso   1.00
C514   C     0.31641   0.67173   0.51438   0.00000  Uiso   1.00
C515   C     0.27471   0.72378   0.47395   0.00000  Uiso   1.00
C516   C     0.45806   0.59702   0.63879   0.00000  Uiso   1.00
C517   C     0.47684   0.58430   0.72433   0.00000  Uiso   1.00
C518   C     0.52870   0.59277   0.77698   0.00000  Uiso   1.00
C519   C     0.60987   0.59912   0.88853   0.00000  Uiso   1.00
C520   C     0.46133   0.62861   0.51150   0.00000  Uiso   1.00
C521   C     0.44306   0.59561   0.45857   0.00000  Uiso   1.00
C522   C     0.45548   0.58572   0.38631   0.00000  Uiso   1.00
C523   C     0.43489   0.55459   0.34695   0.00000  Uiso   1.00
C524   C     0.41079   0.64692   0.50910   0.00000  Uiso   1.00
C525   C     0.39609   0.68016   0.47933   0.00000  Uiso   1.00
C526   C     0.34833   0.69223   0.48251   0.00000  Uiso   1.00
C527   C     0.48993   0.61748   0.60698   0.00000  Uiso   1.00
C528   C     0.54175   0.62598   0.65951   0.00000  Uiso   1.00
C529   C     0.56062   0.61328   0.74511   0.00000  Uiso   1.00
H530   H     0.37785   0.57500   0.59485   0.00000  Uiso   1.00
H531   H     0.36591   0.52820   0.47576   0.00000  Uiso   1.00
H532   H     0.30653   0.62263   0.56877   0.00000  Uiso   1.00
H533   H     0.45217   0.56846   0.74892   0.00000  Uiso   1.00
H534   H     0.36671   0.48535   0.32967   0.00000  Uiso   1.00
H535   H     0.24151   0.68447   0.52582   0.00000  Uiso   1.00
H536   H     0.54863   0.57023   0.90572   0.00000  Uiso   1.00
H537   H     0.48614   0.64455   0.48673   0.00000  Uiso   1.00
H538   H     0.48014   0.60156   0.36171   0.00000  Uiso   1.00
H539   H     0.42076   0.69599   0.45472   0.00000  Uiso   1.00
H540   H     0.56640   0.64182   0.63487   0.00000  Uiso   1.00
H541   H     0.45942   0.54489   0.23710   0.00000  Uiso   1.00
H542   H     0.33422   0.74401   0.43326   0.00000  Uiso   1.00
H543   H     0.64135   0.62978   0.81315   0.00000  Uiso   1.00
O544   O     0.40716   0.48559   0.20308   0.00000  Uiso   1.00
O545   O     0.24290   0.74683   0.46043   0.00000  Uiso   1.00
O546   O     0.64584   0.59696   0.95884   0.00000  Uiso   1.00
N547   N     0.38936   0.50526   0.32506   0.00000  Uiso   1.00
N548   N     0.27230   0.69142   0.50843   0.00000  Uiso   1.00
N549   N     0.55943   0.58463   0.86361   0.00000  Uiso   1.00
N550   N     0.43925   0.53730   0.27525   0.00000  Uiso   1.00
N551   N     0.32219   0.72346   0.45862   0.00000  Uiso   1.00
N552   N     0.60932   0.61667   0.81380   0.00000  Uiso   1.00
C553   C     0.73495   0.93676   0.76798   0.00000  Uiso   1.00
C554   C     0.73721   0.93820   0.86298   0.00000  Uiso   1.00
C555   C     0.75735   0.96517   0.92144   0.00000  Uiso   1.00
C556   C     0.75581   0.96156   0.00543   0.00000  Uiso   1.00
C557   C     0.76247   0.96830   0.14919   0.00000  Uiso   1.00
C558   C     0.67671   0.93068   0.71097   0.00000  Uiso   1.00
C559   C     0.64598   0.95131   0.64161   0.00000  Uiso   1.00
C560   C     0.59352   0.94136   0.59763   0.00000  Uiso   1.00
C561   C     0.50626   0.93641   0.50535   0.00000  Uiso   1.00
C562   C     0.76453   0.90414   0.76097   0.00000  Uiso   1.00
C563   C     0.80765   0.90247   0.73362   0.00000  Uiso   1.00
C564   C     0.82912   0.87018   0.73172   0.00000  Uiso   1.00
C565   C     0.87823   0.82403   0.71707   0.00000  Uiso   1.00
C566   C     0.69641   0.88240   0.81319   0.00000  Uiso   1.00
C567   C     0.71627   0.90868   0.88753   0.00000  Uiso   1.00
C568   C     0.71471   0.90502   0.97146   0.00000  Uiso   1.00
C569   C     0.73485   0.93198   0.03003   0.00000  Uiso   1.00
C570   C     0.65577   0.90115   0.73552   0.00000  Uiso   1.00
C571   C     0.60335   0.89117   0.69163   0.00000  Uiso   1.00
C572   C     0.57255   0.91178   0.62223   0.00000  Uiso   1.00
C573   C     0.74360   0.87462   0.78552   0.00000  Uiso   1.00
C574   C     0.76501   0.84232   0.78365   0.00000  Uiso   1.00
C575   C     0.80815   0.84060   0.75631   0.00000  Uiso   1.00
H576   H     0.75125   0.95975   0.74886   0.00000  Uiso   1.00
H577   H     0.77354   0.98802   0.90241   0.00000  Uiso   1.00
H578   H     0.66220   0.97416   0.62262   0.00000  Uiso   1.00
H579   H     0.82384   0.92532   0.71463   0.00000  Uiso   1.00
H580   H     0.78900   0.00634   0.08346   0.00000  Uiso   1.00
H581   H     0.55424   0.97712   0.49350   0.00000  Uiso   1.00
H582   H     0.89508   0.87414   0.68751   0.00000  Uiso   1.00
H583   H     0.68012   0.85941   0.83230   0.00000  Uiso   1.00
H584   H     0.69851   0.88217   0.99044   0.00000  Uiso   1.00
H585   H     0.58716   0.86831   0.71065   0.00000  Uiso   1.00
H586   H     0.74880   0.81948   0.80265   0.00000  Uiso   1.00
H587   H     0.72810   0.92044   0.15491   0.00000  Uiso   1.00
H588   H     0.49333   0.89121   0.56494   0.00000  Uiso   1.00
H589   H     0.83418   0.78823   0.75895   0.00000  Uiso   1.00
O590   O     0.77192   0.98018   0.22170   0.00000  Uiso   1.00
O591   O     0.46392   0.94183   0.44768   0.00000  Uiso   1.00
O592   O     0.91110   0.80673   0.70221   0.00000  Uiso   1.00
N593   N     0.77216   0.98300   0.07858   0.00000  Uiso   1.00
N594   N     0.55266   0.95568   0.52701   0.00000  Uiso   1.00
N595   N     0.87132   0.85940   0.70837   0.00000  Uiso   1.00
N596   N     0.73939   0.93677   0.11703   0.00000  Uiso   1.00
N597   N     0.51989   0.90945   0.56545   0.00000  Uiso   1.00
N598   N     0.83855   0.81317   0.74681   0.00000  Uiso   1.00
C599   C     0.19479   0.90554   0.11552   0.00000  Uiso   1.00
C600   C     0.16232   0.92965   0.15032   0.00000  Uiso   1.00
C601   C     0.11741   0.94780   0.09920   0.00000  Uiso   1.00
C602   C     0.09336   0.96849   0.14358   0.00000  Uiso   1.00
C603   C     0.03986   0.00555   0.18360   0.00000  Uiso   1.00
C604   C     0.19575   0.87103   0.16050   0.00000  Uiso   1.00
C605   C     0.17895   0.83989   0.11794   0.00000  Uiso   1.00
C606   C     0.18306   0.81124   0.17088   0.00000  Uiso   1.00
C607   C     0.18149   0.75728   0.22671   0.00000  Uiso   1.00
C608   C     0.25178   0.91901   0.15202   0.00000  Uiso   1.00
C609   C     0.28210   0.92819   0.10234   0.00000  Uiso   1.00
C610   C     0.33338   0.93992   0.14815   0.00000  Uiso   1.00
C611   C     0.41881   0.96046   0.19081   0.00000  Uiso   1.00
C612   C     0.23197   0.91003   0.28522   0.00000  Uiso   1.00
C613   C     0.18252   0.93209   0.24250   0.00000  Uiso   1.00
C614   C     0.15854   0.95277   0.28696   0.00000  Uiso   1.00
C615   C     0.11360   0.97094   0.23592   0.00000  Uiso   1.00
C616   C     0.21595   0.87347   0.25268   0.00000  Uiso   1.00
C617   C     0.22008   0.84486   0.30570   0.00000  Uiso   1.00
C618   C     0.20329   0.81368   0.26323   0.00000  Uiso   1.00
C619   C     0.27198   0.92145   0.24420   0.00000  Uiso   1.00
C620   C     0.32323   0.93316   0.29010   0.00000  Uiso   1.00
C621   C     0.35361   0.94237   0.24049   0.00000  Uiso   1.00
H622   H     0.17907   0.90364   0.04375   0.00000  Uiso   1.00
H623   H     0.10179   0.94590   0.02787   0.00000  Uiso   1.00
H624   H     0.16333   0.83801   0.04661   0.00000  Uiso   1.00
H625   H     0.26646   0.92630   0.03101   0.00000  Uiso   1.00
H626   H     0.02500   0.99382   0.05091   0.00000  Uiso   1.00
H627   H     0.15478   0.76632   0.09042   0.00000  Uiso   1.00
H628   H     0.37224   0.95250   0.05752   0.00000  Uiso   1.00
H629   H     0.24770   0.91193   0.35699   0.00000  Uiso   1.00
H630   H     0.17418   0.95465   0.35830   0.00000  Uiso   1.00
H631   H     0.23572   0.84676   0.37703   0.00000  Uiso   1.00
H632   H     0.33884   0.93505   0.36143   0.00000  Uiso   1.00
H633   H     0.08375   0.00092   0.31910   0.00000  Uiso   1.00
H634   H     0.21353   0.77342   0.35860   0.00000  Uiso   1.00
H635   H     0.43099   0.95960   0.32571   0.00000  Uiso   1.00
O636   O     0.00476   0.02531   0.18022   0.00000  Uiso   1.00
O637   O     0.17504   0.72685   0.23204   0.00000  Uiso   1.00
O638   O     0.46034   0.97111   0.18888   0.00000  Uiso   1.00
N639   N     0.04892   0.98963   0.11385   0.00000  Uiso   1.00
N640   N     0.17025   0.77694   0.15078   0.00000  Uiso   1.00
N641   N     0.37356   0.95099   0.12003   0.00000  Uiso   1.00
N642   N     0.08053   0.99346   0.25816   0.00000  Uiso   1.00
N643   N     0.20186   0.78076   0.29509   0.00000  Uiso   1.00
N644   N     0.40518   0.95481   0.26434   0.00000  Uiso   1.00
C645   C     0.05198   0.16301   0.01241   0.00000  Uiso   1.00
C646   C     0.06023   0.14644   0.10137   0.00000  Uiso   1.00
C647   C     0.08827   0.11636   0.13328   0.00000  Uiso   1.00
C648   C     0.09127   0.10544   0.21622   0.00000  Uiso   1.00
C649   C     0.10779   0.07689   0.34689   0.00000  Uiso   1.00
C650   C     0.07327   0.19958   0.03260   0.00000  Uiso   1.00
C651   C     0.11226   0.21418   0.00667   0.00000  Uiso   1.00
C652   C     0.12623   0.24799   0.03172   0.00000  Uiso   1.00
C653   C     0.16297   0.30196   0.05557   0.00000  Uiso   1.00
C654   C     0.99192   0.16638   0.96532   0.00000  Uiso   1.00
C655   C     0.96252   0.15308   0.88281   0.00000  Uiso   1.00
C656   C     0.90800   0.15894   0.85120   0.00000  Uiso   1.00
C657   C     0.81842   0.16135   0.77059   0.00000  Uiso   1.00
C658   C     0.00744   0.19709   0.10298   0.00000  Uiso   1.00
C659   C     0.03604   0.16494   0.15056   0.00000  Uiso   1.00
C660   C     0.03900   0.15406   0.23348   0.00000  Uiso   1.00
C661   C     0.06704   0.12398   0.26550   0.00000  Uiso   1.00
C662   C     0.04908   0.21808   0.08179   0.00000  Uiso   1.00
C663   C     0.06299   0.25188   0.10688   0.00000  Uiso   1.00
C664   C     0.10200   0.26653   0.08100   0.00000  Uiso   1.00
C665   C     0.96773   0.18488   0.01451   0.00000  Uiso   1.00
C666   C     0.91325   0.19077   0.98302   0.00000  Uiso   1.00
C667   C     0.88377   0.17748   0.90048   0.00000  Uiso   1.00
H668   H     0.07081   0.14861   0.97411   0.00000  Uiso   1.00
H669   H     0.10699   0.10205   0.09519   0.00000  Uiso   1.00
H670   H     0.13097   0.19986   0.96860   0.00000  Uiso   1.00
H671   H     0.98125   0.13876   0.84476   0.00000  Uiso   1.00
H672   H     0.13644   0.05860   0.25114   0.00000  Uiso   1.00
H673   H     0.18701   0.26484   0.98419   0.00000  Uiso   1.00
H674   H     0.87129   0.13599   0.72305   0.00000  Uiso   1.00
H675   H     0.98861   0.21149   0.14128   0.00000  Uiso   1.00
H676   H     0.02028   0.16839   0.27153   0.00000  Uiso   1.00
H677   H     0.04426   0.26619   0.14494   0.00000  Uiso   1.00
H678   H     0.89454   0.20509   0.02111   0.00000  Uiso   1.00
H679   H     0.06607   0.11244   0.39427   0.00000  Uiso   1.00
H680   H     0.11663   0.31868   0.12732   0.00000  Uiso   1.00
H681   H     0.80091   0.18984   0.86618   0.00000  Uiso   1.00
O682   O     0.12358   0.05604   0.40538   0.00000  Uiso   1.00
O683   O     0.18991   0.32661   0.05514   0.00000  Uiso   1.00
O684   O     0.77570   0.15757   0.71254   0.00000  Uiso   1.00
N685   N     0.11553   0.07719   0.26694   0.00000  Uiso   1.00
N686   N     0.16281   0.27000   0.01737   0.00000  Uiso   1.00
N687   N     0.86763   0.14955   0.77322   0.00000  Uiso   1.00
N688   N     0.07766   0.10616   0.34396   0.00000  Uiso   1.00
N689   N     0.12494   0.29897   0.09439   0.00000  Uiso   1.00
N690   N     0.82977   0.17852   0.85023   0.00000  Uiso   1.00
C691   C     0.29299   0.06251   0.25803   0.00000  Uiso   1.00
C692   C     0.28316   0.04849   0.16590   0.00000  Uiso   1.00
C693   C     0.24986   0.02126   0.12613   0.00000  Uiso   1.00
C694   C     0.24629   0.01234   0.04150   0.00000  Uiso   1.00
C695   C     0.22668   0.98786   0.90503   0.00000  Uiso   1.00
C696   C     0.35301   0.06075   0.30754   0.00000  Uiso   1.00
C697   C     0.37842   0.04384   0.38686   0.00000  Uiso   1.00
C698   C     0.43364   0.04525   0.42147   0.00000  Uiso   1.00
C699   C     0.52246   0.03982   0.50493   0.00000  Uiso   1.00
C700   C     0.27905   0.10062   0.24614   0.00000  Uiso   1.00
C701   C     0.24229   0.11724   0.27386   0.00000  Uiso   1.00
C702   C     0.23526   0.15222   0.25679   0.00000  Uiso   1.00
C703   C     0.20926   0.20870   0.24492   0.00000  Uiso   1.00
C704   C     0.34588   0.09508   0.17846   0.00000  Uiso   1.00
C705   C     0.31189   0.06618   0.12268   0.00000  Uiso   1.00
C706   C     0.30837   0.05730   0.03809   0.00000  Uiso   1.00
C707   C     0.27506   0.03007   0.99820   0.00000  Uiso   1.00
C708   C     0.38173   0.07844   0.26432   0.00000  Uiso   1.00
C709   C     0.43693   0.07987   0.29882   0.00000  Uiso   1.00
C710   C     0.46242   0.06297   0.37817   0.00000  Uiso   1.00
C711   C     0.30778   0.11831   0.20292   0.00000  Uiso   1.00
C712   C     0.30080   0.15327   0.18582   0.00000  Uiso   1.00
C713   C     0.26404   0.16994   0.21350   0.00000  Uiso   1.00
H714   H     0.27063   0.04874   0.29168   0.00000  Uiso   1.00
H715   H     0.22764   0.00758   0.15960   0.00000  Uiso   1.00
H716   H     0.35618   0.03015   0.42029   0.00000  Uiso   1.00
H717   H     0.22007   0.10354   0.30730   0.00000  Uiso   1.00
H718   H     0.19265   0.96973   0.99411   0.00000  Uiso   1.00
H719   H     0.46369   0.01735   0.54381   0.00000  Uiso   1.00
H720   H     0.17668   0.17210   0.30555   0.00000  Uiso   1.00
H721   H     0.36824   0.10886   0.14481   0.00000  Uiso   1.00
H722   H     0.33060   0.07099   0.00466   0.00000  Uiso   1.00
H723   H     0.45915   0.09357   0.26536   0.00000  Uiso   1.00
H724   H     0.32304   0.16695   0.15237   0.00000  Uiso   1.00
H725   H     0.27623   0.02120   0.86836   0.00000  Uiso   1.00
H726   H     0.54726   0.06882   0.41807   0.00000  Uiso   1.00
H727   H     0.26026   0.22357   0.17980   0.00000  Uiso   1.00
O728   O     0.20793   0.96947   0.84170   0.00000  Uiso   1.00
O729   O     0.56352   0.03194   0.56290   0.00000  Uiso   1.00
O730   O     0.18697   0.23497   0.25030   0.00000  Uiso   1.00
N731   N     0.21748   0.98705   0.98374   0.00000  Uiso   1.00
N732   N     0.47088   0.03156   0.49768   0.00000  Uiso   1.00
N733   N     0.20257   0.17624   0.27494   0.00000  Uiso   1.00
N734   N     0.26245   0.01475   0.91607   0.00000  Uiso   1.00
N735   N     0.51585   0.05925   0.43001   0.00000  Uiso   1.00
N736   N     0.24754   0.20393   0.20728   0.00000  Uiso   1.00
C737   C     0.74407   0.08059   0.99089   0.00000  Uiso   1.00
C738   C     0.79386   0.07695   0.96781   0.00000  Uiso   1.00
C739   C     0.84344   0.06611   0.02481   0.00000  Uiso   1.00
C740   C     0.88391   0.06451   0.99106   0.00000  Uiso   1.00
C741   C     0.96257   0.05753   0.96856   0.00000  Uiso   1.00
C742   C     0.72563   0.11768   0.96973   0.00000  Uiso   1.00
C743   C     0.71784   0.14108   0.02834   0.00000  Uiso   1.00
C744   C     0.70086   0.17377   0.99620   0.00000  Uiso   1.00
C745   C     0.17355   0.73000   0.97666   0.00000  Uiso   1.00
C746   C     0.70155   0.05841   0.92461   0.00000  Uiso   1.00
C747   C     0.67352   0.03197   0.94527   0.00000  Uiso   1.00
C748   C     0.63626   0.01477   0.87514   0.00000  Uiso   1.00
C749   C     0.57157   0.97897   0.78554   0.00000  Uiso   1.00
C750   C     0.72775   0.09704   0.82960   0.00000  Uiso   1.00
C751   C     0.78499   0.08589   0.88020   0.00000  Uiso   1.00
C752   C     0.82539   0.08431   0.84635   0.00000  Uiso   1.00
C753   C     0.87503   0.07347   0.90329   0.00000  Uiso   1.00
C754   C     0.71676   0.12662   0.88213   0.00000  Uiso   1.00
C755   C     0.69979   0.15928   0.84989   0.00000  Uiso   1.00
C756   C     0.69198   0.18272   0.90843   0.00000  Uiso   1.00
C757   C     0.69269   0.06735   0.83700   0.00000  Uiso   1.00
C758   C     0.65547   0.05018   0.76682   0.00000  Uiso   1.00
C759   C     0.62738   0.02372   0.78737   0.00000  Uiso   1.00
H760   H     0.75097   0.07363   0.05910   0.00000  Uiso   1.00
H761   H     0.85029   0.05920   0.09261   0.00000  Uiso   1.00
H762   H     0.22470   0.63415   0.09613   0.00000  Uiso   1.00
H763   H     0.68039   0.02506   0.01308   0.00000  Uiso   1.00
H764   H     0.95650   0.04715   0.09112   0.00000  Uiso   1.00
H765   H     0.19167   0.70519   0.09855   0.00000  Uiso   1.00
H766   H     0.59822   0.97516   0.92341   0.00000  Uiso   1.00
H767   H     0.72085   0.10400   0.76139   0.00000  Uiso   1.00
H768   H     0.81852   0.09123   0.77855   0.00000  Uiso   1.00
H769   H     0.69293   0.16619   0.78208   0.00000  Uiso   1.00
H770   H     0.64862   0.05710   0.69903   0.00000  Uiso   1.00
H771   H     0.93071   0.07315   0.83623   0.00000  Uiso   1.00
H772   H     0.66588   0.23119   0.84366   0.00000  Uiso   1.00
H773   H     0.57244   0.00116   0.66852   0.00000  Uiso   1.00
O774   O     0.00840   0.05121   0.98035   0.00000  Uiso   1.00
O775   O     0.16094   0.75855   0.99009   0.00000  Uiso   1.00
O776   O     0.53835   0.95676   0.76032   0.00000  Uiso   1.00
N777   N     0.93702   0.05501   0.02877   0.00000  Uiso   1.00
N778   N     0.18943   0.70277   0.03572   0.00000  Uiso   1.00
N779   N     0.60206   0.98772   0.87198   0.00000  Uiso   1.00
N780   N     0.92315   0.06900   0.89162   0.00000  Uiso   1.00
N781   N     0.67555   0.21676   0.89857   0.00000  Uiso   1.00
N782   N     0.58818   0.00171   0.73483   0.00000  Uiso   1.00
C783   C     0.90266   0.90907   0.07008   0.00000  Uiso   1.00
C784   C     0.91119   0.92485   0.99039   0.00000  Uiso   1.00
C785   C     0.89057   0.95597   0.95112   0.00000  Uiso   1.00
C786   C     0.90296   0.96591   0.87882   0.00000  Uiso   1.00
C787   C     0.91134   0.99352   0.75989   0.00000  Uiso   1.00
C788   C     0.87892   0.87354   0.04091   0.00000  Uiso   1.00
C789   C     0.83118   0.86152   0.04414   0.00000  Uiso   1.00
C790   C     0.81641   0.82827   0.01438   0.00000  Uiso   1.00
C791   C     0.77471   0.77622   0.97395   0.00000  Uiso   1.00
C792   C     0.95806   0.90298   0.13879   0.00000  Uiso   1.00
C793   C     0.97684   0.91570   0.22433   0.00000  Uiso   1.00
C794   C     0.02870   0.90723   0.27698   0.00000  Uiso   1.00
C795   C     0.10987   0.90088   0.38853   0.00000  Uiso   1.00
C796   C     0.96133   0.87139   0.01150   0.00000  Uiso   1.00
C797   C     0.94306   0.90439   0.95857   0.00000  Uiso   1.00
C798   C     0.95548   0.91428   0.88631   0.00000  Uiso   1.00
C799   C     0.93489   0.94541   0.84695   0.00000  Uiso   1.00
C800   C     0.91079   0.85308   0.00910   0.00000  Uiso   1.00
C801   C     0.89609   0.81984   0.97933   0.00000  Uiso   1.00
C802   C     0.84833   0.80777   0.98251   0.00000  Uiso   1.00
C803   C     0.98993   0.88252   0.10698   0.00000  Uiso   1.00
C804   C     0.04175   0.87402   0.15951   0.00000  Uiso   1.00
C805   C     0.06062   0.88672   0.24511   0.00000  Uiso   1.00
H806   H     0.87785   0.92500   0.09485   0.00000  Uiso   1.00
H807   H     0.86591   0.97180   0.97576   0.00000  Uiso   1.00
H808   H     0.80653   0.87737   0.06877   0.00000  Uiso   1.00
H809   H     0.95217   0.93154   0.24892   0.00000  Uiso   1.00
H810   H     0.86671   0.01465   0.82967   0.00000  Uiso   1.00
H811   H     0.74151   0.81553   0.02582   0.00000  Uiso   1.00
H812   H     0.04863   0.92977   0.40572   0.00000  Uiso   1.00
H813   H     0.98614   0.85545   0.98673   0.00000  Uiso   1.00
H814   H     0.98014   0.89844   0.86171   0.00000  Uiso   1.00
H815   H     0.92076   0.80401   0.95472   0.00000  Uiso   1.00
H816   H     0.06640   0.85818   0.13487   0.00000  Uiso   1.00
H817   H     0.95942   0.95511   0.73710   0.00000  Uiso   1.00
H818   H     0.83422   0.75599   0.93326   0.00000  Uiso   1.00
H819   H     0.14135   0.87022   0.31315   0.00000  Uiso   1.00
O820   O     0.90716   0.01441   0.70308   0.00000  Uiso   1.00
O821   O     0.74290   0.75317   0.96043   0.00000  Uiso   1.00
O822   O     0.14584   0.90304   0.45884   0.00000  Uiso   1.00
N823   N     0.88936   0.99474   0.82506   0.00000  Uiso   1.00
N824   N     0.77230   0.80858   0.00843   0.00000  Uiso   1.00
N825   N     0.05943   0.91537   0.36361   0.00000  Uiso   1.00
N826   N     0.93925   0.96270   0.77525   0.00000  Uiso   1.00
N827   N     0.82219   0.77654   0.95862   0.00000  Uiso   1.00
N828   N     0.10932   0.88333   0.31380   0.00000  Uiso   1.00
C829   C     0.23495   0.43676   0.76798   0.00000  Uiso   1.00
C830   C     0.23721   0.43820   0.86298   0.00000  Uiso   1.00
C831   C     0.25735   0.46517   0.92144   0.00000  Uiso   1.00
C832   C     0.25581   0.46156   0.00543   0.00000  Uiso   1.00
C833   C     0.26247   0.46830   0.14919   0.00000  Uiso   1.00
C834   C     0.17671   0.43068   0.71097   0.00000  Uiso   1.00
C835   C     0.14598   0.45131   0.64161   0.00000  Uiso   1.00
C836   C     0.09352   0.44136   0.59763   0.00000  Uiso   1.00
C837   C     0.00626   0.43641   0.50535   0.00000  Uiso   1.00
C838   C     0.26453   0.40414   0.76097   0.00000  Uiso   1.00
C839   C     0.30765   0.40247   0.73362   0.00000  Uiso   1.00
C840   C     0.32912   0.37018   0.73172   0.00000  Uiso   1.00
C841   C     0.37823   0.32403   0.71707   0.00000  Uiso   1.00
C842   C     0.19641   0.38240   0.81319   0.00000  Uiso   1.00
C843   C     0.21627   0.40868   0.88753   0.00000  Uiso   1.00
C844   C     0.21471   0.40502   0.97146   0.00000  Uiso   1.00
C845   C     0.23485   0.43198   0.03003   0.00000  Uiso   1.00
C846   C     0.15577   0.40115   0.73552   0.00000  Uiso   1.00
C847   C     0.10335   0.39117   0.69163   0.00000  Uiso   1.00
C848   C     0.07255   0.41178   0.62223   0.00000  Uiso   1.00
C849   C     0.24360   0.37462   0.78552   0.00000  Uiso   1.00
C850   C     0.26501   0.34232   0.78365   0.00000  Uiso   1.00
C851   C     0.30815   0.34060   0.75631   0.00000  Uiso   1.00
H852   H     0.25125   0.45975   0.74886   0.00000  Uiso   1.00
H853   H     0.27354   0.48802   0.90241   0.00000  Uiso   1.00
H854   H     0.16220   0.47416   0.62262   0.00000  Uiso   1.00
H855   H     0.32384   0.42532   0.71463   0.00000  Uiso   1.00
H856   H     0.28900   0.50634   0.08346   0.00000  Uiso   1.00
H857   H     0.05424   0.47712   0.49350   0.00000  Uiso   1.00
H858   H     0.39508   0.37414   0.68751   0.00000  Uiso   1.00
H859   H     0.18012   0.35941   0.83230   0.00000  Uiso   1.00
H860   H     0.19851   0.38217   0.99044   0.00000  Uiso   1.00
H861   H     0.08716   0.36831   0.71065   0.00000  Uiso   1.00
H862   H     0.24880   0.31948   0.80265   0.00000  Uiso   1.00
H863   H     0.22810   0.42044   0.15491   0.00000  Uiso   1.00
H864   H     0.99333   0.39121   0.56494   0.00000  Uiso   1.00
H865   H     0.33418   0.28823   0.75895   0.00000  Uiso   1.00
O866   O     0.27192   0.48018   0.22170   0.00000  Uiso   1.00
O867   O     0.96392   0.44183   0.44768   0.00000  Uiso   1.00
O868   O     0.41110   0.30673   0.70221   0.00000  Uiso   1.00
N869   N     0.27216   0.48300   0.07858   0.00000  Uiso   1.00
N870   N     0.05266   0.45568   0.52701   0.00000  Uiso   1.00
N871   N     0.37132   0.35940   0.70837   0.00000  Uiso   1.00
N872   N     0.23939   0.43677   0.11703   0.00000  Uiso   1.00
N873   N     0.01989   0.40945   0.56545   0.00000  Uiso   1.00
N874   N     0.33855   0.31317   0.74681   0.00000  Uiso   1.00
C875   C     0.69479   0.40554   0.11552   0.00000  Uiso   1.00
C876   C     0.66232   0.42965   0.15032   0.00000  Uiso   1.00
C877   C     0.61741   0.44780   0.09920   0.00000  Uiso   1.00
C878   C     0.59336   0.46849   0.14358   0.00000  Uiso   1.00
C879   C     0.53986   0.50555   0.18360   0.00000  Uiso   1.00
C880   C     0.69575   0.37103   0.16050   0.00000  Uiso   1.00
C881   C     0.67895   0.33989   0.11794   0.00000  Uiso   1.00
C882   C     0.68306   0.31124   0.17088   0.00000  Uiso   1.00
C883   C     0.68149   0.25728   0.22671   0.00000  Uiso   1.00
C884   C     0.75178   0.41901   0.15202   0.00000  Uiso   1.00
C885   C     0.78210   0.42819   0.10234   0.00000  Uiso   1.00
C886   C     0.83338   0.43992   0.14815   0.00000  Uiso   1.00
C887   C     0.91881   0.46046   0.19081   0.00000  Uiso   1.00
C888   C     0.73197   0.41003   0.28522   0.00000  Uiso   1.00
C889   C     0.68252   0.43209   0.24250   0.00000  Uiso   1.00
C890   C     0.65854   0.45277   0.28696   0.00000  Uiso   1.00
C891   C     0.61360   0.47094   0.23592   0.00000  Uiso   1.00
C892   C     0.71595   0.37347   0.25268   0.00000  Uiso   1.00
C893   C     0.72008   0.34486   0.30570   0.00000  Uiso   1.00
C894   C     0.70329   0.31368   0.26323   0.00000  Uiso   1.00
C895   C     0.77198   0.42145   0.24420   0.00000  Uiso   1.00
C896   C     0.82323   0.43316   0.29010   0.00000  Uiso   1.00
C897   C     0.85361   0.44237   0.24049   0.00000  Uiso   1.00
H898   H     0.67907   0.40364   0.04375   0.00000  Uiso   1.00
H899   H     0.60179   0.44590   0.02787   0.00000  Uiso   1.00
H900   H     0.66333   0.33801   0.04661   0.00000  Uiso   1.00
H901   H     0.76646   0.42630   0.03101   0.00000  Uiso   1.00
H902   H     0.52500   0.49382   0.05091   0.00000  Uiso   1.00
H903   H     0.65478   0.26632   0.09042   0.00000  Uiso   1.00
H904   H     0.87224   0.45250   0.05752   0.00000  Uiso   1.00
H905   H     0.74770   0.41193   0.35699   0.00000  Uiso   1.00
H906   H     0.67418   0.45465   0.35830   0.00000  Uiso   1.00
H907   H     0.73572   0.34676   0.37703   0.00000  Uiso   1.00
H908   H     0.83884   0.43505   0.36143   0.00000  Uiso   1.00
H909   H     0.58375   0.50092   0.31910   0.00000  Uiso   1.00
H910   H     0.71353   0.27342   0.35860   0.00000  Uiso   1.00
H911   H     0.93099   0.45960   0.32571   0.00000  Uiso   1.00
O912   O     0.50476   0.52531   0.18022   0.00000  Uiso   1.00
O913   O     0.67504   0.22685   0.23204   0.00000  Uiso   1.00
O914   O     0.96034   0.47111   0.18888   0.00000  Uiso   1.00
N915   N     0.54892   0.48963   0.11385   0.00000  Uiso   1.00
N916   N     0.67025   0.27694   0.15078   0.00000  Uiso   1.00
N917   N     0.87356   0.45099   0.12003   0.00000  Uiso   1.00
N918   N     0.58053   0.49346   0.25816   0.00000  Uiso   1.00
N919   N     0.70186   0.28076   0.29509   0.00000  Uiso   1.00
N920   N     0.90518   0.45481   0.26434   0.00000  Uiso   1.00
C921   C     0.55198   0.66301   0.01241   0.00000  Uiso   1.00
C922   C     0.56023   0.64644   0.10137   0.00000  Uiso   1.00
C923   C     0.58827   0.61636   0.13328   0.00000  Uiso   1.00
C924   C     0.59127   0.60544   0.21622   0.00000  Uiso   1.00
C925   C     0.60779   0.57689   0.34689   0.00000  Uiso   1.00
C926   C     0.57327   0.69958   0.03260   0.00000  Uiso   1.00
C927   C     0.61226   0.71418   0.00667   0.00000  Uiso   1.00
C928   C     0.62623   0.74799   0.03172   0.00000  Uiso   1.00
C929   C     0.66297   0.80196   0.05557   0.00000  Uiso   1.00
C930   C     0.49192   0.66638   0.96532   0.00000  Uiso   1.00
C931   C     0.46252   0.65308   0.88281   0.00000  Uiso   1.00
C932   C     0.40800   0.65894   0.85120   0.00000  Uiso   1.00
C933   C     0.31842   0.66135   0.77059   0.00000  Uiso   1.00
C934   C     0.50744   0.69709   0.10298   0.00000  Uiso   1.00
C935   C     0.53604   0.66494   0.15056   0.00000  Uiso   1.00
C936   C     0.53900   0.65406   0.23348   0.00000  Uiso   1.00
C937   C     0.56704   0.62398   0.26550   0.00000  Uiso   1.00
C938   C     0.54908   0.71808   0.08179   0.00000  Uiso   1.00
C939   C     0.56299   0.75188   0.10688   0.00000  Uiso   1.00
C940   C     0.60200   0.76653   0.08100   0.00000  Uiso   1.00
C941   C     0.46773   0.68488   0.01451   0.00000  Uiso   1.00
C942   C     0.41325   0.69077   0.98302   0.00000  Uiso   1.00
C943   C     0.38377   0.67748   0.90048   0.00000  Uiso   1.00
H944   H     0.57081   0.64861   0.97411   0.00000  Uiso   1.00
H945   H     0.60699   0.60205   0.09519   0.00000  Uiso   1.00
H946   H     0.63097   0.69986   0.96860   0.00000  Uiso   1.00
H947   H     0.48125   0.63876   0.84476   0.00000  Uiso   1.00
H948   H     0.63644   0.55860   0.25114   0.00000  Uiso   1.00
H949   H     0.68701   0.76484   0.98419   0.00000  Uiso   1.00
H950   H     0.37129   0.63599   0.72305   0.00000  Uiso   1.00
H951   H     0.48861   0.71149   0.14128   0.00000  Uiso   1.00
H952   H     0.52028   0.66839   0.27153   0.00000  Uiso   1.00
H953   H     0.54426   0.76619   0.14494   0.00000  Uiso   1.00
H954   H     0.39454   0.70509   0.02111   0.00000  Uiso   1.00
H955   H     0.56607   0.61244   0.39427   0.00000  Uiso   1.00
H956   H     0.61663   0.81868   0.12732   0.00000  Uiso   1.00
H957   H     0.30091   0.68984   0.86618   0.00000  Uiso   1.00
O958   O     0.62358   0.55604   0.40538   0.00000  Uiso   1.00
O959   O     0.68991   0.82661   0.05514   0.00000  Uiso   1.00
O960   O     0.27570   0.65757   0.71254   0.00000  Uiso   1.00
N961   N     0.61553   0.57719   0.26694   0.00000  Uiso   1.00
N962   N     0.66281   0.77000   0.01737   0.00000  Uiso   1.00
N963   N     0.36763   0.64955   0.77322   0.00000  Uiso   1.00
N964   N     0.57766   0.60616   0.34396   0.00000  Uiso   1.00
N965   N     0.62494   0.79897   0.09439   0.00000  Uiso   1.00
N966   N     0.32977   0.67852   0.85023   0.00000  Uiso   1.00
C967   C     0.79299   0.56251   0.25803   0.00000  Uiso   1.00
C968   C     0.78316   0.54849   0.16590   0.00000  Uiso   1.00
C969   C     0.74986   0.52126   0.12613   0.00000  Uiso   1.00
C970   C     0.74629   0.51234   0.04150   0.00000  Uiso   1.00
C971   C     0.72668   0.48786   0.90503   0.00000  Uiso   1.00
C972   C     0.85301   0.56075   0.30754   0.00000  Uiso   1.00
C973   C     0.87842   0.54384   0.38686   0.00000  Uiso   1.00
C974   C     0.93364   0.54525   0.42147   0.00000  Uiso   1.00
C975   C     0.02246   0.53982   0.50493   0.00000  Uiso   1.00
C976   C     0.77905   0.60062   0.24614   0.00000  Uiso   1.00
C977   C     0.74229   0.61724   0.27386   0.00000  Uiso   1.00
C978   C     0.73526   0.65222   0.25679   0.00000  Uiso   1.00
C979   C     0.70926   0.70870   0.24492   0.00000  Uiso   1.00
C980   C     0.84588   0.59508   0.17846   0.00000  Uiso   1.00
C981   C     0.81189   0.56618   0.12268   0.00000  Uiso   1.00
C982   C     0.80837   0.55730   0.03809   0.00000  Uiso   1.00
C983   C     0.77506   0.53007   0.99820   0.00000  Uiso   1.00
C984   C     0.88173   0.57844   0.26432   0.00000  Uiso   1.00
C985   C     0.93693   0.57987   0.29882   0.00000  Uiso   1.00
C986   C     0.96242   0.56297   0.37817   0.00000  Uiso   1.00
C987   C     0.80778   0.61831   0.20292   0.00000  Uiso   1.00
C988   C     0.80080   0.65327   0.18582   0.00000  Uiso   1.00
C989   C     0.76404   0.66994   0.21350   0.00000  Uiso   1.00
H990   H     0.77063   0.54874   0.29168   0.00000  Uiso   1.00
H991   H     0.72764   0.50758   0.15960   0.00000  Uiso   1.00
H992   H     0.85618   0.53015   0.42029   0.00000  Uiso   1.00
H993   H     0.72007   0.60354   0.30730   0.00000  Uiso   1.00
H994   H     0.69265   0.46973   0.99411   0.00000  Uiso   1.00
H995   H     0.96369   0.51735   0.54381   0.00000  Uiso   1.00
H996   H     0.67668   0.67210   0.30555   0.00000  Uiso   1.00
H997   H     0.86824   0.60886   0.14481   0.00000  Uiso   1.00
H998   H     0.83060   0.57099   0.00466   0.00000  Uiso   1.00
H999   H     0.95915   0.59357   0.26536   0.00000  Uiso   1.00
H1000  H     0.82304   0.66695   0.15237   0.00000  Uiso   1.00
H1001  H     0.77623   0.52120   0.86836   0.00000  Uiso   1.00
H1002  H     0.04726   0.56882   0.41807   0.00000  Uiso   1.00
H1003  H     0.76026   0.72357   0.17980   0.00000  Uiso   1.00
O1004  O     0.70793   0.46947   0.84170   0.00000  Uiso   1.00
O1005  O     0.06352   0.53194   0.56290   0.00000  Uiso   1.00
O1006  O     0.68697   0.73497   0.25030   0.00000  Uiso   1.00
N1007  N     0.71748   0.48705   0.98374   0.00000  Uiso   1.00
N1008  N     0.97088   0.53156   0.49768   0.00000  Uiso   1.00
N1009  N     0.70257   0.67624   0.27494   0.00000  Uiso   1.00
N1010  N     0.76245   0.51475   0.91607   0.00000  Uiso   1.00
N1011  N     0.01585   0.55925   0.43001   0.00000  Uiso   1.00
N1012  N     0.74754   0.70393   0.20728   0.00000  Uiso   1.00
C1013  C     0.24407   0.58059   0.99089   0.00000  Uiso   1.00
C1014  C     0.29386   0.57695   0.96781   0.00000  Uiso   1.00
C1015  C     0.34344   0.56611   0.02481   0.00000  Uiso   1.00
C1016  C     0.38391   0.56451   0.99106   0.00000  Uiso   1.00
C1017  C     0.46257   0.55753   0.96856   0.00000  Uiso   1.00
C1018  C     0.22563   0.61768   0.96973   0.00000  Uiso   1.00
C1019  C     0.21784   0.64108   0.02834   0.00000  Uiso   1.00
C1020  C     0.20086   0.67377   0.99620   0.00000  Uiso   1.00
C1021  C     0.67355   0.23000   0.97666   0.00000  Uiso   1.00
C1022  C     0.20155   0.55841   0.92461   0.00000  Uiso   1.00
C1023  C     0.17352   0.53197   0.94527   0.00000  Uiso   1.00
C1024  C     0.13626   0.51477   0.87514   0.00000  Uiso   1.00
C1025  C     0.07157   0.47897   0.78554   0.00000  Uiso   1.00
C1026  C     0.22775   0.59704   0.82960   0.00000  Uiso   1.00
C1027  C     0.28499   0.58589   0.88020   0.00000  Uiso   1.00
C1028  C     0.32539   0.58431   0.84635   0.00000  Uiso   1.00
C1029  C     0.37503   0.57347   0.90329   0.00000  Uiso   1.00
C1030  C     0.21676   0.62662   0.88213   0.00000  Uiso   1.00
C1031  C     0.19979   0.65928   0.84989   0.00000  Uiso   1.00
C1032  C     0.19198   0.68272   0.90843   0.00000  Uiso   1.00
C1033  C     0.19269   0.56735   0.83700   0.00000  Uiso   1.00
C1034  C     0.15547   0.55018   0.76682   0.00000  Uiso   1.00
C1035  C     0.12738   0.52372   0.78737   0.00000  Uiso   1.00
H1036  H     0.25097   0.57363   0.05910   0.00000  Uiso   1.00
H1037  H     0.35029   0.55920   0.09261   0.00000  Uiso   1.00
H1038  H     0.72470   0.13415   0.09613   0.00000  Uiso   1.00
H1039  H     0.18039   0.52506   0.01308   0.00000  Uiso   1.00
H1040  H     0.45650   0.54715   0.09112   0.00000  Uiso   1.00
H1041  H     0.69167   0.20519   0.09855   0.00000  Uiso   1.00
H1042  H     0.09822   0.47516   0.92341   0.00000  Uiso   1.00
H1043  H     0.22085   0.60400   0.76139   0.00000  Uiso   1.00
H1044  H     0.31852   0.59123   0.77855   0.00000  Uiso   1.00
H1045  H     0.19293   0.66619   0.78208   0.00000  Uiso   1.00
H1046  H     0.14862   0.55710   0.69903   0.00000  Uiso   1.00
H1047  H     0.43071   0.57315   0.83623   0.00000  Uiso   1.00
H1048  H     0.16588   0.73119   0.84366   0.00000  Uiso   1.00
H1049  H     0.07244   0.50116   0.66852   0.00000  Uiso   1.00
O1050  O     0.50840   0.55121   0.98035   0.00000  Uiso   1.00
O1051  O     0.66094   0.25855   0.99009   0.00000  Uiso   1.00
O1052  O     0.03835   0.45676   0.76032   0.00000  Uiso   1.00
N1053  N     0.43702   0.55501   0.02877   0.00000  Uiso   1.00
N1054  N     0.68943   0.20277   0.03572   0.00000  Uiso   1.00
N1055  N     0.10206   0.48772   0.87198   0.00000  Uiso   1.00
N1056  N     0.42315   0.56900   0.89162   0.00000  Uiso   1.00
N1057  N     0.17555   0.71676   0.89857   0.00000  Uiso   1.00
N1058  N     0.08818   0.50171   0.73483   0.00000  Uiso   1.00
C1059  C     0.40266   0.40907   0.07008   0.00000  Uiso   1.00
C1060  C     0.41119   0.42485   0.99039   0.00000  Uiso   1.00
C1061  C     0.39057   0.45597   0.95112   0.00000  Uiso   1.00
C1062  C     0.40296   0.46591   0.87882   0.00000  Uiso   1.00
C1063  C     0.41134   0.49352   0.75989   0.00000  Uiso   1.00
C1064  C     0.37892   0.37354   0.04091   0.00000  Uiso   1.00
C1065  C     0.33118   0.36152   0.04414   0.00000  Uiso   1.00
C1066  C     0.31641   0.32827   0.01438   0.00000  Uiso   1.00
C1067  C     0.27471   0.27622   0.97395   0.00000  Uiso   1.00
C1068  C     0.45806   0.40298   0.13879   0.00000  Uiso   1.00
C1069  C     0.47684   0.41570   0.22433   0.00000  Uiso   1.00
C1070  C     0.52870   0.40723   0.27698   0.00000  Uiso   1.00
C1071  C     0.60987   0.40088   0.38853   0.00000  Uiso   1.00
C1072  C     0.46133   0.37139   0.01150   0.00000  Uiso   1.00
C1073  C     0.44306   0.40439   0.95857   0.00000  Uiso   1.00
C1074  C     0.45548   0.41428   0.88631   0.00000  Uiso   1.00
C1075  C     0.43489   0.44541   0.84695   0.00000  Uiso   1.00
C1076  C     0.41079   0.35308   0.00910   0.00000  Uiso   1.00
C1077  C     0.39609   0.31984   0.97933   0.00000  Uiso   1.00
C1078  C     0.34833   0.30777   0.98251   0.00000  Uiso   1.00
C1079  C     0.48993   0.38252   0.10698   0.00000  Uiso   1.00
C1080  C     0.54175   0.37402   0.15951   0.00000  Uiso   1.00
C1081  C     0.56062   0.38672   0.24511   0.00000  Uiso   1.00
H1082  H     0.37785   0.42500   0.09485   0.00000  Uiso   1.00
H1083  H     0.36591   0.47180   0.97576   0.00000  Uiso   1.00
H1084  H     0.30653   0.37737   0.06877   0.00000  Uiso   1.00
H1085  H     0.45217   0.43154   0.24892   0.00000  Uiso   1.00
H1086  H     0.36671   0.51465   0.82967   0.00000  Uiso   1.00
H1087  H     0.24151   0.31553   0.02582   0.00000  Uiso   1.00
H1088  H     0.54863   0.42977   0.40572   0.00000  Uiso   1.00
H1089  H     0.48614   0.35545   0.98673   0.00000  Uiso   1.00
H1090  H     0.48014   0.39844   0.86171   0.00000  Uiso   1.00
H1091  H     0.42076   0.30401   0.95472   0.00000  Uiso   1.00
H1092  H     0.56640   0.35818   0.13487   0.00000  Uiso   1.00
H1093  H     0.45942   0.45511   0.73710   0.00000  Uiso   1.00
H1094  H     0.33422   0.25599   0.93326   0.00000  Uiso   1.00
H1095  H     0.64135   0.37022   0.31315   0.00000  Uiso   1.00
O1096  O     0.40716   0.51441   0.70308   0.00000  Uiso   1.00
O1097  O     0.24290   0.25317   0.96043   0.00000  Uiso   1.00
O1098  O     0.64584   0.40304   0.45884   0.00000  Uiso   1.00
N1099  N     0.38936   0.49474   0.82506   0.00000  Uiso   1.00
N1100  N     0.27230   0.30858   0.00843   0.00000  Uiso   1.00
N1101  N     0.55943   0.41537   0.36361   0.00000  Uiso   1.00
N1102  N     0.43925   0.46270   0.77525   0.00000  Uiso   1.00
N1103  N     0.32219   0.27654   0.95862   0.00000  Uiso   1.00
N1104  N     0.60932   0.38333   0.31380   0.00000  Uiso   1.00
