data_job_05008
_audit_creation_date              2018-12-19
_audit_creation_method            'Materials Studio'
_symmetry_space_group_name_H-M    'P1'
_symmetry_Int_Tables_number       1
_symmetry_cell_setting            triclinic
loop_
_symmetry_equiv_pos_as_xyz
  x,y,z
_cell_length_a                    41.4315
_cell_length_b                    13.1462
_cell_length_c                    22.3868
_cell_angle_alpha                 90.0000
_cell_angle_beta                  90.0000
_cell_angle_gamma                 90.0000
loop_
_atom_site_label
_atom_site_type_symbol
_atom_site_fract_x
_atom_site_fract_y
_atom_site_fract_z
_atom_site_U_iso_or_equiv
_atom_site_adp_type
_atom_site_occupancy
C1     C     0.14743   0.56332   0.12664   0.00000  Uiso   1.00
C2     C     0.11775   0.60332   0.09391   0.00000  Uiso   1.00
C3     C     0.11507   0.69782   0.06673   0.00000  Uiso   1.00
C4     C     0.08591   0.72010   0.03912   0.00000  Uiso   1.00
C5     C     0.04370   0.79284   0.98837   0.00000  Uiso   1.00
C6     C     0.13605   0.53527   0.18929   0.00000  Uiso   1.00
C7     C     0.14876   0.57254   0.24232   0.00000  Uiso   1.00
C8     C     0.13501   0.53751   0.29500   0.00000  Uiso   1.00
C9     C     0.12124   0.50454   0.39235   0.00000  Uiso   1.00
C10    C     0.15626   0.46332   0.09624   0.00000  Uiso   1.00
C11    C     0.18597   0.44009   0.07104   0.00000  Uiso   1.00
C12    C     0.18923   0.34447   0.04539   0.00000  Uiso   1.00
C13    C     0.20683   0.19981   0.99826   0.00000  Uiso   1.00
C14    C     0.10042   0.43483   0.12593   0.00000  Uiso   1.00
C15    C     0.09222   0.53353   0.09352   0.00000  Uiso   1.00
C16    C     0.06305   0.55566   0.06594   0.00000  Uiso   1.00
C17    C     0.06033   0.65018   0.03873   0.00000  Uiso   1.00
C18    C     0.11052   0.46548   0.18891   0.00000  Uiso   1.00
C19    C     0.09675   0.43038   0.24153   0.00000  Uiso   1.00
C20    C     0.10943   0.46759   0.29461   0.00000  Uiso   1.00
C21    C     0.13073   0.39353   0.09585   0.00000  Uiso   1.00
C22    C     0.13395   0.29793   0.07024   0.00000  Uiso   1.00
C23    C     0.16365   0.27456   0.04500   0.00000  Uiso   1.00
H24    H     0.16731   0.61765   0.12695   0.00000  Uiso   1.00
H25    H     0.13483   0.75181   0.06704   0.00000  Uiso   1.00
H26    H     0.16852   0.62654   0.24260   0.00000  Uiso   1.00
H27    H     0.20572   0.49411   0.07134   0.00000  Uiso   1.00
H28    H     0.08756   0.86979   0.00048   0.00000  Uiso   1.00
H29    H     0.15861   0.60562   0.37065   0.00000  Uiso   1.00
H30    H     0.23704   0.32637   0.00952   0.00000  Uiso   1.00
H31    H     0.08053   0.38049   0.12563   0.00000  Uiso   1.00
H32    H     0.04330   0.50164   0.06565   0.00000  Uiso   1.00
H33    H     0.07699   0.37637   0.24121   0.00000  Uiso   1.00
H34    H     0.11418   0.24394   0.06995   0.00000  Uiso   1.00
H35    H     0.01327   0.66675   0.99935   0.00000  Uiso   1.00
H36    H     0.08431   0.40257   0.36952   0.00000  Uiso   1.00
H37    H     0.16275   0.12333   0.00840   0.00000  Uiso   1.00
O38    O     0.02748   0.85226   0.96050   0.00000  Uiso   1.00
O39    O     0.12069   0.50565   0.44615   0.00000  Uiso   1.00
O40    O     0.22360   0.13930   0.97236   0.00000  Uiso   1.00
N41    N     0.07519   0.80537   0.00843   0.00000  Uiso   1.00
N42    N     0.14161   0.55839   0.35452   0.00000  Uiso   1.00
N43    N     0.21494   0.29731   0.01691   0.00000  Uiso   1.00
N44    N     0.03521   0.69611   0.00782   0.00000  Uiso   1.00
N45    N     0.10163   0.44914   0.35391   0.00000  Uiso   1.00
N46    N     0.17496   0.18806   0.01631   0.00000  Uiso   1.00
C47    C     0.14735   0.93748   0.34789   0.00000  Uiso   1.00
C48    C     0.11781   0.89756   0.38108   0.00000  Uiso   1.00
C49    C     0.11520   0.80302   0.40823   0.00000  Uiso   1.00
C50    C     0.08616   0.78084   0.43630   0.00000  Uiso   1.00
C51    C     0.04416   0.70820   0.48767   0.00000  Uiso   1.00
C52    C     0.13569   0.96572   0.28544   0.00000  Uiso   1.00
C53    C     0.14813   0.92849   0.23219   0.00000  Uiso   1.00
C54    C     0.13414   0.96370   0.17976   0.00000  Uiso   1.00
C55    C     0.11993   0.99693   0.08266   0.00000  Uiso   1.00
C56    C     0.15637   0.03737   0.37822   0.00000  Uiso   1.00
C57    C     0.18621   0.06041   0.40296   0.00000  Uiso   1.00
C58    C     0.18964   0.15595   0.42862   0.00000  Uiso   1.00
C59    C     0.20754   0.30043   0.47556   0.00000  Uiso   1.00
C60    C     0.10040   0.06620   0.34945   0.00000  Uiso   1.00
C61    C     0.09231   0.96748   0.38192   0.00000  Uiso   1.00
C62    C     0.06326   0.94544   0.40996   0.00000  Uiso   1.00
C63    C     0.06062   0.85088   0.43715   0.00000  Uiso   1.00
C64    C     0.11019   0.03563   0.28629   0.00000  Uiso   1.00
C65    C     0.09619   0.07091   0.23392   0.00000  Uiso   1.00
C66    C     0.10860   0.03374   0.18061   0.00000  Uiso   1.00
C67    C     0.13088   0.10729   0.37907   0.00000  Uiso   1.00
C68    C     0.13427   0.20282   0.40469   0.00000  Uiso   1.00
C69    C     0.16410   0.22599   0.42946   0.00000  Uiso   1.00
H70    H     0.16720   0.88305   0.34723   0.00000  Uiso   1.00
H71    H     0.13494   0.74893   0.40756   0.00000  Uiso   1.00
H72    H     0.16786   0.87439   0.23155   0.00000  Uiso   1.00
H73    H     0.20593   0.00628   0.40229   0.00000  Uiso   1.00
H74    H     0.08792   0.63105   0.47481   0.00000  Uiso   1.00
H75    H     0.15735   0.89562   0.10368   0.00000  Uiso   1.00
H76    H     0.23763   0.17374   0.46372   0.00000  Uiso   1.00
H77    H     0.08055   0.12064   0.35011   0.00000  Uiso   1.00
H78    H     0.04354   0.99956   0.41061   0.00000  Uiso   1.00
H79    H     0.07646   0.12502   0.23460   0.00000  Uiso   1.00
H80    H     0.11453   0.25691   0.40534   0.00000  Uiso   1.00
H81    H     0.01374   0.83447   0.47728   0.00000  Uiso   1.00
H82    H     0.08317   0.09904   0.10615   0.00000  Uiso   1.00
H83    H     0.16344   0.37716   0.46619   0.00000  Uiso   1.00
O84    O     0.02804   0.64881   0.51577   0.00000  Uiso   1.00
O85    O     0.11913   0.99593   0.02887   0.00000  Uiso   1.00
O86    O     0.22445   0.36081   0.50123   0.00000  Uiso   1.00
N87    N     0.07555   0.69555   0.46710   0.00000  Uiso   1.00
N88    N     0.14045   0.94290   0.12012   0.00000  Uiso   1.00
N89    N     0.21551   0.20293   0.45671   0.00000  Uiso   1.00
N90    N     0.03563   0.80501   0.46843   0.00000  Uiso   1.00
N91    N     0.10053   0.05235   0.12145   0.00000  Uiso   1.00
N92    N     0.17559   0.31238   0.45804   0.00000  Uiso   1.00
C93    C     0.35257   0.43668   0.12664   0.00000  Uiso   1.00
C94    C     0.38225   0.39668   0.09391   0.00000  Uiso   1.00
C95    C     0.38493   0.30218   0.06673   0.00000  Uiso   1.00
C96    C     0.41409   0.27990   0.03912   0.00000  Uiso   1.00
C97    C     0.45630   0.20716   0.98837   0.00000  Uiso   1.00
C98    C     0.36395   0.46473   0.18929   0.00000  Uiso   1.00
C99    C     0.35124   0.42746   0.24232   0.00000  Uiso   1.00
C100   C     0.36499   0.46249   0.29500   0.00000  Uiso   1.00
C101   C     0.37876   0.49546   0.39235   0.00000  Uiso   1.00
C102   C     0.34374   0.53668   0.09624   0.00000  Uiso   1.00
C103   C     0.31403   0.55991   0.07104   0.00000  Uiso   1.00
C104   C     0.31077   0.65553   0.04539   0.00000  Uiso   1.00
C105   C     0.29317   0.80019   0.99826   0.00000  Uiso   1.00
C106   C     0.39958   0.56517   0.12593   0.00000  Uiso   1.00
C107   C     0.40778   0.46647   0.09352   0.00000  Uiso   1.00
C108   C     0.43695   0.44434   0.06594   0.00000  Uiso   1.00
C109   C     0.43967   0.34982   0.03873   0.00000  Uiso   1.00
C110   C     0.38948   0.53452   0.18891   0.00000  Uiso   1.00
C111   C     0.40325   0.56962   0.24153   0.00000  Uiso   1.00
C112   C     0.39057   0.53241   0.29461   0.00000  Uiso   1.00
C113   C     0.36927   0.60647   0.09585   0.00000  Uiso   1.00
C114   C     0.36605   0.70207   0.07024   0.00000  Uiso   1.00
C115   C     0.33635   0.72544   0.04500   0.00000  Uiso   1.00
H116   H     0.33269   0.38235   0.12695   0.00000  Uiso   1.00
H117   H     0.36517   0.24819   0.06704   0.00000  Uiso   1.00
H118   H     0.33148   0.37346   0.24260   0.00000  Uiso   1.00
H119   H     0.29428   0.50589   0.07134   0.00000  Uiso   1.00
H120   H     0.41244   0.13021   0.00048   0.00000  Uiso   1.00
H121   H     0.34139   0.39438   0.37065   0.00000  Uiso   1.00
H122   H     0.26296   0.67363   0.00952   0.00000  Uiso   1.00
H123   H     0.41947   0.61951   0.12563   0.00000  Uiso   1.00
H124   H     0.45670   0.49836   0.06565   0.00000  Uiso   1.00
H125   H     0.42301   0.62363   0.24121   0.00000  Uiso   1.00
H126   H     0.38582   0.75606   0.06995   0.00000  Uiso   1.00
H127   H     0.48673   0.33325   0.99935   0.00000  Uiso   1.00
H128   H     0.41569   0.59743   0.36952   0.00000  Uiso   1.00
H129   H     0.33725   0.87667   0.00840   0.00000  Uiso   1.00
O130   O     0.47252   0.14774   0.96050   0.00000  Uiso   1.00
O131   O     0.37931   0.49435   0.44615   0.00000  Uiso   1.00
O132   O     0.27640   0.86070   0.97236   0.00000  Uiso   1.00
N133   N     0.42481   0.19463   0.00843   0.00000  Uiso   1.00
N134   N     0.35839   0.44161   0.35452   0.00000  Uiso   1.00
N135   N     0.28506   0.70269   0.01691   0.00000  Uiso   1.00
N136   N     0.46479   0.30389   0.00782   0.00000  Uiso   1.00
N137   N     0.39837   0.55086   0.35391   0.00000  Uiso   1.00
N138   N     0.32504   0.81194   0.01631   0.00000  Uiso   1.00
C139   C     0.35265   0.06252   0.34789   0.00000  Uiso   1.00
C140   C     0.38219   0.10244   0.38108   0.00000  Uiso   1.00
C141   C     0.38480   0.19698   0.40823   0.00000  Uiso   1.00
C142   C     0.41384   0.21916   0.43630   0.00000  Uiso   1.00
C143   C     0.45584   0.29180   0.48767   0.00000  Uiso   1.00
C144   C     0.36431   0.03428   0.28544   0.00000  Uiso   1.00
C145   C     0.35187   0.07151   0.23219   0.00000  Uiso   1.00
C146   C     0.36586   0.03630   0.17976   0.00000  Uiso   1.00
C147   C     0.38007   0.00307   0.08266   0.00000  Uiso   1.00
C148   C     0.34363   0.96263   0.37822   0.00000  Uiso   1.00
C149   C     0.31379   0.93959   0.40296   0.00000  Uiso   1.00
C150   C     0.31036   0.84405   0.42862   0.00000  Uiso   1.00
C151   C     0.29246   0.69957   0.47556   0.00000  Uiso   1.00
C152   C     0.39960   0.93380   0.34945   0.00000  Uiso   1.00
C153   C     0.40769   0.03252   0.38192   0.00000  Uiso   1.00
C154   C     0.43674   0.05456   0.40996   0.00000  Uiso   1.00
C155   C     0.43938   0.14912   0.43715   0.00000  Uiso   1.00
C156   C     0.38981   0.96437   0.28629   0.00000  Uiso   1.00
C157   C     0.40381   0.92909   0.23392   0.00000  Uiso   1.00
C158   C     0.39140   0.96626   0.18061   0.00000  Uiso   1.00
C159   C     0.36912   0.89271   0.37907   0.00000  Uiso   1.00
C160   C     0.36573   0.79718   0.40469   0.00000  Uiso   1.00
C161   C     0.33590   0.77401   0.42946   0.00000  Uiso   1.00
H162   H     0.33280   0.11695   0.34723   0.00000  Uiso   1.00
H163   H     0.36506   0.25107   0.40756   0.00000  Uiso   1.00
H164   H     0.33214   0.12561   0.23155   0.00000  Uiso   1.00
H165   H     0.29407   0.99372   0.40229   0.00000  Uiso   1.00
H166   H     0.41208   0.36895   0.47481   0.00000  Uiso   1.00
H167   H     0.34265   0.10438   0.10368   0.00000  Uiso   1.00
H168   H     0.26237   0.82626   0.46372   0.00000  Uiso   1.00
H169   H     0.41945   0.87936   0.35011   0.00000  Uiso   1.00
H170   H     0.45646   0.00044   0.41061   0.00000  Uiso   1.00
H171   H     0.42354   0.87498   0.23460   0.00000  Uiso   1.00
H172   H     0.38547   0.74309   0.40534   0.00000  Uiso   1.00
H173   H     0.48626   0.16553   0.47728   0.00000  Uiso   1.00
H174   H     0.41683   0.90096   0.10615   0.00000  Uiso   1.00
H175   H     0.33656   0.62284   0.46619   0.00000  Uiso   1.00
O176   O     0.47196   0.35119   0.51577   0.00000  Uiso   1.00
O177   O     0.38087   0.00407   0.02887   0.00000  Uiso   1.00
O178   O     0.27555   0.63919   0.50123   0.00000  Uiso   1.00
N179   N     0.42445   0.30445   0.46710   0.00000  Uiso   1.00
N180   N     0.35955   0.05710   0.12012   0.00000  Uiso   1.00
N181   N     0.28449   0.79707   0.45671   0.00000  Uiso   1.00
N182   N     0.46437   0.19499   0.46843   0.00000  Uiso   1.00
N183   N     0.39947   0.94765   0.12145   0.00000  Uiso   1.00
N184   N     0.32441   0.68762   0.45804   0.00000  Uiso   1.00
C185   C     0.85257   0.56332   0.37336   0.00000  Uiso   1.00
C186   C     0.88225   0.60332   0.40609   0.00000  Uiso   1.00
C187   C     0.88493   0.69782   0.43327   0.00000  Uiso   1.00
C188   C     0.91409   0.72010   0.46088   0.00000  Uiso   1.00
C189   C     0.95630   0.79284   0.51163   0.00000  Uiso   1.00
C190   C     0.86395   0.53527   0.31071   0.00000  Uiso   1.00
C191   C     0.85124   0.57254   0.25768   0.00000  Uiso   1.00
C192   C     0.86499   0.53751   0.20500   0.00000  Uiso   1.00
C193   C     0.87876   0.50454   0.10765   0.00000  Uiso   1.00
C194   C     0.84374   0.46332   0.40376   0.00000  Uiso   1.00
C195   C     0.81403   0.44009   0.42896   0.00000  Uiso   1.00
C196   C     0.81077   0.34447   0.45461   0.00000  Uiso   1.00
C197   C     0.79317   0.19981   0.50174   0.00000  Uiso   1.00
C198   C     0.89958   0.43483   0.37407   0.00000  Uiso   1.00
C199   C     0.90778   0.53353   0.40648   0.00000  Uiso   1.00
C200   C     0.93695   0.55566   0.43406   0.00000  Uiso   1.00
C201   C     0.93967   0.65018   0.46127   0.00000  Uiso   1.00
C202   C     0.88948   0.46548   0.31109   0.00000  Uiso   1.00
C203   C     0.90325   0.43038   0.25847   0.00000  Uiso   1.00
C204   C     0.89057   0.46759   0.20539   0.00000  Uiso   1.00
C205   C     0.86927   0.39353   0.40415   0.00000  Uiso   1.00
C206   C     0.86605   0.29793   0.42976   0.00000  Uiso   1.00
C207   C     0.83635   0.27456   0.45500   0.00000  Uiso   1.00
H208   H     0.83269   0.61765   0.37305   0.00000  Uiso   1.00
H209   H     0.86517   0.75181   0.43296   0.00000  Uiso   1.00
H210   H     0.83148   0.62654   0.25740   0.00000  Uiso   1.00
H211   H     0.79428   0.49411   0.42866   0.00000  Uiso   1.00
H212   H     0.91244   0.86979   0.49952   0.00000  Uiso   1.00
H213   H     0.84139   0.60562   0.12935   0.00000  Uiso   1.00
H214   H     0.76296   0.32637   0.49048   0.00000  Uiso   1.00
H215   H     0.91947   0.38049   0.37437   0.00000  Uiso   1.00
H216   H     0.95670   0.50164   0.43435   0.00000  Uiso   1.00
H217   H     0.92301   0.37637   0.25879   0.00000  Uiso   1.00
H218   H     0.88582   0.24394   0.43005   0.00000  Uiso   1.00
H219   H     0.98673   0.66675   0.50065   0.00000  Uiso   1.00
H220   H     0.91569   0.40257   0.13048   0.00000  Uiso   1.00
H221   H     0.83725   0.12333   0.49160   0.00000  Uiso   1.00
O222   O     0.97252   0.85226   0.53950   0.00000  Uiso   1.00
O223   O     0.87931   0.50565   0.05385   0.00000  Uiso   1.00
O224   O     0.77640   0.13930   0.52764   0.00000  Uiso   1.00
N225   N     0.92481   0.80537   0.49157   0.00000  Uiso   1.00
N226   N     0.85839   0.55839   0.14548   0.00000  Uiso   1.00
N227   N     0.78506   0.29731   0.48309   0.00000  Uiso   1.00
N228   N     0.96479   0.69611   0.49218   0.00000  Uiso   1.00
N229   N     0.89837   0.44914   0.14609   0.00000  Uiso   1.00
N230   N     0.82504   0.18806   0.48369   0.00000  Uiso   1.00
C231   C     0.85265   0.93748   0.15211   0.00000  Uiso   1.00
C232   C     0.88219   0.89756   0.11892   0.00000  Uiso   1.00
C233   C     0.88480   0.80302   0.09177   0.00000  Uiso   1.00
C234   C     0.91384   0.78084   0.06370   0.00000  Uiso   1.00
C235   C     0.95584   0.70820   0.01233   0.00000  Uiso   1.00
C236   C     0.86431   0.96572   0.21456   0.00000  Uiso   1.00
C237   C     0.85187   0.92849   0.26781   0.00000  Uiso   1.00
C238   C     0.86586   0.96370   0.32024   0.00000  Uiso   1.00
C239   C     0.88007   0.99693   0.41734   0.00000  Uiso   1.00
C240   C     0.84363   0.03737   0.12178   0.00000  Uiso   1.00
C241   C     0.81379   0.06041   0.09704   0.00000  Uiso   1.00
C242   C     0.81036   0.15595   0.07138   0.00000  Uiso   1.00
C243   C     0.79246   0.30043   0.02444   0.00000  Uiso   1.00
C244   C     0.89960   0.06620   0.15055   0.00000  Uiso   1.00
C245   C     0.90769   0.96748   0.11808   0.00000  Uiso   1.00
C246   C     0.93674   0.94544   0.09004   0.00000  Uiso   1.00
C247   C     0.93938   0.85088   0.06285   0.00000  Uiso   1.00
C248   C     0.88981   0.03563   0.21371   0.00000  Uiso   1.00
C249   C     0.90381   0.07091   0.26608   0.00000  Uiso   1.00
C250   C     0.89140   0.03374   0.31939   0.00000  Uiso   1.00
C251   C     0.86912   0.10729   0.12093   0.00000  Uiso   1.00
C252   C     0.86573   0.20282   0.09531   0.00000  Uiso   1.00
C253   C     0.83590   0.22599   0.07054   0.00000  Uiso   1.00
H254   H     0.83280   0.88305   0.15277   0.00000  Uiso   1.00
H255   H     0.86506   0.74893   0.09244   0.00000  Uiso   1.00
H256   H     0.83214   0.87439   0.26845   0.00000  Uiso   1.00
H257   H     0.79407   0.00628   0.09771   0.00000  Uiso   1.00
H258   H     0.91208   0.63105   0.02519   0.00000  Uiso   1.00
H259   H     0.84265   0.89562   0.39632   0.00000  Uiso   1.00
H260   H     0.76237   0.17374   0.03628   0.00000  Uiso   1.00
H261   H     0.91945   0.12064   0.14989   0.00000  Uiso   1.00
H262   H     0.95646   0.99956   0.08939   0.00000  Uiso   1.00
H263   H     0.92354   0.12502   0.26540   0.00000  Uiso   1.00
H264   H     0.88547   0.25691   0.09466   0.00000  Uiso   1.00
H265   H     0.98626   0.83447   0.02272   0.00000  Uiso   1.00
H266   H     0.91683   0.09904   0.39385   0.00000  Uiso   1.00
H267   H     0.83656   0.37716   0.03381   0.00000  Uiso   1.00
O268   O     0.97196   0.64881   0.98423   0.00000  Uiso   1.00
O269   O     0.88087   0.99593   0.47113   0.00000  Uiso   1.00
O270   O     0.77555   0.36081   0.99877   0.00000  Uiso   1.00
N271   N     0.92445   0.69555   0.03290   0.00000  Uiso   1.00
N272   N     0.85955   0.94290   0.37988   0.00000  Uiso   1.00
N273   N     0.78449   0.20293   0.04329   0.00000  Uiso   1.00
N274   N     0.96437   0.80501   0.03157   0.00000  Uiso   1.00
N275   N     0.89947   0.05235   0.37855   0.00000  Uiso   1.00
N276   N     0.82441   0.31238   0.04196   0.00000  Uiso   1.00
C277   C     0.64743   0.43668   0.37336   0.00000  Uiso   1.00
C278   C     0.61775   0.39668   0.40609   0.00000  Uiso   1.00
C279   C     0.61507   0.30218   0.43327   0.00000  Uiso   1.00
C280   C     0.58591   0.27990   0.46088   0.00000  Uiso   1.00
C281   C     0.54370   0.20716   0.51163   0.00000  Uiso   1.00
C282   C     0.63605   0.46473   0.31071   0.00000  Uiso   1.00
C283   C     0.64876   0.42746   0.25768   0.00000  Uiso   1.00
C284   C     0.63501   0.46249   0.20500   0.00000  Uiso   1.00
C285   C     0.62124   0.49546   0.10765   0.00000  Uiso   1.00
C286   C     0.65626   0.53668   0.40376   0.00000  Uiso   1.00
C287   C     0.68597   0.55991   0.42896   0.00000  Uiso   1.00
C288   C     0.68923   0.65553   0.45461   0.00000  Uiso   1.00
C289   C     0.70683   0.80019   0.50174   0.00000  Uiso   1.00
C290   C     0.60042   0.56517   0.37407   0.00000  Uiso   1.00
C291   C     0.59222   0.46647   0.40648   0.00000  Uiso   1.00
C292   C     0.56305   0.44434   0.43406   0.00000  Uiso   1.00
C293   C     0.56033   0.34982   0.46127   0.00000  Uiso   1.00
C294   C     0.61052   0.53452   0.31109   0.00000  Uiso   1.00
C295   C     0.59675   0.56962   0.25847   0.00000  Uiso   1.00
C296   C     0.60943   0.53241   0.20539   0.00000  Uiso   1.00
C297   C     0.63073   0.60647   0.40415   0.00000  Uiso   1.00
C298   C     0.63395   0.70207   0.42976   0.00000  Uiso   1.00
C299   C     0.66365   0.72544   0.45500   0.00000  Uiso   1.00
H300   H     0.66731   0.38235   0.37305   0.00000  Uiso   1.00
H301   H     0.63483   0.24819   0.43296   0.00000  Uiso   1.00
H302   H     0.66852   0.37346   0.25740   0.00000  Uiso   1.00
H303   H     0.70572   0.50589   0.42866   0.00000  Uiso   1.00
H304   H     0.58756   0.13021   0.49952   0.00000  Uiso   1.00
H305   H     0.65861   0.39438   0.12935   0.00000  Uiso   1.00
H306   H     0.73704   0.67363   0.49048   0.00000  Uiso   1.00
H307   H     0.58053   0.61951   0.37437   0.00000  Uiso   1.00
H308   H     0.54330   0.49836   0.43435   0.00000  Uiso   1.00
H309   H     0.57699   0.62363   0.25879   0.00000  Uiso   1.00
H310   H     0.61418   0.75606   0.43005   0.00000  Uiso   1.00
H311   H     0.51327   0.33325   0.50065   0.00000  Uiso   1.00
H312   H     0.58431   0.59743   0.13048   0.00000  Uiso   1.00
H313   H     0.66275   0.87667   0.49160   0.00000  Uiso   1.00
O314   O     0.52748   0.14774   0.53950   0.00000  Uiso   1.00
O315   O     0.62069   0.49435   0.05385   0.00000  Uiso   1.00
O316   O     0.72360   0.86070   0.52764   0.00000  Uiso   1.00
N317   N     0.57519   0.19463   0.49157   0.00000  Uiso   1.00
N318   N     0.64161   0.44161   0.14548   0.00000  Uiso   1.00
N319   N     0.71494   0.70269   0.48309   0.00000  Uiso   1.00
N320   N     0.53521   0.30389   0.49218   0.00000  Uiso   1.00
N321   N     0.60163   0.55086   0.14609   0.00000  Uiso   1.00
N322   N     0.67496   0.81194   0.48369   0.00000  Uiso   1.00
C323   C     0.64735   0.06252   0.15211   0.00000  Uiso   1.00
C324   C     0.61781   0.10244   0.11892   0.00000  Uiso   1.00
C325   C     0.61520   0.19698   0.09177   0.00000  Uiso   1.00
C326   C     0.58616   0.21916   0.06370   0.00000  Uiso   1.00
C327   C     0.54416   0.29180   0.01233   0.00000  Uiso   1.00
C328   C     0.63569   0.03428   0.21456   0.00000  Uiso   1.00
C329   C     0.64813   0.07151   0.26781   0.00000  Uiso   1.00
C330   C     0.63414   0.03630   0.32024   0.00000  Uiso   1.00
C331   C     0.61993   0.00307   0.41734   0.00000  Uiso   1.00
C332   C     0.65637   0.96263   0.12178   0.00000  Uiso   1.00
C333   C     0.68621   0.93959   0.09704   0.00000  Uiso   1.00
C334   C     0.68964   0.84405   0.07138   0.00000  Uiso   1.00
C335   C     0.70754   0.69957   0.02444   0.00000  Uiso   1.00
C336   C     0.60040   0.93380   0.15055   0.00000  Uiso   1.00
C337   C     0.59231   0.03252   0.11808   0.00000  Uiso   1.00
C338   C     0.56326   0.05456   0.09004   0.00000  Uiso   1.00
C339   C     0.56062   0.14912   0.06285   0.00000  Uiso   1.00
C340   C     0.61019   0.96437   0.21371   0.00000  Uiso   1.00
C341   C     0.59619   0.92909   0.26608   0.00000  Uiso   1.00
C342   C     0.60860   0.96626   0.31939   0.00000  Uiso   1.00
C343   C     0.63088   0.89271   0.12093   0.00000  Uiso   1.00
C344   C     0.63427   0.79718   0.09531   0.00000  Uiso   1.00
C345   C     0.66410   0.77401   0.07054   0.00000  Uiso   1.00
H346   H     0.66720   0.11695   0.15277   0.00000  Uiso   1.00
H347   H     0.63494   0.25107   0.09244   0.00000  Uiso   1.00
H348   H     0.66786   0.12561   0.26845   0.00000  Uiso   1.00
H349   H     0.70593   0.99372   0.09771   0.00000  Uiso   1.00
H350   H     0.58792   0.36895   0.02519   0.00000  Uiso   1.00
H351   H     0.65735   0.10438   0.39632   0.00000  Uiso   1.00
H352   H     0.73763   0.82626   0.03628   0.00000  Uiso   1.00
H353   H     0.58055   0.87936   0.14989   0.00000  Uiso   1.00
H354   H     0.54354   0.00044   0.08939   0.00000  Uiso   1.00
H355   H     0.57646   0.87498   0.26540   0.00000  Uiso   1.00
H356   H     0.61453   0.74309   0.09466   0.00000  Uiso   1.00
H357   H     0.51374   0.16553   0.02272   0.00000  Uiso   1.00
H358   H     0.58317   0.90096   0.39385   0.00000  Uiso   1.00
H359   H     0.66344   0.62284   0.03381   0.00000  Uiso   1.00
O360   O     0.52804   0.35119   0.98423   0.00000  Uiso   1.00
O361   O     0.61913   0.00407   0.47113   0.00000  Uiso   1.00
O362   O     0.72445   0.63919   0.99877   0.00000  Uiso   1.00
N363   N     0.57555   0.30445   0.03290   0.00000  Uiso   1.00
N364   N     0.64045   0.05710   0.37988   0.00000  Uiso   1.00
N365   N     0.71551   0.79707   0.04329   0.00000  Uiso   1.00
N366   N     0.53563   0.19499   0.03157   0.00000  Uiso   1.00
N367   N     0.60053   0.94765   0.37855   0.00000  Uiso   1.00
N368   N     0.67559   0.68762   0.04196   0.00000  Uiso   1.00
C369   C     0.85257   0.43668   0.87336   0.00000  Uiso   1.00
C370   C     0.88225   0.39668   0.90609   0.00000  Uiso   1.00
C371   C     0.88493   0.30218   0.93327   0.00000  Uiso   1.00
C372   C     0.91409   0.27990   0.96088   0.00000  Uiso   1.00
C373   C     0.95630   0.20716   0.01163   0.00000  Uiso   1.00
C374   C     0.86395   0.46473   0.81071   0.00000  Uiso   1.00
C375   C     0.85124   0.42746   0.75768   0.00000  Uiso   1.00
C376   C     0.86499   0.46249   0.70500   0.00000  Uiso   1.00
C377   C     0.87876   0.49546   0.60765   0.00000  Uiso   1.00
C378   C     0.84374   0.53668   0.90376   0.00000  Uiso   1.00
C379   C     0.81403   0.55991   0.92896   0.00000  Uiso   1.00
C380   C     0.81077   0.65553   0.95461   0.00000  Uiso   1.00
C381   C     0.79317   0.80019   0.00174   0.00000  Uiso   1.00
C382   C     0.89958   0.56517   0.87407   0.00000  Uiso   1.00
C383   C     0.90778   0.46647   0.90648   0.00000  Uiso   1.00
C384   C     0.93695   0.44434   0.93406   0.00000  Uiso   1.00
C385   C     0.93967   0.34982   0.96127   0.00000  Uiso   1.00
C386   C     0.88948   0.53452   0.81109   0.00000  Uiso   1.00
C387   C     0.90325   0.56962   0.75847   0.00000  Uiso   1.00
C388   C     0.89057   0.53241   0.70539   0.00000  Uiso   1.00
C389   C     0.86927   0.60647   0.90415   0.00000  Uiso   1.00
C390   C     0.86605   0.70207   0.92976   0.00000  Uiso   1.00
C391   C     0.83635   0.72544   0.95500   0.00000  Uiso   1.00
H392   H     0.83269   0.38235   0.87305   0.00000  Uiso   1.00
H393   H     0.86517   0.24819   0.93296   0.00000  Uiso   1.00
H394   H     0.83148   0.37346   0.75740   0.00000  Uiso   1.00
H395   H     0.79428   0.50589   0.92866   0.00000  Uiso   1.00
H396   H     0.91244   0.13021   0.99952   0.00000  Uiso   1.00
H397   H     0.84139   0.39438   0.62935   0.00000  Uiso   1.00
H398   H     0.76296   0.67363   0.99048   0.00000  Uiso   1.00
H399   H     0.91947   0.61951   0.87437   0.00000  Uiso   1.00
H400   H     0.95670   0.49836   0.93435   0.00000  Uiso   1.00
H401   H     0.92301   0.62363   0.75879   0.00000  Uiso   1.00
H402   H     0.88582   0.75606   0.93005   0.00000  Uiso   1.00
H403   H     0.98673   0.33325   0.00065   0.00000  Uiso   1.00
H404   H     0.91569   0.59743   0.63048   0.00000  Uiso   1.00
H405   H     0.83725   0.87667   0.99160   0.00000  Uiso   1.00
O406   O     0.97252   0.14774   0.03950   0.00000  Uiso   1.00
O407   O     0.87931   0.49435   0.55385   0.00000  Uiso   1.00
O408   O     0.77640   0.86070   0.02764   0.00000  Uiso   1.00
N409   N     0.92481   0.19463   0.99157   0.00000  Uiso   1.00
N410   N     0.85839   0.44161   0.64548   0.00000  Uiso   1.00
N411   N     0.78506   0.70269   0.98309   0.00000  Uiso   1.00
N412   N     0.96479   0.30389   0.99218   0.00000  Uiso   1.00
N413   N     0.89837   0.55086   0.64609   0.00000  Uiso   1.00
N414   N     0.82504   0.81194   0.98369   0.00000  Uiso   1.00
C415   C     0.85265   0.06252   0.65211   0.00000  Uiso   1.00
C416   C     0.88219   0.10244   0.61892   0.00000  Uiso   1.00
C417   C     0.88480   0.19698   0.59177   0.00000  Uiso   1.00
C418   C     0.91384   0.21916   0.56370   0.00000  Uiso   1.00
C419   C     0.95584   0.29180   0.51233   0.00000  Uiso   1.00
C420   C     0.86431   0.03428   0.71456   0.00000  Uiso   1.00
C421   C     0.85187   0.07151   0.76781   0.00000  Uiso   1.00
C422   C     0.86586   0.03630   0.82024   0.00000  Uiso   1.00
C423   C     0.88007   0.00307   0.91734   0.00000  Uiso   1.00
C424   C     0.84363   0.96263   0.62178   0.00000  Uiso   1.00
C425   C     0.81379   0.93959   0.59704   0.00000  Uiso   1.00
C426   C     0.81036   0.84405   0.57138   0.00000  Uiso   1.00
C427   C     0.79246   0.69957   0.52444   0.00000  Uiso   1.00
C428   C     0.89960   0.93380   0.65055   0.00000  Uiso   1.00
C429   C     0.90769   0.03252   0.61808   0.00000  Uiso   1.00
C430   C     0.93674   0.05456   0.59004   0.00000  Uiso   1.00
C431   C     0.93938   0.14912   0.56285   0.00000  Uiso   1.00
C432   C     0.88981   0.96437   0.71371   0.00000  Uiso   1.00
C433   C     0.90381   0.92909   0.76608   0.00000  Uiso   1.00
C434   C     0.89140   0.96626   0.81939   0.00000  Uiso   1.00
C435   C     0.86912   0.89271   0.62093   0.00000  Uiso   1.00
C436   C     0.86573   0.79718   0.59531   0.00000  Uiso   1.00
C437   C     0.83590   0.77401   0.57054   0.00000  Uiso   1.00
H438   H     0.83280   0.11695   0.65277   0.00000  Uiso   1.00
H439   H     0.86506   0.25107   0.59244   0.00000  Uiso   1.00
H440   H     0.83214   0.12561   0.76845   0.00000  Uiso   1.00
H441   H     0.79407   0.99372   0.59771   0.00000  Uiso   1.00
H442   H     0.91208   0.36895   0.52519   0.00000  Uiso   1.00
H443   H     0.84265   0.10438   0.89632   0.00000  Uiso   1.00
H444   H     0.76237   0.82626   0.53628   0.00000  Uiso   1.00
H445   H     0.91945   0.87936   0.64989   0.00000  Uiso   1.00
H446   H     0.95646   0.00044   0.58939   0.00000  Uiso   1.00
H447   H     0.92354   0.87498   0.76540   0.00000  Uiso   1.00
H448   H     0.88547   0.74309   0.59466   0.00000  Uiso   1.00
H449   H     0.98626   0.16553   0.52272   0.00000  Uiso   1.00
H450   H     0.91683   0.90096   0.89385   0.00000  Uiso   1.00
H451   H     0.83656   0.62284   0.53381   0.00000  Uiso   1.00
O452   O     0.97196   0.35119   0.48423   0.00000  Uiso   1.00
O453   O     0.88087   0.00407   0.97113   0.00000  Uiso   1.00
O454   O     0.77555   0.63919   0.49877   0.00000  Uiso   1.00
N455   N     0.92445   0.30445   0.53290   0.00000  Uiso   1.00
N456   N     0.85955   0.05710   0.87988   0.00000  Uiso   1.00
N457   N     0.78449   0.79707   0.54329   0.00000  Uiso   1.00
N458   N     0.96437   0.19499   0.53157   0.00000  Uiso   1.00
N459   N     0.89947   0.94765   0.87855   0.00000  Uiso   1.00
N460   N     0.82441   0.68762   0.54196   0.00000  Uiso   1.00
C461   C     0.64743   0.56332   0.87336   0.00000  Uiso   1.00
C462   C     0.61775   0.60332   0.90609   0.00000  Uiso   1.00
C463   C     0.61507   0.69782   0.93327   0.00000  Uiso   1.00
C464   C     0.58591   0.72010   0.96088   0.00000  Uiso   1.00
C465   C     0.54370   0.79284   0.01163   0.00000  Uiso   1.00
C466   C     0.63605   0.53527   0.81071   0.00000  Uiso   1.00
C467   C     0.64876   0.57254   0.75768   0.00000  Uiso   1.00
C468   C     0.63501   0.53751   0.70500   0.00000  Uiso   1.00
C469   C     0.62124   0.50454   0.60765   0.00000  Uiso   1.00
C470   C     0.65626   0.46332   0.90376   0.00000  Uiso   1.00
C471   C     0.68597   0.44009   0.92896   0.00000  Uiso   1.00
C472   C     0.68923   0.34447   0.95461   0.00000  Uiso   1.00
C473   C     0.70683   0.19981   0.00174   0.00000  Uiso   1.00
C474   C     0.60042   0.43483   0.87407   0.00000  Uiso   1.00
C475   C     0.59222   0.53353   0.90648   0.00000  Uiso   1.00
C476   C     0.56305   0.55566   0.93406   0.00000  Uiso   1.00
C477   C     0.56033   0.65018   0.96127   0.00000  Uiso   1.00
C478   C     0.61052   0.46548   0.81109   0.00000  Uiso   1.00
C479   C     0.59675   0.43038   0.75847   0.00000  Uiso   1.00
C480   C     0.60943   0.46759   0.70539   0.00000  Uiso   1.00
C481   C     0.63073   0.39353   0.90415   0.00000  Uiso   1.00
C482   C     0.63395   0.29793   0.92976   0.00000  Uiso   1.00
C483   C     0.66365   0.27456   0.95500   0.00000  Uiso   1.00
H484   H     0.66731   0.61765   0.87305   0.00000  Uiso   1.00
H485   H     0.63483   0.75181   0.93296   0.00000  Uiso   1.00
H486   H     0.66852   0.62654   0.75740   0.00000  Uiso   1.00
H487   H     0.70572   0.49411   0.92866   0.00000  Uiso   1.00
H488   H     0.58756   0.86979   0.99952   0.00000  Uiso   1.00
H489   H     0.65861   0.60562   0.62935   0.00000  Uiso   1.00
H490   H     0.73704   0.32637   0.99048   0.00000  Uiso   1.00
H491   H     0.58053   0.38049   0.87437   0.00000  Uiso   1.00
H492   H     0.54330   0.50164   0.93435   0.00000  Uiso   1.00
H493   H     0.57699   0.37637   0.75879   0.00000  Uiso   1.00
H494   H     0.61418   0.24394   0.93005   0.00000  Uiso   1.00
H495   H     0.51327   0.66675   0.00065   0.00000  Uiso   1.00
H496   H     0.58431   0.40257   0.63048   0.00000  Uiso   1.00
H497   H     0.66275   0.12333   0.99160   0.00000  Uiso   1.00
O498   O     0.52748   0.85226   0.03950   0.00000  Uiso   1.00
O499   O     0.62069   0.50565   0.55385   0.00000  Uiso   1.00
O500   O     0.72360   0.13930   0.02764   0.00000  Uiso   1.00
N501   N     0.57519   0.80537   0.99157   0.00000  Uiso   1.00
N502   N     0.64161   0.55839   0.64548   0.00000  Uiso   1.00
N503   N     0.71494   0.29731   0.98309   0.00000  Uiso   1.00
N504   N     0.53521   0.69611   0.99218   0.00000  Uiso   1.00
N505   N     0.60163   0.44914   0.64609   0.00000  Uiso   1.00
N506   N     0.67496   0.18806   0.98369   0.00000  Uiso   1.00
C507   C     0.64735   0.93748   0.65211   0.00000  Uiso   1.00
C508   C     0.61781   0.89756   0.61892   0.00000  Uiso   1.00
C509   C     0.61520   0.80302   0.59177   0.00000  Uiso   1.00
C510   C     0.58616   0.78084   0.56370   0.00000  Uiso   1.00
C511   C     0.54416   0.70820   0.51233   0.00000  Uiso   1.00
C512   C     0.63569   0.96572   0.71456   0.00000  Uiso   1.00
C513   C     0.64813   0.92849   0.76781   0.00000  Uiso   1.00
C514   C     0.63414   0.96370   0.82024   0.00000  Uiso   1.00
C515   C     0.61993   0.99693   0.91734   0.00000  Uiso   1.00
C516   C     0.65637   0.03737   0.62178   0.00000  Uiso   1.00
C517   C     0.68621   0.06041   0.59704   0.00000  Uiso   1.00
C518   C     0.68964   0.15595   0.57138   0.00000  Uiso   1.00
C519   C     0.70754   0.30043   0.52444   0.00000  Uiso   1.00
C520   C     0.60040   0.06620   0.65055   0.00000  Uiso   1.00
C521   C     0.59231   0.96748   0.61808   0.00000  Uiso   1.00
C522   C     0.56326   0.94544   0.59004   0.00000  Uiso   1.00
C523   C     0.56062   0.85088   0.56285   0.00000  Uiso   1.00
C524   C     0.61019   0.03563   0.71371   0.00000  Uiso   1.00
C525   C     0.59619   0.07091   0.76608   0.00000  Uiso   1.00
C526   C     0.60860   0.03374   0.81939   0.00000  Uiso   1.00
C527   C     0.63088   0.10729   0.62093   0.00000  Uiso   1.00
C528   C     0.63427   0.20282   0.59531   0.00000  Uiso   1.00
C529   C     0.66410   0.22599   0.57054   0.00000  Uiso   1.00
H530   H     0.66720   0.88305   0.65277   0.00000  Uiso   1.00
H531   H     0.63494   0.74893   0.59244   0.00000  Uiso   1.00
H532   H     0.66786   0.87439   0.76845   0.00000  Uiso   1.00
H533   H     0.70593   0.00628   0.59771   0.00000  Uiso   1.00
H534   H     0.58792   0.63105   0.52519   0.00000  Uiso   1.00
H535   H     0.65735   0.89562   0.89632   0.00000  Uiso   1.00
H536   H     0.73763   0.17374   0.53628   0.00000  Uiso   1.00
H537   H     0.58055   0.12064   0.64989   0.00000  Uiso   1.00
H538   H     0.54354   0.99956   0.58939   0.00000  Uiso   1.00
H539   H     0.57646   0.12502   0.76540   0.00000  Uiso   1.00
H540   H     0.61453   0.25691   0.59466   0.00000  Uiso   1.00
H541   H     0.51374   0.83447   0.52272   0.00000  Uiso   1.00
H542   H     0.58317   0.09904   0.89385   0.00000  Uiso   1.00
H543   H     0.66344   0.37716   0.53381   0.00000  Uiso   1.00
O544   O     0.52804   0.64881   0.48423   0.00000  Uiso   1.00
O545   O     0.61913   0.99593   0.97113   0.00000  Uiso   1.00
O546   O     0.72445   0.36081   0.49877   0.00000  Uiso   1.00
N547   N     0.57555   0.69555   0.53290   0.00000  Uiso   1.00
N548   N     0.64045   0.94290   0.87988   0.00000  Uiso   1.00
N549   N     0.71551   0.20293   0.54329   0.00000  Uiso   1.00
N550   N     0.53563   0.80501   0.53157   0.00000  Uiso   1.00
N551   N     0.60053   0.05235   0.87855   0.00000  Uiso   1.00
N552   N     0.67559   0.31238   0.54196   0.00000  Uiso   1.00
C553   C     0.14743   0.43668   0.62664   0.00000  Uiso   1.00
C554   C     0.11775   0.39668   0.59391   0.00000  Uiso   1.00
C555   C     0.11507   0.30218   0.56673   0.00000  Uiso   1.00
C556   C     0.08591   0.27990   0.53912   0.00000  Uiso   1.00
C557   C     0.04370   0.20716   0.48837   0.00000  Uiso   1.00
C558   C     0.13605   0.46473   0.68929   0.00000  Uiso   1.00
C559   C     0.14876   0.42746   0.74232   0.00000  Uiso   1.00
C560   C     0.13501   0.46249   0.79500   0.00000  Uiso   1.00
C561   C     0.12124   0.49546   0.89235   0.00000  Uiso   1.00
C562   C     0.15626   0.53668   0.59624   0.00000  Uiso   1.00
C563   C     0.18597   0.55991   0.57104   0.00000  Uiso   1.00
C564   C     0.18923   0.65553   0.54539   0.00000  Uiso   1.00
C565   C     0.20683   0.80019   0.49826   0.00000  Uiso   1.00
C566   C     0.10042   0.56517   0.62593   0.00000  Uiso   1.00
C567   C     0.09222   0.46647   0.59352   0.00000  Uiso   1.00
C568   C     0.06305   0.44434   0.56594   0.00000  Uiso   1.00
C569   C     0.06033   0.34982   0.53873   0.00000  Uiso   1.00
C570   C     0.11052   0.53452   0.68891   0.00000  Uiso   1.00
C571   C     0.09675   0.56962   0.74153   0.00000  Uiso   1.00
C572   C     0.10943   0.53241   0.79461   0.00000  Uiso   1.00
C573   C     0.13073   0.60647   0.59585   0.00000  Uiso   1.00
C574   C     0.13395   0.70207   0.57024   0.00000  Uiso   1.00
C575   C     0.16365   0.72544   0.54500   0.00000  Uiso   1.00
H576   H     0.16731   0.38235   0.62695   0.00000  Uiso   1.00
H577   H     0.13483   0.24819   0.56704   0.00000  Uiso   1.00
H578   H     0.16852   0.37346   0.74260   0.00000  Uiso   1.00
H579   H     0.20572   0.50589   0.57134   0.00000  Uiso   1.00
H580   H     0.08756   0.13021   0.50048   0.00000  Uiso   1.00
H581   H     0.15861   0.39438   0.87065   0.00000  Uiso   1.00
H582   H     0.23704   0.67363   0.50952   0.00000  Uiso   1.00
H583   H     0.08053   0.61951   0.62563   0.00000  Uiso   1.00
H584   H     0.04330   0.49836   0.56565   0.00000  Uiso   1.00
H585   H     0.07699   0.62363   0.74121   0.00000  Uiso   1.00
H586   H     0.11418   0.75606   0.56995   0.00000  Uiso   1.00
H587   H     0.01327   0.33325   0.49935   0.00000  Uiso   1.00
H588   H     0.08431   0.59743   0.86952   0.00000  Uiso   1.00
H589   H     0.16275   0.87667   0.50840   0.00000  Uiso   1.00
O590   O     0.02748   0.14774   0.46050   0.00000  Uiso   1.00
O591   O     0.12069   0.49435   0.94615   0.00000  Uiso   1.00
O592   O     0.22360   0.86070   0.47236   0.00000  Uiso   1.00
N593   N     0.07519   0.19463   0.50843   0.00000  Uiso   1.00
N594   N     0.14161   0.44161   0.85452   0.00000  Uiso   1.00
N595   N     0.21494   0.70269   0.51691   0.00000  Uiso   1.00
N596   N     0.03521   0.30389   0.50782   0.00000  Uiso   1.00
N597   N     0.10163   0.55086   0.85391   0.00000  Uiso   1.00
N598   N     0.17496   0.81194   0.51631   0.00000  Uiso   1.00
C599   C     0.14735   0.06252   0.84789   0.00000  Uiso   1.00
C600   C     0.11781   0.10244   0.88108   0.00000  Uiso   1.00
C601   C     0.11520   0.19698   0.90823   0.00000  Uiso   1.00
C602   C     0.08616   0.21916   0.93630   0.00000  Uiso   1.00
C603   C     0.04416   0.29180   0.98767   0.00000  Uiso   1.00
C604   C     0.13569   0.03428   0.78544   0.00000  Uiso   1.00
C605   C     0.14813   0.07151   0.73219   0.00000  Uiso   1.00
C606   C     0.13414   0.03630   0.67976   0.00000  Uiso   1.00
C607   C     0.11993   0.00307   0.58266   0.00000  Uiso   1.00
C608   C     0.15637   0.96263   0.87822   0.00000  Uiso   1.00
C609   C     0.18621   0.93959   0.90296   0.00000  Uiso   1.00
C610   C     0.18964   0.84405   0.92862   0.00000  Uiso   1.00
C611   C     0.20754   0.69957   0.97556   0.00000  Uiso   1.00
C612   C     0.10040   0.93380   0.84945   0.00000  Uiso   1.00
C613   C     0.09231   0.03252   0.88192   0.00000  Uiso   1.00
C614   C     0.06326   0.05456   0.90996   0.00000  Uiso   1.00
C615   C     0.06062   0.14912   0.93715   0.00000  Uiso   1.00
C616   C     0.11019   0.96437   0.78629   0.00000  Uiso   1.00
C617   C     0.09619   0.92909   0.73392   0.00000  Uiso   1.00
C618   C     0.10860   0.96626   0.68061   0.00000  Uiso   1.00
C619   C     0.13088   0.89271   0.87907   0.00000  Uiso   1.00
C620   C     0.13427   0.79718   0.90469   0.00000  Uiso   1.00
C621   C     0.16410   0.77401   0.92946   0.00000  Uiso   1.00
H622   H     0.16720   0.11695   0.84723   0.00000  Uiso   1.00
H623   H     0.13494   0.25107   0.90756   0.00000  Uiso   1.00
H624   H     0.16786   0.12561   0.73155   0.00000  Uiso   1.00
H625   H     0.20593   0.99372   0.90229   0.00000  Uiso   1.00
H626   H     0.08792   0.36895   0.97481   0.00000  Uiso   1.00
H627   H     0.15735   0.10438   0.60368   0.00000  Uiso   1.00
H628   H     0.23763   0.82626   0.96372   0.00000  Uiso   1.00
H629   H     0.08055   0.87936   0.85011   0.00000  Uiso   1.00
H630   H     0.04354   0.00044   0.91061   0.00000  Uiso   1.00
H631   H     0.07646   0.87498   0.73460   0.00000  Uiso   1.00
H632   H     0.11453   0.74309   0.90534   0.00000  Uiso   1.00
H633   H     0.01374   0.16553   0.97728   0.00000  Uiso   1.00
H634   H     0.08317   0.90096   0.60615   0.00000  Uiso   1.00
H635   H     0.16344   0.62284   0.96619   0.00000  Uiso   1.00
O636   O     0.02804   0.35119   0.01577   0.00000  Uiso   1.00
O637   O     0.11913   0.00407   0.52887   0.00000  Uiso   1.00
O638   O     0.22445   0.63919   0.00123   0.00000  Uiso   1.00
N639   N     0.07555   0.30445   0.96710   0.00000  Uiso   1.00
N640   N     0.14045   0.05710   0.62012   0.00000  Uiso   1.00
N641   N     0.21551   0.79707   0.95671   0.00000  Uiso   1.00
N642   N     0.03563   0.19499   0.96843   0.00000  Uiso   1.00
N643   N     0.10053   0.94765   0.62145   0.00000  Uiso   1.00
N644   N     0.17559   0.68762   0.95804   0.00000  Uiso   1.00
C645   C     0.35257   0.56332   0.62664   0.00000  Uiso   1.00
C646   C     0.38225   0.60332   0.59391   0.00000  Uiso   1.00
C647   C     0.38493   0.69782   0.56673   0.00000  Uiso   1.00
C648   C     0.41409   0.72010   0.53912   0.00000  Uiso   1.00
C649   C     0.45630   0.79284   0.48837   0.00000  Uiso   1.00
C650   C     0.36395   0.53527   0.68929   0.00000  Uiso   1.00
C651   C     0.35124   0.57254   0.74232   0.00000  Uiso   1.00
C652   C     0.36499   0.53751   0.79500   0.00000  Uiso   1.00
C653   C     0.37876   0.50454   0.89235   0.00000  Uiso   1.00
C654   C     0.34374   0.46332   0.59624   0.00000  Uiso   1.00
C655   C     0.31403   0.44009   0.57104   0.00000  Uiso   1.00
C656   C     0.31077   0.34447   0.54539   0.00000  Uiso   1.00
C657   C     0.29317   0.19981   0.49826   0.00000  Uiso   1.00
C658   C     0.39958   0.43483   0.62593   0.00000  Uiso   1.00
C659   C     0.40778   0.53353   0.59352   0.00000  Uiso   1.00
C660   C     0.43695   0.55566   0.56594   0.00000  Uiso   1.00
C661   C     0.43967   0.65018   0.53873   0.00000  Uiso   1.00
C662   C     0.38948   0.46548   0.68891   0.00000  Uiso   1.00
C663   C     0.40325   0.43038   0.74153   0.00000  Uiso   1.00
C664   C     0.39057   0.46759   0.79461   0.00000  Uiso   1.00
C665   C     0.36927   0.39353   0.59585   0.00000  Uiso   1.00
C666   C     0.36605   0.29793   0.57024   0.00000  Uiso   1.00
C667   C     0.33635   0.27456   0.54500   0.00000  Uiso   1.00
H668   H     0.33269   0.61765   0.62695   0.00000  Uiso   1.00
H669   H     0.36517   0.75181   0.56704   0.00000  Uiso   1.00
H670   H     0.33148   0.62654   0.74260   0.00000  Uiso   1.00
H671   H     0.29428   0.49411   0.57134   0.00000  Uiso   1.00
H672   H     0.41244   0.86979   0.50048   0.00000  Uiso   1.00
H673   H     0.34139   0.60562   0.87065   0.00000  Uiso   1.00
H674   H     0.26296   0.32637   0.50952   0.00000  Uiso   1.00
H675   H     0.41947   0.38049   0.62563   0.00000  Uiso   1.00
H676   H     0.45670   0.50164   0.56565   0.00000  Uiso   1.00
H677   H     0.42301   0.37637   0.74121   0.00000  Uiso   1.00
H678   H     0.38582   0.24394   0.56995   0.00000  Uiso   1.00
H679   H     0.48673   0.66675   0.49935   0.00000  Uiso   1.00
H680   H     0.41569   0.40257   0.86952   0.00000  Uiso   1.00
H681   H     0.33725   0.12333   0.50840   0.00000  Uiso   1.00
O682   O     0.47252   0.85226   0.46050   0.00000  Uiso   1.00
O683   O     0.37931   0.50565   0.94615   0.00000  Uiso   1.00
O684   O     0.27640   0.13930   0.47236   0.00000  Uiso   1.00
N685   N     0.42481   0.80537   0.50843   0.00000  Uiso   1.00
N686   N     0.35839   0.55839   0.85452   0.00000  Uiso   1.00
N687   N     0.28506   0.29731   0.51691   0.00000  Uiso   1.00
N688   N     0.46479   0.69611   0.50782   0.00000  Uiso   1.00
N689   N     0.39837   0.44914   0.85391   0.00000  Uiso   1.00
N690   N     0.32504   0.18806   0.51631   0.00000  Uiso   1.00
C691   C     0.35265   0.93748   0.84789   0.00000  Uiso   1.00
C692   C     0.38219   0.89756   0.88108   0.00000  Uiso   1.00
C693   C     0.38480   0.80302   0.90823   0.00000  Uiso   1.00
C694   C     0.41384   0.78084   0.93630   0.00000  Uiso   1.00
C695   C     0.45584   0.70820   0.98767   0.00000  Uiso   1.00
C696   C     0.36431   0.96572   0.78544   0.00000  Uiso   1.00
C697   C     0.35187   0.92849   0.73219   0.00000  Uiso   1.00
C698   C     0.36586   0.96370   0.67976   0.00000  Uiso   1.00
C699   C     0.38007   0.99693   0.58266   0.00000  Uiso   1.00
C700   C     0.34363   0.03737   0.87822   0.00000  Uiso   1.00
C701   C     0.31379   0.06041   0.90296   0.00000  Uiso   1.00
C702   C     0.31036   0.15595   0.92862   0.00000  Uiso   1.00
C703   C     0.29246   0.30043   0.97556   0.00000  Uiso   1.00
C704   C     0.39960   0.06620   0.84945   0.00000  Uiso   1.00
C705   C     0.40769   0.96748   0.88192   0.00000  Uiso   1.00
C706   C     0.43674   0.94544   0.90996   0.00000  Uiso   1.00
C707   C     0.43938   0.85088   0.93715   0.00000  Uiso   1.00
C708   C     0.38981   0.03563   0.78629   0.00000  Uiso   1.00
C709   C     0.40381   0.07091   0.73392   0.00000  Uiso   1.00
C710   C     0.39140   0.03374   0.68061   0.00000  Uiso   1.00
C711   C     0.36912   0.10729   0.87907   0.00000  Uiso   1.00
C712   C     0.36573   0.20282   0.90469   0.00000  Uiso   1.00
C713   C     0.33590   0.22599   0.92946   0.00000  Uiso   1.00
H714   H     0.33280   0.88305   0.84723   0.00000  Uiso   1.00
H715   H     0.36506   0.74893   0.90756   0.00000  Uiso   1.00
H716   H     0.33214   0.87439   0.73155   0.00000  Uiso   1.00
H717   H     0.29407   0.00628   0.90229   0.00000  Uiso   1.00
H718   H     0.41208   0.63105   0.97481   0.00000  Uiso   1.00
H719   H     0.34265   0.89562   0.60368   0.00000  Uiso   1.00
H720   H     0.26237   0.17374   0.96372   0.00000  Uiso   1.00
H721   H     0.41945   0.12064   0.85011   0.00000  Uiso   1.00
H722   H     0.45646   0.99956   0.91061   0.00000  Uiso   1.00
H723   H     0.42354   0.12502   0.73460   0.00000  Uiso   1.00
H724   H     0.38547   0.25691   0.90534   0.00000  Uiso   1.00
H725   H     0.48626   0.83447   0.97728   0.00000  Uiso   1.00
H726   H     0.41683   0.09904   0.60615   0.00000  Uiso   1.00
H727   H     0.33656   0.37716   0.96619   0.00000  Uiso   1.00
O728   O     0.47196   0.64881   0.01577   0.00000  Uiso   1.00
O729   O     0.38087   0.99593   0.52887   0.00000  Uiso   1.00
O730   O     0.27555   0.36081   0.00123   0.00000  Uiso   1.00
N731   N     0.42445   0.69555   0.96710   0.00000  Uiso   1.00
N732   N     0.35955   0.94290   0.62012   0.00000  Uiso   1.00
N733   N     0.28449   0.20293   0.95671   0.00000  Uiso   1.00
N734   N     0.46437   0.80501   0.96843   0.00000  Uiso   1.00
N735   N     0.39947   0.05235   0.62145   0.00000  Uiso   1.00
N736   N     0.32441   0.31238   0.95804   0.00000  Uiso   1.00
