data_job_01515
_audit_creation_date              2018-12-19
_audit_creation_method            'Materials Studio'
_symmetry_space_group_name_H-M    'P1'
_symmetry_Int_Tables_number       1
_symmetry_cell_setting            triclinic
loop_
_symmetry_equiv_pos_as_xyz
  x,y,z
_cell_length_a                    30.5683
_cell_length_b                    39.1447
_cell_length_c                    7.4440
_cell_angle_alpha                 90.0000
_cell_angle_beta                  90.0000
_cell_angle_gamma                 90.0000
loop_
_atom_site_label
_atom_site_type_symbol
_atom_site_fract_x
_atom_site_fract_y
_atom_site_fract_z
_atom_site_U_iso_or_equiv
_atom_site_adp_type
_atom_site_occupancy
C1     C     0.13403   0.26551   0.30579   0.00000  Uiso   1.00
C2     C     0.12129   0.22856   0.26724   0.00000  Uiso   1.00
C3     C     0.12361   0.20167   0.38837   0.00000  Uiso   1.00
C4     C     0.11045   0.16979   0.32712   0.00000  Uiso   1.00
C5     C     0.09296   0.11315   0.29402   0.00000  Uiso   1.00
C6     C     0.16824   0.27497   0.16523   0.00000  Uiso   1.00
C7     C     0.21002   0.28709   0.20058   0.00000  Uiso   1.00
C8     C     0.23638   0.29427   0.05345   0.00000  Uiso   1.00
C9     C     0.29177   0.30969   0.86197   0.00000  Uiso   1.00
C10    C     0.09373   0.28696   0.26276   0.00000  Uiso   1.00
C11    C     0.07287   0.30918   0.38010   0.00000  Uiso   1.00
C12    C     0.03650   0.32646   0.31506   0.00000  Uiso   1.00
C13    C     0.97620   0.36050   0.27501   0.00000  Uiso   1.00
C14    C     0.10654   0.25670   0.98163   0.00000  Uiso   1.00
C15    C     0.10636   0.22378   0.09117   0.00000  Uiso   1.00
C16    C     0.09320   0.19192   0.02972   0.00000  Uiso   1.00
C17    C     0.09549   0.16499   0.15074   0.00000  Uiso   1.00
C18    C     0.15331   0.27018   0.98916   0.00000  Uiso   1.00
C19    C     0.17961   0.27734   0.84194   0.00000  Uiso   1.00
C20    C     0.22143   0.28948   0.87707   0.00000  Uiso   1.00
C21    C     0.07880   0.28217   0.08669   0.00000  Uiso   1.00
C22    C     0.04246   0.29942   0.02145   0.00000  Uiso   1.00
C23    C     0.02155   0.32166   0.13868   0.00000  Uiso   1.00
H24    H     0.14566   0.26924   0.44286   0.00000  Uiso   1.00
H25    H     0.13517   0.20539   0.52461   0.00000  Uiso   1.00
H26    H     0.22157   0.29080   0.33685   0.00000  Uiso   1.00
H27    H     0.08443   0.31287   0.51634   0.00000  Uiso   1.00
H28    H     0.11697   0.13249   0.53757   0.00000  Uiso   1.00
H29    H     0.29914   0.31259   0.14168   0.00000  Uiso   1.00
H30    H     0.00997   0.35914   0.52016   0.00000  Uiso   1.00
H31    H     0.09492   0.25297   0.84455   0.00000  Uiso   1.00
H32    H     0.08165   0.18823   0.89346   0.00000  Uiso   1.00
H33    H     0.16805   0.27364   0.70571   0.00000  Uiso   1.00
H34    H     0.03092   0.29572   0.88520   0.00000  Uiso   1.00
H35    H     0.07353   0.11856   0.02531   0.00000  Uiso   1.00
H36    H     0.25571   0.29866   0.62942   0.00000  Uiso   1.00
H37    H     0.96653   0.34522   0.00790   0.00000  Uiso   1.00
O38    O     0.08744   0.08323   0.32439   0.00000  Uiso   1.00
O39    O     0.32645   0.31952   0.80500   0.00000  Uiso   1.00
O40    O     0.94706   0.38059   0.30157   0.00000  Uiso   1.00
N41    N     0.10856   0.13810   0.41031   0.00000  Uiso   1.00
N42    N     0.27888   0.30648   0.04017   0.00000  Uiso   1.00
N43    N     0.00854   0.35001   0.39401   0.00000  Uiso   1.00
N44    N     0.08518   0.13060   0.13466   0.00000  Uiso   1.00
N45    N     0.25551   0.29898   0.76453   0.00000  Uiso   1.00
N46    N     0.98517   0.34251   0.11836   0.00000  Uiso   1.00
C47    C     0.13403   0.76551   0.80579   0.00000  Uiso   1.00
C48    C     0.12129   0.72856   0.76724   0.00000  Uiso   1.00
C49    C     0.12361   0.70167   0.88837   0.00000  Uiso   1.00
C50    C     0.11045   0.66979   0.82712   0.00000  Uiso   1.00
C51    C     0.09296   0.61315   0.79402   0.00000  Uiso   1.00
C52    C     0.16824   0.77497   0.66523   0.00000  Uiso   1.00
C53    C     0.21002   0.78709   0.70058   0.00000  Uiso   1.00
C54    C     0.23638   0.79427   0.55345   0.00000  Uiso   1.00
C55    C     0.29177   0.80969   0.36197   0.00000  Uiso   1.00
C56    C     0.09373   0.78696   0.76276   0.00000  Uiso   1.00
C57    C     0.07287   0.80918   0.88010   0.00000  Uiso   1.00
C58    C     0.03650   0.82646   0.81506   0.00000  Uiso   1.00
C59    C     0.97620   0.86050   0.77501   0.00000  Uiso   1.00
C60    C     0.10654   0.75670   0.48163   0.00000  Uiso   1.00
C61    C     0.10636   0.72378   0.59117   0.00000  Uiso   1.00
C62    C     0.09320   0.69192   0.52972   0.00000  Uiso   1.00
C63    C     0.09549   0.66499   0.65074   0.00000  Uiso   1.00
C64    C     0.15331   0.77018   0.48916   0.00000  Uiso   1.00
C65    C     0.17961   0.77734   0.34194   0.00000  Uiso   1.00
C66    C     0.22143   0.78948   0.37707   0.00000  Uiso   1.00
C67    C     0.07880   0.78217   0.58669   0.00000  Uiso   1.00
C68    C     0.04246   0.79942   0.52145   0.00000  Uiso   1.00
C69    C     0.02155   0.82166   0.63868   0.00000  Uiso   1.00
H70    H     0.14566   0.76924   0.94286   0.00000  Uiso   1.00
H71    H     0.13517   0.70539   0.02461   0.00000  Uiso   1.00
H72    H     0.22157   0.79080   0.83685   0.00000  Uiso   1.00
H73    H     0.08443   0.81287   0.01634   0.00000  Uiso   1.00
H74    H     0.11697   0.63249   0.03757   0.00000  Uiso   1.00
H75    H     0.29914   0.81259   0.64168   0.00000  Uiso   1.00
H76    H     0.00997   0.85914   0.02016   0.00000  Uiso   1.00
H77    H     0.09492   0.75297   0.34455   0.00000  Uiso   1.00
H78    H     0.08165   0.68823   0.39346   0.00000  Uiso   1.00
H79    H     0.16805   0.77364   0.20571   0.00000  Uiso   1.00
H80    H     0.03092   0.79572   0.38520   0.00000  Uiso   1.00
H81    H     0.07353   0.61856   0.52531   0.00000  Uiso   1.00
H82    H     0.25571   0.79866   0.12942   0.00000  Uiso   1.00
H83    H     0.96653   0.84522   0.50790   0.00000  Uiso   1.00
O84    O     0.08744   0.58323   0.82439   0.00000  Uiso   1.00
O85    O     0.32645   0.81952   0.30500   0.00000  Uiso   1.00
O86    O     0.94706   0.88059   0.80157   0.00000  Uiso   1.00
N87    N     0.10856   0.63810   0.91031   0.00000  Uiso   1.00
N88    N     0.27888   0.80648   0.54017   0.00000  Uiso   1.00
N89    N     0.00854   0.85001   0.89401   0.00000  Uiso   1.00
N90    N     0.08518   0.63060   0.63466   0.00000  Uiso   1.00
N91    N     0.25551   0.79898   0.26453   0.00000  Uiso   1.00
N92    N     0.98517   0.84251   0.61836   0.00000  Uiso   1.00
C93    C     0.63403   0.26551   0.80579   0.00000  Uiso   1.00
C94    C     0.62129   0.22856   0.76724   0.00000  Uiso   1.00
C95    C     0.62361   0.20167   0.88837   0.00000  Uiso   1.00
C96    C     0.61045   0.16979   0.82712   0.00000  Uiso   1.00
C97    C     0.59296   0.11315   0.79402   0.00000  Uiso   1.00
C98    C     0.66824   0.27497   0.66523   0.00000  Uiso   1.00
C99    C     0.71002   0.28709   0.70058   0.00000  Uiso   1.00
C100   C     0.73638   0.29427   0.55345   0.00000  Uiso   1.00
C101   C     0.79177   0.30969   0.36197   0.00000  Uiso   1.00
C102   C     0.59373   0.28696   0.76276   0.00000  Uiso   1.00
C103   C     0.57287   0.30918   0.88010   0.00000  Uiso   1.00
C104   C     0.53650   0.32646   0.81506   0.00000  Uiso   1.00
C105   C     0.47620   0.36050   0.77501   0.00000  Uiso   1.00
C106   C     0.60654   0.25670   0.48163   0.00000  Uiso   1.00
C107   C     0.60636   0.22378   0.59117   0.00000  Uiso   1.00
C108   C     0.59320   0.19192   0.52972   0.00000  Uiso   1.00
C109   C     0.59549   0.16499   0.65074   0.00000  Uiso   1.00
C110   C     0.65331   0.27018   0.48916   0.00000  Uiso   1.00
C111   C     0.67961   0.27734   0.34194   0.00000  Uiso   1.00
C112   C     0.72143   0.28948   0.37707   0.00000  Uiso   1.00
C113   C     0.57880   0.28217   0.58669   0.00000  Uiso   1.00
C114   C     0.54246   0.29942   0.52145   0.00000  Uiso   1.00
C115   C     0.52155   0.32166   0.63868   0.00000  Uiso   1.00
H116   H     0.64566   0.26924   0.94286   0.00000  Uiso   1.00
H117   H     0.63517   0.20539   0.02461   0.00000  Uiso   1.00
H118   H     0.72157   0.29080   0.83685   0.00000  Uiso   1.00
H119   H     0.58443   0.31287   0.01634   0.00000  Uiso   1.00
H120   H     0.61697   0.13249   0.03757   0.00000  Uiso   1.00
H121   H     0.79914   0.31259   0.64168   0.00000  Uiso   1.00
H122   H     0.50997   0.35914   0.02016   0.00000  Uiso   1.00
H123   H     0.59492   0.25297   0.34455   0.00000  Uiso   1.00
H124   H     0.58165   0.18823   0.39346   0.00000  Uiso   1.00
H125   H     0.66805   0.27364   0.20571   0.00000  Uiso   1.00
H126   H     0.53092   0.29572   0.38520   0.00000  Uiso   1.00
H127   H     0.57353   0.11856   0.52531   0.00000  Uiso   1.00
H128   H     0.75571   0.29866   0.12942   0.00000  Uiso   1.00
H129   H     0.46653   0.34522   0.50790   0.00000  Uiso   1.00
O130   O     0.58744   0.08323   0.82439   0.00000  Uiso   1.00
O131   O     0.82645   0.31952   0.30500   0.00000  Uiso   1.00
O132   O     0.44706   0.38059   0.80157   0.00000  Uiso   1.00
N133   N     0.60856   0.13810   0.91031   0.00000  Uiso   1.00
N134   N     0.77888   0.30648   0.54017   0.00000  Uiso   1.00
N135   N     0.50854   0.35001   0.89401   0.00000  Uiso   1.00
N136   N     0.58518   0.13060   0.63466   0.00000  Uiso   1.00
N137   N     0.75551   0.29898   0.26453   0.00000  Uiso   1.00
N138   N     0.48517   0.34251   0.61836   0.00000  Uiso   1.00
C139   C     0.63403   0.76551   0.30579   0.00000  Uiso   1.00
C140   C     0.62129   0.72856   0.26724   0.00000  Uiso   1.00
C141   C     0.62361   0.70167   0.38837   0.00000  Uiso   1.00
C142   C     0.61045   0.66979   0.32712   0.00000  Uiso   1.00
C143   C     0.59296   0.61315   0.29402   0.00000  Uiso   1.00
C144   C     0.66824   0.77497   0.16523   0.00000  Uiso   1.00
C145   C     0.71002   0.78709   0.20058   0.00000  Uiso   1.00
C146   C     0.73638   0.79427   0.05345   0.00000  Uiso   1.00
C147   C     0.79177   0.80969   0.86197   0.00000  Uiso   1.00
C148   C     0.59373   0.78696   0.26276   0.00000  Uiso   1.00
C149   C     0.57287   0.80918   0.38010   0.00000  Uiso   1.00
C150   C     0.53650   0.82646   0.31506   0.00000  Uiso   1.00
C151   C     0.47620   0.86050   0.27501   0.00000  Uiso   1.00
C152   C     0.60654   0.75670   0.98163   0.00000  Uiso   1.00
C153   C     0.60636   0.72378   0.09117   0.00000  Uiso   1.00
C154   C     0.59320   0.69192   0.02972   0.00000  Uiso   1.00
C155   C     0.59549   0.66499   0.15074   0.00000  Uiso   1.00
C156   C     0.65331   0.77018   0.98916   0.00000  Uiso   1.00
C157   C     0.67961   0.77734   0.84194   0.00000  Uiso   1.00
C158   C     0.72143   0.78948   0.87707   0.00000  Uiso   1.00
C159   C     0.57880   0.78217   0.08669   0.00000  Uiso   1.00
C160   C     0.54246   0.79942   0.02145   0.00000  Uiso   1.00
C161   C     0.52155   0.82166   0.13868   0.00000  Uiso   1.00
H162   H     0.64566   0.76924   0.44286   0.00000  Uiso   1.00
H163   H     0.63517   0.70539   0.52461   0.00000  Uiso   1.00
H164   H     0.72157   0.79080   0.33685   0.00000  Uiso   1.00
H165   H     0.58443   0.81287   0.51634   0.00000  Uiso   1.00
H166   H     0.61697   0.63249   0.53757   0.00000  Uiso   1.00
H167   H     0.79914   0.81259   0.14168   0.00000  Uiso   1.00
H168   H     0.50997   0.85914   0.52016   0.00000  Uiso   1.00
H169   H     0.59492   0.75297   0.84455   0.00000  Uiso   1.00
H170   H     0.58165   0.68823   0.89346   0.00000  Uiso   1.00
H171   H     0.66805   0.77364   0.70571   0.00000  Uiso   1.00
H172   H     0.53092   0.79572   0.88520   0.00000  Uiso   1.00
H173   H     0.57353   0.61856   0.02531   0.00000  Uiso   1.00
H174   H     0.75571   0.79866   0.62942   0.00000  Uiso   1.00
H175   H     0.46653   0.84522   0.00790   0.00000  Uiso   1.00
O176   O     0.58744   0.58323   0.32439   0.00000  Uiso   1.00
O177   O     0.82645   0.81952   0.80500   0.00000  Uiso   1.00
O178   O     0.44706   0.88059   0.30157   0.00000  Uiso   1.00
N179   N     0.60856   0.63810   0.41031   0.00000  Uiso   1.00
N180   N     0.77888   0.80648   0.04017   0.00000  Uiso   1.00
N181   N     0.50854   0.85001   0.39401   0.00000  Uiso   1.00
N182   N     0.58518   0.63060   0.13466   0.00000  Uiso   1.00
N183   N     0.75551   0.79898   0.76453   0.00000  Uiso   1.00
N184   N     0.48517   0.84251   0.11836   0.00000  Uiso   1.00
C185   C     0.86597   0.73449   0.30579   0.00000  Uiso   1.00
C186   C     0.87871   0.77144   0.26724   0.00000  Uiso   1.00
C187   C     0.87639   0.79833   0.38837   0.00000  Uiso   1.00
C188   C     0.88955   0.83021   0.32712   0.00000  Uiso   1.00
C189   C     0.90704   0.88685   0.29402   0.00000  Uiso   1.00
C190   C     0.83176   0.72503   0.16523   0.00000  Uiso   1.00
C191   C     0.78998   0.71291   0.20058   0.00000  Uiso   1.00
C192   C     0.76362   0.70573   0.05345   0.00000  Uiso   1.00
C193   C     0.70823   0.69031   0.86197   0.00000  Uiso   1.00
C194   C     0.90627   0.71304   0.26276   0.00000  Uiso   1.00
C195   C     0.92713   0.69082   0.38010   0.00000  Uiso   1.00
C196   C     0.96350   0.67354   0.31506   0.00000  Uiso   1.00
C197   C     0.02380   0.63950   0.27501   0.00000  Uiso   1.00
C198   C     0.89346   0.74330   0.98163   0.00000  Uiso   1.00
C199   C     0.89364   0.77622   0.09117   0.00000  Uiso   1.00
C200   C     0.90680   0.80808   0.02972   0.00000  Uiso   1.00
C201   C     0.90451   0.83501   0.15074   0.00000  Uiso   1.00
C202   C     0.84669   0.72982   0.98916   0.00000  Uiso   1.00
C203   C     0.82039   0.72266   0.84194   0.00000  Uiso   1.00
C204   C     0.77857   0.71052   0.87707   0.00000  Uiso   1.00
C205   C     0.92120   0.71783   0.08669   0.00000  Uiso   1.00
C206   C     0.95754   0.70058   0.02145   0.00000  Uiso   1.00
C207   C     0.97845   0.67834   0.13868   0.00000  Uiso   1.00
H208   H     0.85434   0.73076   0.44286   0.00000  Uiso   1.00
H209   H     0.86483   0.79461   0.52461   0.00000  Uiso   1.00
H210   H     0.77843   0.70920   0.33685   0.00000  Uiso   1.00
H211   H     0.91557   0.68713   0.51634   0.00000  Uiso   1.00
H212   H     0.88303   0.86751   0.53757   0.00000  Uiso   1.00
H213   H     0.70086   0.68741   0.14168   0.00000  Uiso   1.00
H214   H     0.99003   0.64086   0.52016   0.00000  Uiso   1.00
H215   H     0.90508   0.74703   0.84455   0.00000  Uiso   1.00
H216   H     0.91835   0.81177   0.89346   0.00000  Uiso   1.00
H217   H     0.83195   0.72636   0.70571   0.00000  Uiso   1.00
H218   H     0.96908   0.70428   0.88520   0.00000  Uiso   1.00
H219   H     0.92647   0.88144   0.02531   0.00000  Uiso   1.00
H220   H     0.74429   0.70134   0.62942   0.00000  Uiso   1.00
H221   H     0.03347   0.65478   0.00790   0.00000  Uiso   1.00
O222   O     0.91256   0.91677   0.32439   0.00000  Uiso   1.00
O223   O     0.67355   0.68048   0.80500   0.00000  Uiso   1.00
O224   O     0.05294   0.61941   0.30157   0.00000  Uiso   1.00
N225   N     0.89144   0.86190   0.41031   0.00000  Uiso   1.00
N226   N     0.72112   0.69352   0.04017   0.00000  Uiso   1.00
N227   N     0.99146   0.64999   0.39401   0.00000  Uiso   1.00
N228   N     0.91482   0.86940   0.13466   0.00000  Uiso   1.00
N229   N     0.74449   0.70102   0.76453   0.00000  Uiso   1.00
N230   N     0.01483   0.65749   0.11836   0.00000  Uiso   1.00
C231   C     0.86597   0.23449   0.80579   0.00000  Uiso   1.00
C232   C     0.87871   0.27144   0.76724   0.00000  Uiso   1.00
C233   C     0.87639   0.29833   0.88837   0.00000  Uiso   1.00
C234   C     0.88955   0.33021   0.82712   0.00000  Uiso   1.00
C235   C     0.90704   0.38685   0.79402   0.00000  Uiso   1.00
C236   C     0.83176   0.22503   0.66523   0.00000  Uiso   1.00
C237   C     0.78998   0.21291   0.70058   0.00000  Uiso   1.00
C238   C     0.76362   0.20573   0.55345   0.00000  Uiso   1.00
C239   C     0.70823   0.19031   0.36197   0.00000  Uiso   1.00
C240   C     0.90627   0.21304   0.76276   0.00000  Uiso   1.00
C241   C     0.92713   0.19082   0.88010   0.00000  Uiso   1.00
C242   C     0.96350   0.17354   0.81506   0.00000  Uiso   1.00
C243   C     0.02380   0.13950   0.77501   0.00000  Uiso   1.00
C244   C     0.89346   0.24330   0.48163   0.00000  Uiso   1.00
C245   C     0.89364   0.27622   0.59117   0.00000  Uiso   1.00
C246   C     0.90680   0.30808   0.52972   0.00000  Uiso   1.00
C247   C     0.90451   0.33501   0.65074   0.00000  Uiso   1.00
C248   C     0.84669   0.22982   0.48916   0.00000  Uiso   1.00
C249   C     0.82039   0.22266   0.34194   0.00000  Uiso   1.00
C250   C     0.77857   0.21052   0.37707   0.00000  Uiso   1.00
C251   C     0.92120   0.21783   0.58669   0.00000  Uiso   1.00
C252   C     0.95754   0.20058   0.52145   0.00000  Uiso   1.00
C253   C     0.97845   0.17834   0.63868   0.00000  Uiso   1.00
H254   H     0.85434   0.23076   0.94286   0.00000  Uiso   1.00
H255   H     0.86483   0.29461   0.02461   0.00000  Uiso   1.00
H256   H     0.77843   0.20920   0.83685   0.00000  Uiso   1.00
H257   H     0.91557   0.18713   0.01634   0.00000  Uiso   1.00
H258   H     0.88303   0.36751   0.03757   0.00000  Uiso   1.00
H259   H     0.70086   0.18741   0.64168   0.00000  Uiso   1.00
H260   H     0.99003   0.14086   0.02016   0.00000  Uiso   1.00
H261   H     0.90508   0.24703   0.34455   0.00000  Uiso   1.00
H262   H     0.91835   0.31177   0.39346   0.00000  Uiso   1.00
H263   H     0.83195   0.22636   0.20571   0.00000  Uiso   1.00
H264   H     0.96908   0.20428   0.38520   0.00000  Uiso   1.00
H265   H     0.92647   0.38144   0.52531   0.00000  Uiso   1.00
H266   H     0.74429   0.20134   0.12942   0.00000  Uiso   1.00
H267   H     0.03347   0.15478   0.50790   0.00000  Uiso   1.00
O268   O     0.91256   0.41677   0.82439   0.00000  Uiso   1.00
O269   O     0.67355   0.18048   0.30500   0.00000  Uiso   1.00
O270   O     0.05294   0.11941   0.80157   0.00000  Uiso   1.00
N271   N     0.89144   0.36190   0.91031   0.00000  Uiso   1.00
N272   N     0.72112   0.19352   0.54017   0.00000  Uiso   1.00
N273   N     0.99146   0.14999   0.89401   0.00000  Uiso   1.00
N274   N     0.91482   0.36940   0.63466   0.00000  Uiso   1.00
N275   N     0.74449   0.20102   0.26453   0.00000  Uiso   1.00
N276   N     0.01483   0.15749   0.61836   0.00000  Uiso   1.00
C277   C     0.36597   0.73449   0.80579   0.00000  Uiso   1.00
C278   C     0.37871   0.77144   0.76724   0.00000  Uiso   1.00
C279   C     0.37639   0.79833   0.88837   0.00000  Uiso   1.00
C280   C     0.38955   0.83021   0.82712   0.00000  Uiso   1.00
C281   C     0.40704   0.88685   0.79402   0.00000  Uiso   1.00
C282   C     0.33176   0.72503   0.66523   0.00000  Uiso   1.00
C283   C     0.28998   0.71291   0.70058   0.00000  Uiso   1.00
C284   C     0.26362   0.70573   0.55345   0.00000  Uiso   1.00
C285   C     0.20823   0.69031   0.36197   0.00000  Uiso   1.00
C286   C     0.40627   0.71304   0.76276   0.00000  Uiso   1.00
C287   C     0.42713   0.69082   0.88010   0.00000  Uiso   1.00
C288   C     0.46350   0.67354   0.81506   0.00000  Uiso   1.00
C289   C     0.52380   0.63950   0.77501   0.00000  Uiso   1.00
C290   C     0.39346   0.74330   0.48163   0.00000  Uiso   1.00
C291   C     0.39364   0.77622   0.59117   0.00000  Uiso   1.00
C292   C     0.40680   0.80808   0.52972   0.00000  Uiso   1.00
C293   C     0.40451   0.83501   0.65074   0.00000  Uiso   1.00
C294   C     0.34669   0.72982   0.48916   0.00000  Uiso   1.00
C295   C     0.32039   0.72266   0.34194   0.00000  Uiso   1.00
C296   C     0.27857   0.71052   0.37707   0.00000  Uiso   1.00
C297   C     0.42120   0.71783   0.58669   0.00000  Uiso   1.00
C298   C     0.45754   0.70058   0.52145   0.00000  Uiso   1.00
C299   C     0.47845   0.67834   0.63868   0.00000  Uiso   1.00
H300   H     0.35434   0.73076   0.94286   0.00000  Uiso   1.00
H301   H     0.36483   0.79461   0.02461   0.00000  Uiso   1.00
H302   H     0.27843   0.70920   0.83685   0.00000  Uiso   1.00
H303   H     0.41557   0.68713   0.01634   0.00000  Uiso   1.00
H304   H     0.38303   0.86751   0.03757   0.00000  Uiso   1.00
H305   H     0.20086   0.68741   0.64168   0.00000  Uiso   1.00
H306   H     0.49003   0.64086   0.02016   0.00000  Uiso   1.00
H307   H     0.40508   0.74703   0.34455   0.00000  Uiso   1.00
H308   H     0.41835   0.81177   0.39346   0.00000  Uiso   1.00
H309   H     0.33195   0.72636   0.20571   0.00000  Uiso   1.00
H310   H     0.46908   0.70428   0.38520   0.00000  Uiso   1.00
H311   H     0.42647   0.88144   0.52531   0.00000  Uiso   1.00
H312   H     0.24429   0.70134   0.12942   0.00000  Uiso   1.00
H313   H     0.53347   0.65478   0.50790   0.00000  Uiso   1.00
O314   O     0.41256   0.91677   0.82439   0.00000  Uiso   1.00
O315   O     0.17355   0.68048   0.30500   0.00000  Uiso   1.00
O316   O     0.55294   0.61941   0.80157   0.00000  Uiso   1.00
N317   N     0.39144   0.86190   0.91031   0.00000  Uiso   1.00
N318   N     0.22112   0.69352   0.54017   0.00000  Uiso   1.00
N319   N     0.49146   0.64999   0.89401   0.00000  Uiso   1.00
N320   N     0.41482   0.86940   0.63466   0.00000  Uiso   1.00
N321   N     0.24449   0.70102   0.26453   0.00000  Uiso   1.00
N322   N     0.51483   0.65749   0.61836   0.00000  Uiso   1.00
C323   C     0.36597   0.23449   0.30579   0.00000  Uiso   1.00
C324   C     0.37871   0.27144   0.26724   0.00000  Uiso   1.00
C325   C     0.37639   0.29833   0.38837   0.00000  Uiso   1.00
C326   C     0.38955   0.33021   0.32712   0.00000  Uiso   1.00
C327   C     0.40704   0.38685   0.29402   0.00000  Uiso   1.00
C328   C     0.33176   0.22503   0.16523   0.00000  Uiso   1.00
C329   C     0.28998   0.21291   0.20058   0.00000  Uiso   1.00
C330   C     0.26362   0.20573   0.05345   0.00000  Uiso   1.00
C331   C     0.20823   0.19031   0.86197   0.00000  Uiso   1.00
C332   C     0.40627   0.21304   0.26276   0.00000  Uiso   1.00
C333   C     0.42713   0.19082   0.38010   0.00000  Uiso   1.00
C334   C     0.46350   0.17354   0.31506   0.00000  Uiso   1.00
C335   C     0.52380   0.13950   0.27501   0.00000  Uiso   1.00
C336   C     0.39346   0.24330   0.98163   0.00000  Uiso   1.00
C337   C     0.39364   0.27622   0.09117   0.00000  Uiso   1.00
C338   C     0.40680   0.30808   0.02972   0.00000  Uiso   1.00
C339   C     0.40451   0.33501   0.15074   0.00000  Uiso   1.00
C340   C     0.34669   0.22982   0.98916   0.00000  Uiso   1.00
C341   C     0.32039   0.22266   0.84194   0.00000  Uiso   1.00
C342   C     0.27857   0.21052   0.87707   0.00000  Uiso   1.00
C343   C     0.42120   0.21783   0.08669   0.00000  Uiso   1.00
C344   C     0.45754   0.20058   0.02145   0.00000  Uiso   1.00
C345   C     0.47845   0.17834   0.13868   0.00000  Uiso   1.00
H346   H     0.35434   0.23076   0.44286   0.00000  Uiso   1.00
H347   H     0.36483   0.29461   0.52461   0.00000  Uiso   1.00
H348   H     0.27843   0.20920   0.33685   0.00000  Uiso   1.00
H349   H     0.41557   0.18713   0.51634   0.00000  Uiso   1.00
H350   H     0.38303   0.36751   0.53757   0.00000  Uiso   1.00
H351   H     0.20086   0.18741   0.14168   0.00000  Uiso   1.00
H352   H     0.49003   0.14086   0.52016   0.00000  Uiso   1.00
H353   H     0.40508   0.24703   0.84455   0.00000  Uiso   1.00
H354   H     0.41835   0.31177   0.89346   0.00000  Uiso   1.00
H355   H     0.33195   0.22636   0.70571   0.00000  Uiso   1.00
H356   H     0.46908   0.20428   0.88520   0.00000  Uiso   1.00
H357   H     0.42647   0.38144   0.02531   0.00000  Uiso   1.00
H358   H     0.24429   0.20134   0.62942   0.00000  Uiso   1.00
H359   H     0.53347   0.15478   0.00790   0.00000  Uiso   1.00
O360   O     0.41256   0.41677   0.32439   0.00000  Uiso   1.00
O361   O     0.17355   0.18048   0.80500   0.00000  Uiso   1.00
O362   O     0.55294   0.11941   0.30157   0.00000  Uiso   1.00
N363   N     0.39144   0.36190   0.41031   0.00000  Uiso   1.00
N364   N     0.22112   0.19352   0.04017   0.00000  Uiso   1.00
N365   N     0.49146   0.14999   0.39401   0.00000  Uiso   1.00
N366   N     0.41482   0.36940   0.13466   0.00000  Uiso   1.00
N367   N     0.24449   0.20102   0.76453   0.00000  Uiso   1.00
N368   N     0.51483   0.15749   0.11836   0.00000  Uiso   1.00
C369   C     0.38403   0.98449   0.55579   0.00000  Uiso   1.00
C370   C     0.37129   0.02144   0.51724   0.00000  Uiso   1.00
C371   C     0.37361   0.04833   0.63837   0.00000  Uiso   1.00
C372   C     0.36045   0.08021   0.57712   0.00000  Uiso   1.00
C373   C     0.34296   0.13685   0.54402   0.00000  Uiso   1.00
C374   C     0.41824   0.97503   0.41523   0.00000  Uiso   1.00
C375   C     0.46002   0.96291   0.45058   0.00000  Uiso   1.00
C376   C     0.48638   0.95573   0.30345   0.00000  Uiso   1.00
C377   C     0.54177   0.94031   0.11197   0.00000  Uiso   1.00
C378   C     0.34373   0.96304   0.51276   0.00000  Uiso   1.00
C379   C     0.32287   0.94082   0.63010   0.00000  Uiso   1.00
C380   C     0.28650   0.92354   0.56506   0.00000  Uiso   1.00
C381   C     0.22620   0.88950   0.52501   0.00000  Uiso   1.00
C382   C     0.35654   0.99330   0.23163   0.00000  Uiso   1.00
C383   C     0.35636   0.02622   0.34117   0.00000  Uiso   1.00
C384   C     0.34320   0.05808   0.27972   0.00000  Uiso   1.00
C385   C     0.34549   0.08501   0.40074   0.00000  Uiso   1.00
C386   C     0.40331   0.97982   0.23916   0.00000  Uiso   1.00
C387   C     0.42961   0.97266   0.09194   0.00000  Uiso   1.00
C388   C     0.47143   0.96052   0.12707   0.00000  Uiso   1.00
C389   C     0.32880   0.96783   0.33669   0.00000  Uiso   1.00
C390   C     0.29246   0.95058   0.27145   0.00000  Uiso   1.00
C391   C     0.27155   0.92834   0.38868   0.00000  Uiso   1.00
H392   H     0.39566   0.98076   0.69286   0.00000  Uiso   1.00
H393   H     0.38517   0.04461   0.77461   0.00000  Uiso   1.00
H394   H     0.47157   0.95920   0.58685   0.00000  Uiso   1.00
H395   H     0.33443   0.93713   0.76634   0.00000  Uiso   1.00
H396   H     0.36697   0.11751   0.78757   0.00000  Uiso   1.00
H397   H     0.54914   0.93741   0.39168   0.00000  Uiso   1.00
H398   H     0.25997   0.89086   0.77016   0.00000  Uiso   1.00
H399   H     0.34492   0.99703   0.09455   0.00000  Uiso   1.00
H400   H     0.33165   0.06177   0.14346   0.00000  Uiso   1.00
H401   H     0.41805   0.97636   0.95571   0.00000  Uiso   1.00
H402   H     0.28092   0.95428   0.13520   0.00000  Uiso   1.00
H403   H     0.32353   0.13144   0.27531   0.00000  Uiso   1.00
H404   H     0.50571   0.95134   0.87942   0.00000  Uiso   1.00
H405   H     0.21653   0.90478   0.25790   0.00000  Uiso   1.00
O406   O     0.33744   0.16677   0.57439   0.00000  Uiso   1.00
O407   O     0.57645   0.93048   0.05500   0.00000  Uiso   1.00
O408   O     0.19706   0.86941   0.55157   0.00000  Uiso   1.00
N409   N     0.35856   0.11190   0.66031   0.00000  Uiso   1.00
N410   N     0.52888   0.94352   0.29017   0.00000  Uiso   1.00
N411   N     0.25854   0.89999   0.64401   0.00000  Uiso   1.00
N412   N     0.33518   0.11940   0.38466   0.00000  Uiso   1.00
N413   N     0.50551   0.95102   0.01453   0.00000  Uiso   1.00
N414   N     0.23517   0.90749   0.36836   0.00000  Uiso   1.00
C415   C     0.38403   0.48449   0.05579   0.00000  Uiso   1.00
C416   C     0.37129   0.52144   0.01724   0.00000  Uiso   1.00
C417   C     0.37361   0.54833   0.13837   0.00000  Uiso   1.00
C418   C     0.36045   0.58021   0.07712   0.00000  Uiso   1.00
C419   C     0.34296   0.63685   0.04402   0.00000  Uiso   1.00
C420   C     0.41824   0.47503   0.91523   0.00000  Uiso   1.00
C421   C     0.46002   0.46291   0.95058   0.00000  Uiso   1.00
C422   C     0.48638   0.45573   0.80345   0.00000  Uiso   1.00
C423   C     0.54177   0.44031   0.61197   0.00000  Uiso   1.00
C424   C     0.34373   0.46304   0.01276   0.00000  Uiso   1.00
C425   C     0.32287   0.44082   0.13010   0.00000  Uiso   1.00
C426   C     0.28650   0.42354   0.06506   0.00000  Uiso   1.00
C427   C     0.22620   0.38950   0.02501   0.00000  Uiso   1.00
C428   C     0.35654   0.49330   0.73163   0.00000  Uiso   1.00
C429   C     0.35636   0.52622   0.84117   0.00000  Uiso   1.00
C430   C     0.34320   0.55808   0.77972   0.00000  Uiso   1.00
C431   C     0.34549   0.58501   0.90074   0.00000  Uiso   1.00
C432   C     0.40331   0.47982   0.73916   0.00000  Uiso   1.00
C433   C     0.42961   0.47266   0.59194   0.00000  Uiso   1.00
C434   C     0.47143   0.46052   0.62707   0.00000  Uiso   1.00
C435   C     0.32880   0.46783   0.83669   0.00000  Uiso   1.00
C436   C     0.29246   0.45058   0.77145   0.00000  Uiso   1.00
C437   C     0.27155   0.42834   0.88868   0.00000  Uiso   1.00
H438   H     0.39566   0.48076   0.19286   0.00000  Uiso   1.00
H439   H     0.38517   0.54461   0.27461   0.00000  Uiso   1.00
H440   H     0.47157   0.45920   0.08685   0.00000  Uiso   1.00
H441   H     0.33443   0.43713   0.26634   0.00000  Uiso   1.00
H442   H     0.36697   0.61751   0.28757   0.00000  Uiso   1.00
H443   H     0.54914   0.43741   0.89168   0.00000  Uiso   1.00
H444   H     0.25997   0.39086   0.27016   0.00000  Uiso   1.00
H445   H     0.34492   0.49703   0.59455   0.00000  Uiso   1.00
H446   H     0.33165   0.56177   0.64346   0.00000  Uiso   1.00
H447   H     0.41805   0.47636   0.45571   0.00000  Uiso   1.00
H448   H     0.28092   0.45428   0.63520   0.00000  Uiso   1.00
H449   H     0.32353   0.63144   0.77531   0.00000  Uiso   1.00
H450   H     0.50571   0.45134   0.37942   0.00000  Uiso   1.00
H451   H     0.21653   0.40478   0.75790   0.00000  Uiso   1.00
O452   O     0.33744   0.66677   0.07439   0.00000  Uiso   1.00
O453   O     0.57645   0.43048   0.55500   0.00000  Uiso   1.00
O454   O     0.19706   0.36941   0.05157   0.00000  Uiso   1.00
N455   N     0.35856   0.61190   0.16031   0.00000  Uiso   1.00
N456   N     0.52888   0.44352   0.79017   0.00000  Uiso   1.00
N457   N     0.25854   0.39999   0.14401   0.00000  Uiso   1.00
N458   N     0.33518   0.61940   0.88466   0.00000  Uiso   1.00
N459   N     0.50551   0.45102   0.51453   0.00000  Uiso   1.00
N460   N     0.23517   0.40749   0.86836   0.00000  Uiso   1.00
C461   C     0.88403   0.98449   0.05579   0.00000  Uiso   1.00
C462   C     0.87129   0.02144   0.01724   0.00000  Uiso   1.00
C463   C     0.87361   0.04833   0.13837   0.00000  Uiso   1.00
C464   C     0.86045   0.08021   0.07712   0.00000  Uiso   1.00
C465   C     0.84296   0.13685   0.04402   0.00000  Uiso   1.00
C466   C     0.91824   0.97503   0.91523   0.00000  Uiso   1.00
C467   C     0.96002   0.96291   0.95058   0.00000  Uiso   1.00
C468   C     0.98638   0.95573   0.80345   0.00000  Uiso   1.00
C469   C     0.04177   0.94031   0.61197   0.00000  Uiso   1.00
C470   C     0.84373   0.96304   0.01276   0.00000  Uiso   1.00
C471   C     0.82287   0.94082   0.13010   0.00000  Uiso   1.00
C472   C     0.78650   0.92354   0.06506   0.00000  Uiso   1.00
C473   C     0.72620   0.88950   0.02501   0.00000  Uiso   1.00
C474   C     0.85654   0.99330   0.73163   0.00000  Uiso   1.00
C475   C     0.85636   0.02622   0.84117   0.00000  Uiso   1.00
C476   C     0.84320   0.05808   0.77972   0.00000  Uiso   1.00
C477   C     0.84549   0.08501   0.90074   0.00000  Uiso   1.00
C478   C     0.90331   0.97982   0.73916   0.00000  Uiso   1.00
C479   C     0.92961   0.97266   0.59194   0.00000  Uiso   1.00
C480   C     0.97143   0.96052   0.62707   0.00000  Uiso   1.00
C481   C     0.82880   0.96783   0.83669   0.00000  Uiso   1.00
C482   C     0.79246   0.95058   0.77145   0.00000  Uiso   1.00
C483   C     0.77155   0.92834   0.88868   0.00000  Uiso   1.00
H484   H     0.89566   0.98076   0.19286   0.00000  Uiso   1.00
H485   H     0.88517   0.04461   0.27461   0.00000  Uiso   1.00
H486   H     0.97157   0.95920   0.08685   0.00000  Uiso   1.00
H487   H     0.83443   0.93713   0.26634   0.00000  Uiso   1.00
H488   H     0.86697   0.11751   0.28757   0.00000  Uiso   1.00
H489   H     0.04914   0.93741   0.89168   0.00000  Uiso   1.00
H490   H     0.75997   0.89086   0.27016   0.00000  Uiso   1.00
H491   H     0.84492   0.99703   0.59455   0.00000  Uiso   1.00
H492   H     0.83165   0.06177   0.64346   0.00000  Uiso   1.00
H493   H     0.91805   0.97636   0.45571   0.00000  Uiso   1.00
H494   H     0.78092   0.95428   0.63520   0.00000  Uiso   1.00
H495   H     0.82353   0.13144   0.77531   0.00000  Uiso   1.00
H496   H     0.00571   0.95134   0.37942   0.00000  Uiso   1.00
H497   H     0.71653   0.90478   0.75790   0.00000  Uiso   1.00
O498   O     0.83744   0.16677   0.07439   0.00000  Uiso   1.00
O499   O     0.07645   0.93048   0.55500   0.00000  Uiso   1.00
O500   O     0.69706   0.86941   0.05157   0.00000  Uiso   1.00
N501   N     0.85856   0.11190   0.16031   0.00000  Uiso   1.00
N502   N     0.02888   0.94352   0.79017   0.00000  Uiso   1.00
N503   N     0.75854   0.89999   0.14401   0.00000  Uiso   1.00
N504   N     0.83518   0.11940   0.88466   0.00000  Uiso   1.00
N505   N     0.00551   0.95102   0.51453   0.00000  Uiso   1.00
N506   N     0.73517   0.90749   0.86836   0.00000  Uiso   1.00
C507   C     0.88403   0.48449   0.55579   0.00000  Uiso   1.00
C508   C     0.87129   0.52144   0.51724   0.00000  Uiso   1.00
C509   C     0.87361   0.54833   0.63837   0.00000  Uiso   1.00
C510   C     0.86045   0.58021   0.57712   0.00000  Uiso   1.00
C511   C     0.84296   0.63685   0.54402   0.00000  Uiso   1.00
C512   C     0.91824   0.47503   0.41523   0.00000  Uiso   1.00
C513   C     0.96002   0.46291   0.45058   0.00000  Uiso   1.00
C514   C     0.98638   0.45573   0.30345   0.00000  Uiso   1.00
C515   C     0.04177   0.44031   0.11197   0.00000  Uiso   1.00
C516   C     0.84373   0.46304   0.51276   0.00000  Uiso   1.00
C517   C     0.82287   0.44082   0.63010   0.00000  Uiso   1.00
C518   C     0.78650   0.42354   0.56506   0.00000  Uiso   1.00
C519   C     0.72620   0.38950   0.52501   0.00000  Uiso   1.00
C520   C     0.85654   0.49330   0.23163   0.00000  Uiso   1.00
C521   C     0.85636   0.52622   0.34117   0.00000  Uiso   1.00
C522   C     0.84320   0.55808   0.27972   0.00000  Uiso   1.00
C523   C     0.84549   0.58501   0.40074   0.00000  Uiso   1.00
C524   C     0.90331   0.47982   0.23916   0.00000  Uiso   1.00
C525   C     0.92961   0.47266   0.09194   0.00000  Uiso   1.00
C526   C     0.97143   0.46052   0.12707   0.00000  Uiso   1.00
C527   C     0.82880   0.46783   0.33669   0.00000  Uiso   1.00
C528   C     0.79246   0.45058   0.27145   0.00000  Uiso   1.00
C529   C     0.77155   0.42834   0.38868   0.00000  Uiso   1.00
H530   H     0.89566   0.48076   0.69286   0.00000  Uiso   1.00
H531   H     0.88517   0.54461   0.77461   0.00000  Uiso   1.00
H532   H     0.97157   0.45920   0.58685   0.00000  Uiso   1.00
H533   H     0.83443   0.43713   0.76634   0.00000  Uiso   1.00
H534   H     0.86697   0.61751   0.78757   0.00000  Uiso   1.00
H535   H     0.04914   0.43741   0.39168   0.00000  Uiso   1.00
H536   H     0.75997   0.39086   0.77016   0.00000  Uiso   1.00
H537   H     0.84492   0.49703   0.09455   0.00000  Uiso   1.00
H538   H     0.83165   0.56177   0.14346   0.00000  Uiso   1.00
H539   H     0.91805   0.47636   0.95571   0.00000  Uiso   1.00
H540   H     0.78092   0.45428   0.13520   0.00000  Uiso   1.00
H541   H     0.82353   0.63144   0.27531   0.00000  Uiso   1.00
H542   H     0.00571   0.45134   0.87942   0.00000  Uiso   1.00
H543   H     0.71653   0.40478   0.25790   0.00000  Uiso   1.00
O544   O     0.83744   0.66677   0.57439   0.00000  Uiso   1.00
O545   O     0.07645   0.43048   0.05500   0.00000  Uiso   1.00
O546   O     0.69706   0.36941   0.55157   0.00000  Uiso   1.00
N547   N     0.85856   0.61190   0.66031   0.00000  Uiso   1.00
N548   N     0.02888   0.44352   0.29017   0.00000  Uiso   1.00
N549   N     0.75854   0.39999   0.64401   0.00000  Uiso   1.00
N550   N     0.83518   0.61940   0.38466   0.00000  Uiso   1.00
N551   N     0.00551   0.45102   0.01453   0.00000  Uiso   1.00
N552   N     0.73517   0.40749   0.36836   0.00000  Uiso   1.00
C553   C     0.11597   0.51551   0.55579   0.00000  Uiso   1.00
C554   C     0.12871   0.47856   0.51724   0.00000  Uiso   1.00
C555   C     0.12639   0.45167   0.63837   0.00000  Uiso   1.00
C556   C     0.13955   0.41979   0.57712   0.00000  Uiso   1.00
C557   C     0.15704   0.36315   0.54402   0.00000  Uiso   1.00
C558   C     0.08176   0.52497   0.41523   0.00000  Uiso   1.00
C559   C     0.03998   0.53709   0.45058   0.00000  Uiso   1.00
C560   C     0.01362   0.54427   0.30345   0.00000  Uiso   1.00
C561   C     0.95823   0.55969   0.11197   0.00000  Uiso   1.00
C562   C     0.15627   0.53696   0.51276   0.00000  Uiso   1.00
C563   C     0.17713   0.55918   0.63010   0.00000  Uiso   1.00
C564   C     0.21350   0.57646   0.56506   0.00000  Uiso   1.00
C565   C     0.27380   0.61050   0.52501   0.00000  Uiso   1.00
C566   C     0.14346   0.50670   0.23163   0.00000  Uiso   1.00
C567   C     0.14364   0.47378   0.34117   0.00000  Uiso   1.00
C568   C     0.15680   0.44192   0.27972   0.00000  Uiso   1.00
C569   C     0.15451   0.41499   0.40074   0.00000  Uiso   1.00
C570   C     0.09669   0.52018   0.23916   0.00000  Uiso   1.00
C571   C     0.07039   0.52734   0.09194   0.00000  Uiso   1.00
C572   C     0.02857   0.53948   0.12707   0.00000  Uiso   1.00
C573   C     0.17120   0.53217   0.33669   0.00000  Uiso   1.00
C574   C     0.20754   0.54942   0.27145   0.00000  Uiso   1.00
C575   C     0.22845   0.57166   0.38868   0.00000  Uiso   1.00
H576   H     0.10434   0.51924   0.69286   0.00000  Uiso   1.00
H577   H     0.11483   0.45539   0.77461   0.00000  Uiso   1.00
H578   H     0.02843   0.54080   0.58685   0.00000  Uiso   1.00
H579   H     0.16557   0.56287   0.76634   0.00000  Uiso   1.00
H580   H     0.13303   0.38249   0.78757   0.00000  Uiso   1.00
H581   H     0.95086   0.56259   0.39168   0.00000  Uiso   1.00
H582   H     0.24003   0.60914   0.77016   0.00000  Uiso   1.00
H583   H     0.15508   0.50297   0.09455   0.00000  Uiso   1.00
H584   H     0.16835   0.43823   0.14346   0.00000  Uiso   1.00
H585   H     0.08195   0.52364   0.95571   0.00000  Uiso   1.00
H586   H     0.21908   0.54572   0.13520   0.00000  Uiso   1.00
H587   H     0.17647   0.36856   0.27531   0.00000  Uiso   1.00
H588   H     0.99429   0.54866   0.87942   0.00000  Uiso   1.00
H589   H     0.28347   0.59522   0.25790   0.00000  Uiso   1.00
O590   O     0.16256   0.33323   0.57439   0.00000  Uiso   1.00
O591   O     0.92355   0.56952   0.05500   0.00000  Uiso   1.00
O592   O     0.30294   0.63059   0.55157   0.00000  Uiso   1.00
N593   N     0.14144   0.38810   0.66031   0.00000  Uiso   1.00
N594   N     0.97112   0.55648   0.29017   0.00000  Uiso   1.00
N595   N     0.24146   0.60001   0.64401   0.00000  Uiso   1.00
N596   N     0.16482   0.38060   0.38466   0.00000  Uiso   1.00
N597   N     0.99449   0.54898   0.01453   0.00000  Uiso   1.00
N598   N     0.26483   0.59251   0.36836   0.00000  Uiso   1.00
C599   C     0.11597   0.01551   0.05579   0.00000  Uiso   1.00
C600   C     0.12871   0.97856   0.01724   0.00000  Uiso   1.00
C601   C     0.12639   0.95167   0.13837   0.00000  Uiso   1.00
C602   C     0.13955   0.91979   0.07712   0.00000  Uiso   1.00
C603   C     0.15704   0.86315   0.04402   0.00000  Uiso   1.00
C604   C     0.08176   0.02497   0.91523   0.00000  Uiso   1.00
C605   C     0.03998   0.03709   0.95058   0.00000  Uiso   1.00
C606   C     0.01362   0.04427   0.80345   0.00000  Uiso   1.00
C607   C     0.95823   0.05969   0.61197   0.00000  Uiso   1.00
C608   C     0.15627   0.03696   0.01276   0.00000  Uiso   1.00
C609   C     0.17713   0.05918   0.13010   0.00000  Uiso   1.00
C610   C     0.21350   0.07646   0.06506   0.00000  Uiso   1.00
C611   C     0.27380   0.11050   0.02501   0.00000  Uiso   1.00
C612   C     0.14346   0.00670   0.73163   0.00000  Uiso   1.00
C613   C     0.14364   0.97378   0.84117   0.00000  Uiso   1.00
C614   C     0.15680   0.94192   0.77972   0.00000  Uiso   1.00
C615   C     0.15451   0.91499   0.90074   0.00000  Uiso   1.00
C616   C     0.09669   0.02018   0.73916   0.00000  Uiso   1.00
C617   C     0.07039   0.02734   0.59194   0.00000  Uiso   1.00
C618   C     0.02857   0.03948   0.62707   0.00000  Uiso   1.00
C619   C     0.17120   0.03217   0.83669   0.00000  Uiso   1.00
C620   C     0.20754   0.04942   0.77145   0.00000  Uiso   1.00
C621   C     0.22845   0.07166   0.88868   0.00000  Uiso   1.00
H622   H     0.10434   0.01924   0.19286   0.00000  Uiso   1.00
H623   H     0.11483   0.95539   0.27461   0.00000  Uiso   1.00
H624   H     0.02843   0.04080   0.08685   0.00000  Uiso   1.00
H625   H     0.16557   0.06287   0.26634   0.00000  Uiso   1.00
H626   H     0.13303   0.88249   0.28757   0.00000  Uiso   1.00
H627   H     0.95086   0.06259   0.89168   0.00000  Uiso   1.00
H628   H     0.24003   0.10914   0.27016   0.00000  Uiso   1.00
H629   H     0.15508   0.00297   0.59455   0.00000  Uiso   1.00
H630   H     0.16835   0.93823   0.64346   0.00000  Uiso   1.00
H631   H     0.08195   0.02364   0.45571   0.00000  Uiso   1.00
H632   H     0.21908   0.04572   0.63520   0.00000  Uiso   1.00
H633   H     0.17647   0.86856   0.77531   0.00000  Uiso   1.00
H634   H     0.99429   0.04866   0.37942   0.00000  Uiso   1.00
H635   H     0.28347   0.09522   0.75790   0.00000  Uiso   1.00
O636   O     0.16256   0.83323   0.07439   0.00000  Uiso   1.00
O637   O     0.92355   0.06952   0.55500   0.00000  Uiso   1.00
O638   O     0.30294   0.13059   0.05157   0.00000  Uiso   1.00
N639   N     0.14144   0.88810   0.16031   0.00000  Uiso   1.00
N640   N     0.97112   0.05648   0.79017   0.00000  Uiso   1.00
N641   N     0.24146   0.10001   0.14401   0.00000  Uiso   1.00
N642   N     0.16482   0.88060   0.88466   0.00000  Uiso   1.00
N643   N     0.99449   0.04898   0.51453   0.00000  Uiso   1.00
N644   N     0.26483   0.09251   0.86836   0.00000  Uiso   1.00
C645   C     0.61597   0.51551   0.05579   0.00000  Uiso   1.00
C646   C     0.62871   0.47856   0.01724   0.00000  Uiso   1.00
C647   C     0.62639   0.45167   0.13837   0.00000  Uiso   1.00
C648   C     0.63955   0.41979   0.07712   0.00000  Uiso   1.00
C649   C     0.65704   0.36315   0.04402   0.00000  Uiso   1.00
C650   C     0.58176   0.52497   0.91523   0.00000  Uiso   1.00
C651   C     0.53998   0.53709   0.95058   0.00000  Uiso   1.00
C652   C     0.51362   0.54427   0.80345   0.00000  Uiso   1.00
C653   C     0.45823   0.55969   0.61197   0.00000  Uiso   1.00
C654   C     0.65627   0.53696   0.01276   0.00000  Uiso   1.00
C655   C     0.67713   0.55918   0.13010   0.00000  Uiso   1.00
C656   C     0.71350   0.57646   0.06506   0.00000  Uiso   1.00
C657   C     0.77380   0.61050   0.02501   0.00000  Uiso   1.00
C658   C     0.64346   0.50670   0.73163   0.00000  Uiso   1.00
C659   C     0.64364   0.47378   0.84117   0.00000  Uiso   1.00
C660   C     0.65680   0.44192   0.77972   0.00000  Uiso   1.00
C661   C     0.65451   0.41499   0.90074   0.00000  Uiso   1.00
C662   C     0.59669   0.52018   0.73916   0.00000  Uiso   1.00
C663   C     0.57039   0.52734   0.59194   0.00000  Uiso   1.00
C664   C     0.52857   0.53948   0.62707   0.00000  Uiso   1.00
C665   C     0.67120   0.53217   0.83669   0.00000  Uiso   1.00
C666   C     0.70754   0.54942   0.77145   0.00000  Uiso   1.00
C667   C     0.72845   0.57166   0.88868   0.00000  Uiso   1.00
H668   H     0.60434   0.51924   0.19286   0.00000  Uiso   1.00
H669   H     0.61483   0.45539   0.27461   0.00000  Uiso   1.00
H670   H     0.52843   0.54080   0.08685   0.00000  Uiso   1.00
H671   H     0.66557   0.56287   0.26634   0.00000  Uiso   1.00
H672   H     0.63303   0.38249   0.28757   0.00000  Uiso   1.00
H673   H     0.45086   0.56259   0.89168   0.00000  Uiso   1.00
H674   H     0.74003   0.60914   0.27016   0.00000  Uiso   1.00
H675   H     0.65508   0.50297   0.59455   0.00000  Uiso   1.00
H676   H     0.66835   0.43823   0.64346   0.00000  Uiso   1.00
H677   H     0.58195   0.52364   0.45571   0.00000  Uiso   1.00
H678   H     0.71908   0.54572   0.63520   0.00000  Uiso   1.00
H679   H     0.67647   0.36856   0.77531   0.00000  Uiso   1.00
H680   H     0.49429   0.54866   0.37942   0.00000  Uiso   1.00
H681   H     0.78347   0.59522   0.75790   0.00000  Uiso   1.00
O682   O     0.66256   0.33323   0.07439   0.00000  Uiso   1.00
O683   O     0.42355   0.56952   0.55500   0.00000  Uiso   1.00
O684   O     0.80294   0.63059   0.05157   0.00000  Uiso   1.00
N685   N     0.64144   0.38810   0.16031   0.00000  Uiso   1.00
N686   N     0.47112   0.55648   0.79017   0.00000  Uiso   1.00
N687   N     0.74146   0.60001   0.14401   0.00000  Uiso   1.00
N688   N     0.66482   0.38060   0.88466   0.00000  Uiso   1.00
N689   N     0.49449   0.54898   0.51453   0.00000  Uiso   1.00
N690   N     0.76483   0.59251   0.86836   0.00000  Uiso   1.00
C691   C     0.61597   0.01551   0.55579   0.00000  Uiso   1.00
C692   C     0.62871   0.97856   0.51724   0.00000  Uiso   1.00
C693   C     0.62639   0.95167   0.63837   0.00000  Uiso   1.00
C694   C     0.63955   0.91979   0.57712   0.00000  Uiso   1.00
C695   C     0.65704   0.86315   0.54402   0.00000  Uiso   1.00
C696   C     0.58176   0.02497   0.41523   0.00000  Uiso   1.00
C697   C     0.53998   0.03709   0.45058   0.00000  Uiso   1.00
C698   C     0.51362   0.04427   0.30345   0.00000  Uiso   1.00
C699   C     0.45823   0.05969   0.11197   0.00000  Uiso   1.00
C700   C     0.65627   0.03696   0.51276   0.00000  Uiso   1.00
C701   C     0.67713   0.05918   0.63010   0.00000  Uiso   1.00
C702   C     0.71350   0.07646   0.56506   0.00000  Uiso   1.00
C703   C     0.77380   0.11050   0.52501   0.00000  Uiso   1.00
C704   C     0.64346   0.00670   0.23163   0.00000  Uiso   1.00
C705   C     0.64364   0.97378   0.34117   0.00000  Uiso   1.00
C706   C     0.65680   0.94192   0.27972   0.00000  Uiso   1.00
C707   C     0.65451   0.91499   0.40074   0.00000  Uiso   1.00
C708   C     0.59669   0.02018   0.23916   0.00000  Uiso   1.00
C709   C     0.57039   0.02734   0.09194   0.00000  Uiso   1.00
C710   C     0.52857   0.03948   0.12707   0.00000  Uiso   1.00
C711   C     0.67120   0.03217   0.33669   0.00000  Uiso   1.00
C712   C     0.70754   0.04942   0.27145   0.00000  Uiso   1.00
C713   C     0.72845   0.07166   0.38868   0.00000  Uiso   1.00
H714   H     0.60434   0.01924   0.69286   0.00000  Uiso   1.00
H715   H     0.61483   0.95539   0.77461   0.00000  Uiso   1.00
H716   H     0.52843   0.04080   0.58685   0.00000  Uiso   1.00
H717   H     0.66557   0.06287   0.76634   0.00000  Uiso   1.00
H718   H     0.63303   0.88249   0.78757   0.00000  Uiso   1.00
H719   H     0.45086   0.06259   0.39168   0.00000  Uiso   1.00
H720   H     0.74003   0.10914   0.77016   0.00000  Uiso   1.00
H721   H     0.65508   0.00297   0.09455   0.00000  Uiso   1.00
H722   H     0.66835   0.93823   0.14346   0.00000  Uiso   1.00
H723   H     0.58195   0.02364   0.95571   0.00000  Uiso   1.00
H724   H     0.71908   0.04572   0.13520   0.00000  Uiso   1.00
H725   H     0.67647   0.86856   0.27531   0.00000  Uiso   1.00
H726   H     0.49429   0.04866   0.87942   0.00000  Uiso   1.00
H727   H     0.78347   0.09522   0.25790   0.00000  Uiso   1.00
O728   O     0.66256   0.83323   0.57439   0.00000  Uiso   1.00
O729   O     0.42355   0.06952   0.05500   0.00000  Uiso   1.00
O730   O     0.80294   0.13059   0.55157   0.00000  Uiso   1.00
N731   N     0.64144   0.88810   0.66031   0.00000  Uiso   1.00
N732   N     0.47112   0.05648   0.29017   0.00000  Uiso   1.00
N733   N     0.74146   0.10001   0.64401   0.00000  Uiso   1.00
N734   N     0.66482   0.88060   0.38466   0.00000  Uiso   1.00
N735   N     0.49449   0.04898   0.01453   0.00000  Uiso   1.00
N736   N     0.76483   0.09251   0.36836   0.00000  Uiso   1.00
