data_job_06865
_audit_creation_date              2018-12-19
_audit_creation_method            'Materials Studio'
_symmetry_space_group_name_H-M    'P1'
_symmetry_Int_Tables_number       1
_symmetry_cell_setting            triclinic
loop_
_symmetry_equiv_pos_as_xyz
  x,y,z
_cell_length_a                    38.4116
_cell_length_b                    38.4116
_cell_length_c                    30.1145
_cell_angle_alpha                 90.0000
_cell_angle_beta                  90.0000
_cell_angle_gamma                 120.0000
loop_
_atom_site_label
_atom_site_type_symbol
_atom_site_fract_x
_atom_site_fract_y
_atom_site_fract_z
_atom_site_U_iso_or_equiv
_atom_site_adp_type
_atom_site_occupancy
C1     C     0.42527   0.53231   0.64674   0.00000  Uiso   1.00
C2     C     0.39058   0.53388   0.62408   0.00000  Uiso   1.00
C3     C     0.36223   0.54047   0.64510   0.00000  Uiso   1.00
C4     C     0.33287   0.54080   0.61851   0.00000  Uiso   1.00
C5     C     0.27914   0.54415   0.59032   0.00000  Uiso   1.00
C6     C     0.42061   0.49164   0.63462   0.00000  Uiso   1.00
C7     C     0.75085   0.12938   0.33117   0.00000  Uiso   1.00
C8     C     0.41344   0.42750   0.64679   0.00000  Uiso   1.00
C9     C     0.40636   0.36528   0.63496   0.00000  Uiso   1.00
C10    C     0.79676   0.23043   0.29022   0.00000  Uiso   1.00
C11    C     0.82967   0.26215   0.31079   0.00000  Uiso   1.00
C12    C     0.52832   0.62098   0.61709   0.00000  Uiso   1.00
C13    C     0.58772   0.67075   0.58807   0.00000  Uiso   1.00
C14    C     0.42354   0.52118   0.56215   0.00000  Uiso   1.00
C15    C     0.38964   0.52784   0.57814   0.00000  Uiso   1.00
C16    C     0.36032   0.52816   0.55151   0.00000  Uiso   1.00
C17    C     0.33193   0.53475   0.57248   0.00000  Uiso   1.00
C18    C     0.41967   0.48560   0.58868   0.00000  Uiso   1.00
C19    C     0.41560   0.45041   0.57091   0.00000  Uiso   1.00
C20    C     0.41250   0.42144   0.60076   0.00000  Uiso   1.00
C21    C     0.46249   0.55773   0.57760   0.00000  Uiso   1.00
C22    C     0.16109   0.91651   0.88387   0.00000  Uiso   1.00
C23    C     0.52738   0.61493   0.57106   0.00000  Uiso   1.00
H24    H     0.75933   0.20367   0.34918   0.00000  Uiso   1.00
H25    H     0.36297   0.54514   0.68066   0.00000  Uiso   1.00
H26    H     0.75158   0.13407   0.36672   0.00000  Uiso   1.00
H27    H     0.83039   0.26681   0.34634   0.00000  Uiso   1.00
H28    H     0.29266   0.55148   0.65834   0.00000  Uiso   1.00
H29    H     0.74257   0.05424   0.36591   0.00000  Uiso   1.00
H30    H     0.57542   0.66749   0.65628   0.00000  Uiso   1.00
H31    H     0.42281   0.51648   0.52638   0.00000  Uiso   1.00
H32    H     0.02626   0.85682   0.84929   0.00000  Uiso   1.00
H33    H     0.41488   0.44575   0.53536   0.00000  Uiso   1.00
H34    H     0.16035   0.91183   0.84831   0.00000  Uiso   1.00
H35    H     0.95659   0.86724   0.85799   0.00000  Uiso   1.00
H36    H     0.40650   0.37000   0.56557   0.00000  Uiso   1.00
H37    H     0.57269   0.64992   0.52260   0.00000  Uiso   1.00
O38    O     0.24976   0.54766   0.58746   0.00000  Uiso   1.00
O39    O     0.40271   0.33262   0.64113   0.00000  Uiso   1.00
O40    O     0.62074   0.69987   0.58476   0.00000  Uiso   1.00
N41    N     0.30069   0.54639   0.62831   0.00000  Uiso   1.00
N42    N     0.40968   0.39314   0.66655   0.00000  Uiso   1.00
N43    N     0.56506   0.65484   0.62638   0.00000  Uiso   1.00
N44    N     0.29922   0.53693   0.55638   0.00000  Uiso   1.00
N45    N     0.40821   0.38369   0.59462   0.00000  Uiso   1.00
N46    N     0.56358   0.64538   0.55445   0.00000  Uiso   1.00
C47    C     0.09194   0.86564   0.98007   0.00000  Uiso   1.00
C48    C     0.05725   0.86722   0.95741   0.00000  Uiso   1.00
C49    C     0.02890   0.87380   0.97843   0.00000  Uiso   1.00
C50    C     0.99954   0.87413   0.95184   0.00000  Uiso   1.00
C51    C     0.94580   0.87748   0.92365   0.00000  Uiso   1.00
C52    C     0.08728   0.82498   0.96796   0.00000  Uiso   1.00
C53    C     0.41752   0.46272   0.66450   0.00000  Uiso   1.00
C54    C     0.08011   0.76083   0.98012   0.00000  Uiso   1.00
C55    C     0.07303   0.69861   0.96830   0.00000  Uiso   1.00
C56    C     0.46343   0.56377   0.62355   0.00000  Uiso   1.00
C57    C     0.49634   0.59548   0.64412   0.00000  Uiso   1.00
C58    C     0.19499   0.95431   0.95042   0.00000  Uiso   1.00
C59    C     0.25439   0.00408   0.92140   0.00000  Uiso   1.00
C60    C     0.09020   0.85452   0.89548   0.00000  Uiso   1.00
C61    C     0.05631   0.86117   0.91147   0.00000  Uiso   1.00
C62    C     0.02698   0.86150   0.88484   0.00000  Uiso   1.00
C63    C     0.99859   0.86809   0.90581   0.00000  Uiso   1.00
C64    C     0.08634   0.81893   0.92201   0.00000  Uiso   1.00
C65    C     0.08227   0.78375   0.90425   0.00000  Uiso   1.00
C66    C     0.07916   0.75478   0.93409   0.00000  Uiso   1.00
C67    C     0.12915   0.89106   0.91094   0.00000  Uiso   1.00
C68    C     0.82776   0.24985   0.21720   0.00000  Uiso   1.00
C69    C     0.19404   0.94826   0.90439   0.00000  Uiso   1.00
H70    H     0.42600   0.53701   0.68251   0.00000  Uiso   1.00
H71    H     0.02963   0.87847   0.01399   0.00000  Uiso   1.00
H72    H     0.41825   0.46740   0.70006   0.00000  Uiso   1.00
H73    H     0.49706   0.60015   0.67968   0.00000  Uiso   1.00
H74    H     0.95932   0.88481   0.99167   0.00000  Uiso   1.00
H75    H     0.40923   0.38757   0.69925   0.00000  Uiso   1.00
H76    H     0.24209   0.00082   0.98961   0.00000  Uiso   1.00
H77    H     0.08947   0.84981   0.85971   0.00000  Uiso   1.00
H78    H     0.69293   0.19016   0.18262   0.00000  Uiso   1.00
H79    H     0.08154   0.77908   0.86869   0.00000  Uiso   1.00
H80    H     0.82702   0.24516   0.18165   0.00000  Uiso   1.00
H81    H     0.62325   0.20057   0.19133   0.00000  Uiso   1.00
H82    H     0.07317   0.70333   0.89890   0.00000  Uiso   1.00
H83    H     0.23935   0.98325   0.85593   0.00000  Uiso   1.00
O84    O     0.91642   0.88099   0.92079   0.00000  Uiso   1.00
O85    O     0.06938   0.66596   0.97447   0.00000  Uiso   1.00
O86    O     0.28741   0.03320   0.91809   0.00000  Uiso   1.00
N87    N     0.96736   0.87972   0.96164   0.00000  Uiso   1.00
N88    N     0.07635   0.72648   0.99989   0.00000  Uiso   1.00
N89    N     0.23172   0.98817   0.95971   0.00000  Uiso   1.00
N90    N     0.96589   0.87026   0.88971   0.00000  Uiso   1.00
N91    N     0.07487   0.71702   0.92796   0.00000  Uiso   1.00
N92    N     0.23025   0.97871   0.88778   0.00000  Uiso   1.00
C93    C     0.75860   0.19897   0.31341   0.00000  Uiso   1.00
C94    C     0.72391   0.20055   0.29075   0.00000  Uiso   1.00
C95    C     0.69556   0.20714   0.31176   0.00000  Uiso   1.00
C96    C     0.66620   0.20747   0.28518   0.00000  Uiso   1.00
C97    C     0.61247   0.21081   0.25698   0.00000  Uiso   1.00
C98    C     0.75394   0.15831   0.30129   0.00000  Uiso   1.00
C99    C     0.08418   0.79605   0.99784   0.00000  Uiso   1.00
C100   C     0.74677   0.09416   0.31345   0.00000  Uiso   1.00
C101   C     0.73969   0.03194   0.30163   0.00000  Uiso   1.00
C102   C     0.13009   0.89710   0.95688   0.00000  Uiso   1.00
C103   C     0.16301   0.92882   0.97746   0.00000  Uiso   1.00
C104   C     0.86165   0.28765   0.28375   0.00000  Uiso   1.00
C105   C     0.92105   0.33741   0.25474   0.00000  Uiso   1.00
C106   C     0.75687   0.18785   0.22882   0.00000  Uiso   1.00
C107   C     0.72297   0.19451   0.24480   0.00000  Uiso   1.00
C108   C     0.69365   0.19483   0.21817   0.00000  Uiso   1.00
C109   C     0.66526   0.20142   0.23915   0.00000  Uiso   1.00
C110   C     0.75300   0.15227   0.25535   0.00000  Uiso   1.00
C111   C     0.74893   0.11708   0.23758   0.00000  Uiso   1.00
C112   C     0.74583   0.08811   0.26743   0.00000  Uiso   1.00
C113   C     0.79582   0.22440   0.24427   0.00000  Uiso   1.00
C114   C     0.49442   0.58318   0.55053   0.00000  Uiso   1.00
C115   C     0.86071   0.28159   0.23772   0.00000  Uiso   1.00
H116   H     0.09267   0.87034   0.01584   0.00000  Uiso   1.00
H117   H     0.69630   0.21181   0.34732   0.00000  Uiso   1.00
H118   H     0.08491   0.80074   0.03339   0.00000  Uiso   1.00
H119   H     0.16372   0.93348   0.01301   0.00000  Uiso   1.00
H120   H     0.62599   0.21814   0.32500   0.00000  Uiso   1.00
H121   H     0.07590   0.72091   0.03258   0.00000  Uiso   1.00
H122   H     0.90876   0.33416   0.32294   0.00000  Uiso   1.00
H123   H     0.75614   0.18315   0.19305   0.00000  Uiso   1.00
H124   H     0.35959   0.52349   0.51595   0.00000  Uiso   1.00
H125   H     0.74821   0.11242   0.20202   0.00000  Uiso   1.00
H126   H     0.49369   0.57850   0.51498   0.00000  Uiso   1.00
H127   H     0.28992   0.53390   0.52466   0.00000  Uiso   1.00
H128   H     0.73983   0.03666   0.23224   0.00000  Uiso   1.00
H129   H     0.90602   0.31658   0.18927   0.00000  Uiso   1.00
O130   O     0.58309   0.21432   0.25413   0.00000  Uiso   1.00
O131   O     0.73604   0.99929   0.30780   0.00000  Uiso   1.00
O132   O     0.95408   0.36654   0.25142   0.00000  Uiso   1.00
N133   N     0.63403   0.21305   0.29497   0.00000  Uiso   1.00
N134   N     0.74301   0.05981   0.33322   0.00000  Uiso   1.00
N135   N     0.89839   0.32150   0.29305   0.00000  Uiso   1.00
N136   N     0.63255   0.20360   0.22304   0.00000  Uiso   1.00
N137   N     0.74154   0.05035   0.26129   0.00000  Uiso   1.00
N138   N     0.89692   0.31205   0.22112   0.00000  Uiso   1.00
C139   C     0.46769   0.89296   0.64674   0.00000  Uiso   1.00
C140   C     0.46612   0.85670   0.62408   0.00000  Uiso   1.00
C141   C     0.45953   0.82176   0.64510   0.00000  Uiso   1.00
C142   C     0.45920   0.79207   0.61851   0.00000  Uiso   1.00
C143   C     0.45585   0.73499   0.59032   0.00000  Uiso   1.00
C144   C     0.50836   0.92897   0.63462   0.00000  Uiso   1.00
C145   C     0.87062   0.62146   0.33117   0.00000  Uiso   1.00
C146   C     0.57250   0.98594   0.64679   0.00000  Uiso   1.00
C147   C     0.63472   0.04108   0.63496   0.00000  Uiso   1.00
C148   C     0.76957   0.56633   0.29022   0.00000  Uiso   1.00
C149   C     0.73785   0.56753   0.31079   0.00000  Uiso   1.00
C150   C     0.37902   0.90734   0.61709   0.00000  Uiso   1.00
C151   C     0.32925   0.91697   0.58807   0.00000  Uiso   1.00
C152   C     0.47882   0.90235   0.56215   0.00000  Uiso   1.00
C153   C     0.47216   0.86180   0.57814   0.00000  Uiso   1.00
C154   C     0.47184   0.83215   0.55151   0.00000  Uiso   1.00
C155   C     0.46525   0.79718   0.57248   0.00000  Uiso   1.00
C156   C     0.51440   0.93407   0.58868   0.00000  Uiso   1.00
C157   C     0.54959   0.96519   0.57091   0.00000  Uiso   1.00
C158   C     0.57856   0.99105   0.60076   0.00000  Uiso   1.00
C159   C     0.44227   0.90476   0.57760   0.00000  Uiso   1.00
C160   C     0.08349   0.24458   0.88387   0.00000  Uiso   1.00
C161   C     0.38507   0.91245   0.57106   0.00000  Uiso   1.00
H162   H     0.79633   0.55566   0.34918   0.00000  Uiso   1.00
H163   H     0.45486   0.81783   0.68066   0.00000  Uiso   1.00
H164   H     0.86593   0.61751   0.36672   0.00000  Uiso   1.00
H165   H     0.73319   0.56358   0.34634   0.00000  Uiso   1.00
H166   H     0.44852   0.74118   0.65834   0.00000  Uiso   1.00
H167   H     0.94576   0.68833   0.36591   0.00000  Uiso   1.00
H168   H     0.33251   0.90793   0.65628   0.00000  Uiso   1.00
H169   H     0.48352   0.90633   0.52638   0.00000  Uiso   1.00
H170   H     0.14318   0.16944   0.84929   0.00000  Uiso   1.00
H171   H     0.55425   0.96912   0.53536   0.00000  Uiso   1.00
H172   H     0.08817   0.24852   0.84831   0.00000  Uiso   1.00
H173   H     0.13276   0.08935   0.85799   0.00000  Uiso   1.00
H174   H     0.63000   0.03650   0.56557   0.00000  Uiso   1.00
H175   H     0.35008   0.92277   0.52260   0.00000  Uiso   1.00
O176   O     0.45234   0.70210   0.58746   0.00000  Uiso   1.00
O177   O     0.66738   0.07009   0.64113   0.00000  Uiso   1.00
O178   O     0.30013   0.92087   0.58476   0.00000  Uiso   1.00
N179   N     0.45361   0.75431   0.62831   0.00000  Uiso   1.00
N180   N     0.60686   0.01654   0.66655   0.00000  Uiso   1.00
N181   N     0.34516   0.91022   0.62638   0.00000  Uiso   1.00
N182   N     0.46307   0.76229   0.55638   0.00000  Uiso   1.00
N183   N     0.61631   0.02452   0.59462   0.00000  Uiso   1.00
N184   N     0.35462   0.91820   0.55445   0.00000  Uiso   1.00
C185   C     0.13436   0.22630   0.98007   0.00000  Uiso   1.00
C186   C     0.13278   0.19003   0.95741   0.00000  Uiso   1.00
C187   C     0.12620   0.15510   0.97843   0.00000  Uiso   1.00
C188   C     0.12587   0.12540   0.95184   0.00000  Uiso   1.00
C189   C     0.12252   0.06832   0.92365   0.00000  Uiso   1.00
C190   C     0.17502   0.26230   0.96796   0.00000  Uiso   1.00
C191   C     0.53728   0.95480   0.66450   0.00000  Uiso   1.00
C192   C     0.23917   0.31928   0.98012   0.00000  Uiso   1.00
C193   C     0.30139   0.37442   0.96830   0.00000  Uiso   1.00
C194   C     0.43623   0.89966   0.62355   0.00000  Uiso   1.00
C195   C     0.40452   0.90086   0.64412   0.00000  Uiso   1.00
C196   C     0.04569   0.24067   0.95042   0.00000  Uiso   1.00
C197   C     0.99592   0.25031   0.92140   0.00000  Uiso   1.00
C198   C     0.14548   0.23569   0.89548   0.00000  Uiso   1.00
C199   C     0.13883   0.19513   0.91147   0.00000  Uiso   1.00
C200   C     0.13850   0.16548   0.88484   0.00000  Uiso   1.00
C201   C     0.13191   0.13051   0.90581   0.00000  Uiso   1.00
C202   C     0.18107   0.26740   0.92201   0.00000  Uiso   1.00
C203   C     0.21625   0.29852   0.90425   0.00000  Uiso   1.00
C204   C     0.24522   0.32439   0.93409   0.00000  Uiso   1.00
C205   C     0.10894   0.23809   0.91094   0.00000  Uiso   1.00
C206   C     0.75015   0.57791   0.21720   0.00000  Uiso   1.00
C207   C     0.05174   0.24578   0.90439   0.00000  Uiso   1.00
H208   H     0.46299   0.88899   0.68251   0.00000  Uiso   1.00
H209   H     0.12153   0.15116   0.01399   0.00000  Uiso   1.00
H210   H     0.53260   0.95084   0.70006   0.00000  Uiso   1.00
H211   H     0.39985   0.89691   0.67968   0.00000  Uiso   1.00
H212   H     0.11519   0.07451   0.99167   0.00000  Uiso   1.00
H213   H     0.61243   0.02166   0.69925   0.00000  Uiso   1.00
H214   H     0.99918   0.24127   0.98961   0.00000  Uiso   1.00
H215   H     0.15019   0.23966   0.85971   0.00000  Uiso   1.00
H216   H     0.80984   0.50277   0.18262   0.00000  Uiso   1.00
H217   H     0.22092   0.30246   0.86869   0.00000  Uiso   1.00
H218   H     0.75484   0.58186   0.18165   0.00000  Uiso   1.00
H219   H     0.79943   0.42268   0.19133   0.00000  Uiso   1.00
H220   H     0.29667   0.36984   0.89890   0.00000  Uiso   1.00
H221   H     0.01675   0.25610   0.85593   0.00000  Uiso   1.00
O222   O     0.11901   0.03543   0.92079   0.00000  Uiso   1.00
O223   O     0.33404   0.40342   0.97447   0.00000  Uiso   1.00
O224   O     0.96680   0.25421   0.91809   0.00000  Uiso   1.00
N225   N     0.12028   0.08764   0.96164   0.00000  Uiso   1.00
N226   N     0.27352   0.34987   0.99989   0.00000  Uiso   1.00
N227   N     0.01183   0.24355   0.95971   0.00000  Uiso   1.00
N228   N     0.12974   0.09562   0.88971   0.00000  Uiso   1.00
N229   N     0.28298   0.35785   0.92796   0.00000  Uiso   1.00
N230   N     0.02129   0.25154   0.88778   0.00000  Uiso   1.00
C231   C     0.80103   0.55963   0.31341   0.00000  Uiso   1.00
C232   C     0.79945   0.52336   0.29075   0.00000  Uiso   1.00
C233   C     0.79286   0.48843   0.31176   0.00000  Uiso   1.00
C234   C     0.79253   0.45873   0.28518   0.00000  Uiso   1.00
C235   C     0.78919   0.40166   0.25698   0.00000  Uiso   1.00
C236   C     0.84169   0.59563   0.30129   0.00000  Uiso   1.00
C237   C     0.20395   0.28813   0.99784   0.00000  Uiso   1.00
C238   C     0.90584   0.65261   0.31345   0.00000  Uiso   1.00
C239   C     0.96806   0.70775   0.30163   0.00000  Uiso   1.00
C240   C     0.10290   0.23299   0.95688   0.00000  Uiso   1.00
C241   C     0.07118   0.23419   0.97746   0.00000  Uiso   1.00
C242   C     0.71235   0.57401   0.28375   0.00000  Uiso   1.00
C243   C     0.66259   0.58364   0.25474   0.00000  Uiso   1.00
C244   C     0.81215   0.56902   0.22882   0.00000  Uiso   1.00
C245   C     0.80549   0.52847   0.24480   0.00000  Uiso   1.00
C246   C     0.80517   0.49882   0.21817   0.00000  Uiso   1.00
C247   C     0.79858   0.46384   0.23915   0.00000  Uiso   1.00
C248   C     0.84773   0.60074   0.25535   0.00000  Uiso   1.00
C249   C     0.88292   0.63185   0.23758   0.00000  Uiso   1.00
C250   C     0.91189   0.65772   0.26743   0.00000  Uiso   1.00
C251   C     0.77560   0.57143   0.24427   0.00000  Uiso   1.00
C252   C     0.41682   0.91124   0.55053   0.00000  Uiso   1.00
C253   C     0.71841   0.57912   0.23772   0.00000  Uiso   1.00
H254   H     0.12966   0.22233   0.01584   0.00000  Uiso   1.00
H255   H     0.78819   0.48449   0.34732   0.00000  Uiso   1.00
H256   H     0.19926   0.28418   0.03339   0.00000  Uiso   1.00
H257   H     0.06652   0.23024   0.01301   0.00000  Uiso   1.00
H258   H     0.78186   0.40785   0.32500   0.00000  Uiso   1.00
H259   H     0.27909   0.35500   0.03258   0.00000  Uiso   1.00
H260   H     0.66584   0.57460   0.32294   0.00000  Uiso   1.00
H261   H     0.81685   0.57299   0.19305   0.00000  Uiso   1.00
H262   H     0.47651   0.83611   0.51595   0.00000  Uiso   1.00
H263   H     0.88758   0.63579   0.20202   0.00000  Uiso   1.00
H264   H     0.42150   0.91519   0.51498   0.00000  Uiso   1.00
H265   H     0.46610   0.75602   0.52466   0.00000  Uiso   1.00
H266   H     0.96334   0.70317   0.23224   0.00000  Uiso   1.00
H267   H     0.68342   0.58944   0.18927   0.00000  Uiso   1.00
O268   O     0.78568   0.36877   0.25413   0.00000  Uiso   1.00
O269   O     0.00071   0.73675   0.30780   0.00000  Uiso   1.00
O270   O     0.63346   0.58754   0.25142   0.00000  Uiso   1.00
N271   N     0.78695   0.42097   0.29497   0.00000  Uiso   1.00
N272   N     0.94019   0.68320   0.33322   0.00000  Uiso   1.00
N273   N     0.67850   0.57689   0.29305   0.00000  Uiso   1.00
N274   N     0.79640   0.42896   0.22304   0.00000  Uiso   1.00
N275   N     0.94965   0.69119   0.26129   0.00000  Uiso   1.00
N276   N     0.68795   0.58487   0.22112   0.00000  Uiso   1.00
C277   C     0.10704   0.57473   0.64674   0.00000  Uiso   1.00
C278   C     0.14330   0.60942   0.62408   0.00000  Uiso   1.00
C279   C     0.17824   0.63777   0.64510   0.00000  Uiso   1.00
C280   C     0.20793   0.66713   0.61851   0.00000  Uiso   1.00
C281   C     0.26501   0.72086   0.59032   0.00000  Uiso   1.00
C282   C     0.07103   0.57939   0.63462   0.00000  Uiso   1.00
C283   C     0.37854   0.24915   0.33117   0.00000  Uiso   1.00
C284   C     0.01406   0.58656   0.64679   0.00000  Uiso   1.00
C285   C     0.95892   0.59364   0.63496   0.00000  Uiso   1.00
C286   C     0.43367   0.20324   0.29022   0.00000  Uiso   1.00
C287   C     0.43247   0.17033   0.31079   0.00000  Uiso   1.00
C288   C     0.09266   0.47168   0.61709   0.00000  Uiso   1.00
C289   C     0.08303   0.41228   0.58807   0.00000  Uiso   1.00
C290   C     0.09765   0.57646   0.56215   0.00000  Uiso   1.00
C291   C     0.13820   0.61036   0.57814   0.00000  Uiso   1.00
C292   C     0.16785   0.63968   0.55151   0.00000  Uiso   1.00
C293   C     0.20282   0.66807   0.57248   0.00000  Uiso   1.00
C294   C     0.06593   0.58033   0.58868   0.00000  Uiso   1.00
C295   C     0.03481   0.58440   0.57091   0.00000  Uiso   1.00
C296   C     0.00895   0.58750   0.60076   0.00000  Uiso   1.00
C297   C     0.09524   0.53751   0.57760   0.00000  Uiso   1.00
C298   C     0.75542   0.83891   0.88387   0.00000  Uiso   1.00
C299   C     0.08755   0.47262   0.57106   0.00000  Uiso   1.00
H300   H     0.44434   0.24067   0.34918   0.00000  Uiso   1.00
H301   H     0.18217   0.63703   0.68066   0.00000  Uiso   1.00
H302   H     0.38249   0.24842   0.36672   0.00000  Uiso   1.00
H303   H     0.43642   0.16961   0.34634   0.00000  Uiso   1.00
H304   H     0.25882   0.70734   0.65834   0.00000  Uiso   1.00
H305   H     0.31167   0.25743   0.36591   0.00000  Uiso   1.00
H306   H     0.09207   0.42458   0.65628   0.00000  Uiso   1.00
H307   H     0.09367   0.57719   0.52638   0.00000  Uiso   1.00
H308   H     0.83056   0.97374   0.84929   0.00000  Uiso   1.00
H309   H     0.03088   0.58512   0.53536   0.00000  Uiso   1.00
H310   H     0.75148   0.83965   0.84831   0.00000  Uiso   1.00
H311   H     0.91065   0.04341   0.85799   0.00000  Uiso   1.00
H312   H     0.96350   0.59350   0.56557   0.00000  Uiso   1.00
H313   H     0.07723   0.42731   0.52260   0.00000  Uiso   1.00
O314   O     0.29790   0.75024   0.58746   0.00000  Uiso   1.00
O315   O     0.92991   0.59729   0.64113   0.00000  Uiso   1.00
O316   O     0.07913   0.37926   0.58476   0.00000  Uiso   1.00
N317   N     0.24569   0.69931   0.62831   0.00000  Uiso   1.00
N318   N     0.98346   0.59032   0.66655   0.00000  Uiso   1.00
N319   N     0.08978   0.43494   0.62638   0.00000  Uiso   1.00
N320   N     0.23771   0.70078   0.55638   0.00000  Uiso   1.00
N321   N     0.97548   0.59179   0.59462   0.00000  Uiso   1.00
N322   N     0.08180   0.43642   0.55445   0.00000  Uiso   1.00
C323   C     0.77370   0.90806   0.98007   0.00000  Uiso   1.00
C324   C     0.80997   0.94275   0.95741   0.00000  Uiso   1.00
C325   C     0.84490   0.97110   0.97843   0.00000  Uiso   1.00
C326   C     0.87460   0.00046   0.95184   0.00000  Uiso   1.00
C327   C     0.93168   0.05420   0.92365   0.00000  Uiso   1.00
C328   C     0.73770   0.91272   0.96796   0.00000  Uiso   1.00
C329   C     0.04520   0.58248   0.66450   0.00000  Uiso   1.00
C330   C     0.68072   0.91989   0.98012   0.00000  Uiso   1.00
C331   C     0.62558   0.92697   0.96830   0.00000  Uiso   1.00
C332   C     0.10034   0.53657   0.62355   0.00000  Uiso   1.00
C333   C     0.09914   0.50366   0.64412   0.00000  Uiso   1.00
C334   C     0.75933   0.80501   0.95042   0.00000  Uiso   1.00
C335   C     0.74969   0.74561   0.92140   0.00000  Uiso   1.00
C336   C     0.76431   0.90980   0.89548   0.00000  Uiso   1.00
C337   C     0.80487   0.94369   0.91147   0.00000  Uiso   1.00
C338   C     0.83452   0.97302   0.88484   0.00000  Uiso   1.00
C339   C     0.86949   0.00141   0.90581   0.00000  Uiso   1.00
C340   C     0.73260   0.91366   0.92201   0.00000  Uiso   1.00
C341   C     0.70148   0.91773   0.90425   0.00000  Uiso   1.00
C342   C     0.67561   0.92084   0.93409   0.00000  Uiso   1.00
C343   C     0.76191   0.87085   0.91094   0.00000  Uiso   1.00
C344   C     0.42209   0.17224   0.21720   0.00000  Uiso   1.00
C345   C     0.75422   0.80596   0.90439   0.00000  Uiso   1.00
H346   H     0.11101   0.57400   0.68251   0.00000  Uiso   1.00
H347   H     0.84884   0.97037   0.01399   0.00000  Uiso   1.00
H348   H     0.04916   0.58175   0.70006   0.00000  Uiso   1.00
H349   H     0.10309   0.50294   0.67968   0.00000  Uiso   1.00
H350   H     0.92549   0.04068   0.99167   0.00000  Uiso   1.00
H351   H     0.97834   0.59077   0.69925   0.00000  Uiso   1.00
H352   H     0.75873   0.75791   0.98961   0.00000  Uiso   1.00
H353   H     0.76034   0.91053   0.85971   0.00000  Uiso   1.00
H354   H     0.49723   0.30707   0.18262   0.00000  Uiso   1.00
H355   H     0.69754   0.91846   0.86869   0.00000  Uiso   1.00
H356   H     0.41814   0.17298   0.18165   0.00000  Uiso   1.00
H357   H     0.57732   0.37675   0.19133   0.00000  Uiso   1.00
H358   H     0.63016   0.92683   0.89890   0.00000  Uiso   1.00
H359   H     0.74390   0.76065   0.85593   0.00000  Uiso   1.00
O360   O     0.96457   0.08358   0.92079   0.00000  Uiso   1.00
O361   O     0.59658   0.93062   0.97447   0.00000  Uiso   1.00
O362   O     0.74579   0.71259   0.91809   0.00000  Uiso   1.00
N363   N     0.91236   0.03264   0.96164   0.00000  Uiso   1.00
N364   N     0.65013   0.92365   0.99989   0.00000  Uiso   1.00
N365   N     0.75645   0.76828   0.95971   0.00000  Uiso   1.00
N366   N     0.90438   0.03411   0.88971   0.00000  Uiso   1.00
N367   N     0.64215   0.92513   0.92796   0.00000  Uiso   1.00
N368   N     0.74846   0.76975   0.88778   0.00000  Uiso   1.00
C369   C     0.44037   0.24140   0.31341   0.00000  Uiso   1.00
C370   C     0.47664   0.27609   0.29075   0.00000  Uiso   1.00
C371   C     0.51157   0.30444   0.31176   0.00000  Uiso   1.00
C372   C     0.54127   0.33380   0.28518   0.00000  Uiso   1.00
C373   C     0.59834   0.38753   0.25698   0.00000  Uiso   1.00
C374   C     0.40437   0.24606   0.30129   0.00000  Uiso   1.00
C375   C     0.71187   0.91582   0.99784   0.00000  Uiso   1.00
C376   C     0.34739   0.25323   0.31345   0.00000  Uiso   1.00
C377   C     0.29225   0.26031   0.30163   0.00000  Uiso   1.00
C378   C     0.76701   0.86991   0.95688   0.00000  Uiso   1.00
C379   C     0.76581   0.83699   0.97746   0.00000  Uiso   1.00
C380   C     0.42599   0.13835   0.28375   0.00000  Uiso   1.00
C381   C     0.41636   0.07895   0.25474   0.00000  Uiso   1.00
C382   C     0.43098   0.24313   0.22882   0.00000  Uiso   1.00
C383   C     0.47153   0.27703   0.24480   0.00000  Uiso   1.00
C384   C     0.50118   0.30635   0.21817   0.00000  Uiso   1.00
C385   C     0.53616   0.33474   0.23915   0.00000  Uiso   1.00
C386   C     0.39926   0.24700   0.25535   0.00000  Uiso   1.00
C387   C     0.36815   0.25107   0.23758   0.00000  Uiso   1.00
C388   C     0.34228   0.25417   0.26743   0.00000  Uiso   1.00
C389   C     0.42857   0.20418   0.24427   0.00000  Uiso   1.00
C390   C     0.08876   0.50558   0.55053   0.00000  Uiso   1.00
C391   C     0.42088   0.13929   0.23772   0.00000  Uiso   1.00
H392   H     0.77767   0.90733   0.01584   0.00000  Uiso   1.00
H393   H     0.51551   0.30370   0.34732   0.00000  Uiso   1.00
H394   H     0.71582   0.91509   0.03339   0.00000  Uiso   1.00
H395   H     0.76976   0.83628   0.01301   0.00000  Uiso   1.00
H396   H     0.59215   0.37401   0.32500   0.00000  Uiso   1.00
H397   H     0.64500   0.92410   0.03258   0.00000  Uiso   1.00
H398   H     0.42540   0.09124   0.32294   0.00000  Uiso   1.00
H399   H     0.42701   0.24386   0.19305   0.00000  Uiso   1.00
H400   H     0.16389   0.64041   0.51595   0.00000  Uiso   1.00
H401   H     0.36421   0.25179   0.20202   0.00000  Uiso   1.00
H402   H     0.08481   0.50631   0.51498   0.00000  Uiso   1.00
H403   H     0.24398   0.71008   0.52466   0.00000  Uiso   1.00
H404   H     0.29683   0.26017   0.23224   0.00000  Uiso   1.00
H405   H     0.41056   0.09398   0.18927   0.00000  Uiso   1.00
O406   O     0.63123   0.41691   0.25413   0.00000  Uiso   1.00
O407   O     0.26325   0.26396   0.30780   0.00000  Uiso   1.00
O408   O     0.41246   0.04592   0.25142   0.00000  Uiso   1.00
N409   N     0.57903   0.36597   0.29497   0.00000  Uiso   1.00
N410   N     0.31680   0.25699   0.33322   0.00000  Uiso   1.00
N411   N     0.42311   0.10161   0.29305   0.00000  Uiso   1.00
N412   N     0.57104   0.36745   0.22304   0.00000  Uiso   1.00
N413   N     0.30881   0.25846   0.26129   0.00000  Uiso   1.00
N414   N     0.41513   0.10308   0.22112   0.00000  Uiso   1.00
C415   C     0.53231   0.42527   0.85326   0.00000  Uiso   1.00
C416   C     0.53388   0.39058   0.87592   0.00000  Uiso   1.00
C417   C     0.54047   0.36223   0.85490   0.00000  Uiso   1.00
C418   C     0.54080   0.33287   0.88149   0.00000  Uiso   1.00
C419   C     0.54415   0.27914   0.90968   0.00000  Uiso   1.00
C420   C     0.49164   0.42061   0.86538   0.00000  Uiso   1.00
C421   C     0.12938   0.75085   0.16883   0.00000  Uiso   1.00
C422   C     0.42750   0.41344   0.85321   0.00000  Uiso   1.00
C423   C     0.36528   0.40636   0.86504   0.00000  Uiso   1.00
C424   C     0.23043   0.79676   0.20978   0.00000  Uiso   1.00
C425   C     0.26215   0.82967   0.18921   0.00000  Uiso   1.00
C426   C     0.62098   0.52832   0.88291   0.00000  Uiso   1.00
C427   C     0.67075   0.58772   0.91193   0.00000  Uiso   1.00
C428   C     0.52118   0.42354   0.93785   0.00000  Uiso   1.00
C429   C     0.52784   0.38964   0.92186   0.00000  Uiso   1.00
C430   C     0.52816   0.36032   0.94849   0.00000  Uiso   1.00
C431   C     0.53475   0.33193   0.92752   0.00000  Uiso   1.00
C432   C     0.48560   0.41967   0.91132   0.00000  Uiso   1.00
C433   C     0.45041   0.41560   0.92909   0.00000  Uiso   1.00
C434   C     0.42144   0.41250   0.89924   0.00000  Uiso   1.00
C435   C     0.55773   0.46249   0.92240   0.00000  Uiso   1.00
C436   C     0.91651   0.16109   0.61613   0.00000  Uiso   1.00
C437   C     0.61493   0.52738   0.92894   0.00000  Uiso   1.00
H438   H     0.20367   0.75933   0.15082   0.00000  Uiso   1.00
H439   H     0.54514   0.36297   0.81934   0.00000  Uiso   1.00
H440   H     0.13407   0.75158   0.13328   0.00000  Uiso   1.00
H441   H     0.26681   0.83039   0.15366   0.00000  Uiso   1.00
H442   H     0.55148   0.29266   0.84166   0.00000  Uiso   1.00
H443   H     0.05424   0.74257   0.13409   0.00000  Uiso   1.00
H444   H     0.66749   0.57542   0.84372   0.00000  Uiso   1.00
H445   H     0.51648   0.42281   0.97362   0.00000  Uiso   1.00
H446   H     0.85682   0.02626   0.65071   0.00000  Uiso   1.00
H447   H     0.44575   0.41488   0.96464   0.00000  Uiso   1.00
H448   H     0.91183   0.16035   0.65169   0.00000  Uiso   1.00
H449   H     0.86724   0.95659   0.64201   0.00000  Uiso   1.00
H450   H     0.37000   0.40650   0.93443   0.00000  Uiso   1.00
H451   H     0.64992   0.57269   0.97740   0.00000  Uiso   1.00
O452   O     0.54766   0.24976   0.91254   0.00000  Uiso   1.00
O453   O     0.33262   0.40271   0.85887   0.00000  Uiso   1.00
O454   O     0.69987   0.62074   0.91524   0.00000  Uiso   1.00
N455   N     0.54639   0.30069   0.87169   0.00000  Uiso   1.00
N456   N     0.39314   0.40968   0.83345   0.00000  Uiso   1.00
N457   N     0.65484   0.56506   0.87362   0.00000  Uiso   1.00
N458   N     0.53693   0.29922   0.94362   0.00000  Uiso   1.00
N459   N     0.38369   0.40821   0.90538   0.00000  Uiso   1.00
N460   N     0.64538   0.56358   0.94555   0.00000  Uiso   1.00
C461   C     0.19897   0.75860   0.18659   0.00000  Uiso   1.00
C462   C     0.20055   0.72391   0.20925   0.00000  Uiso   1.00
C463   C     0.20714   0.69556   0.18824   0.00000  Uiso   1.00
C464   C     0.20747   0.66620   0.21482   0.00000  Uiso   1.00
C465   C     0.21081   0.61247   0.24302   0.00000  Uiso   1.00
C466   C     0.15831   0.75394   0.19871   0.00000  Uiso   1.00
C467   C     0.79605   0.08418   0.50216   0.00000  Uiso   1.00
C468   C     0.09416   0.74677   0.18655   0.00000  Uiso   1.00
C469   C     0.03194   0.73969   0.19837   0.00000  Uiso   1.00
C470   C     0.89710   0.13009   0.54312   0.00000  Uiso   1.00
C471   C     0.92882   0.16301   0.52254   0.00000  Uiso   1.00
C472   C     0.28765   0.86165   0.21625   0.00000  Uiso   1.00
C473   C     0.33741   0.92105   0.24526   0.00000  Uiso   1.00
C474   C     0.18785   0.75687   0.27118   0.00000  Uiso   1.00
C475   C     0.19451   0.72297   0.25520   0.00000  Uiso   1.00
C476   C     0.19483   0.69365   0.28183   0.00000  Uiso   1.00
C477   C     0.20142   0.66526   0.26085   0.00000  Uiso   1.00
C478   C     0.15227   0.75300   0.24465   0.00000  Uiso   1.00
C479   C     0.11708   0.74893   0.26242   0.00000  Uiso   1.00
C480   C     0.08811   0.74583   0.23257   0.00000  Uiso   1.00
C481   C     0.22440   0.79582   0.25573   0.00000  Uiso   1.00
C482   C     0.58318   0.49442   0.94947   0.00000  Uiso   1.00
C483   C     0.28159   0.86071   0.26228   0.00000  Uiso   1.00
H484   H     0.87034   0.09267   0.48416   0.00000  Uiso   1.00
H485   H     0.21181   0.69630   0.15268   0.00000  Uiso   1.00
H486   H     0.80074   0.08491   0.46661   0.00000  Uiso   1.00
H487   H     0.93348   0.16372   0.48699   0.00000  Uiso   1.00
H488   H     0.21814   0.62599   0.17500   0.00000  Uiso   1.00
H489   H     0.72091   0.07590   0.46742   0.00000  Uiso   1.00
H490   H     0.33416   0.90876   0.17706   0.00000  Uiso   1.00
H491   H     0.18315   0.75614   0.30695   0.00000  Uiso   1.00
H492   H     0.52349   0.35959   0.98405   0.00000  Uiso   1.00
H493   H     0.11242   0.74821   0.29798   0.00000  Uiso   1.00
H494   H     0.57850   0.49369   0.98502   0.00000  Uiso   1.00
H495   H     0.53390   0.28992   0.97534   0.00000  Uiso   1.00
H496   H     0.03666   0.73983   0.26776   0.00000  Uiso   1.00
H497   H     0.31658   0.90602   0.31073   0.00000  Uiso   1.00
O498   O     0.21432   0.58309   0.24587   0.00000  Uiso   1.00
O499   O     0.99929   0.73604   0.19220   0.00000  Uiso   1.00
O500   O     0.36654   0.95408   0.24858   0.00000  Uiso   1.00
N501   N     0.21305   0.63403   0.20503   0.00000  Uiso   1.00
N502   N     0.05981   0.74301   0.16678   0.00000  Uiso   1.00
N503   N     0.32150   0.89839   0.20695   0.00000  Uiso   1.00
N504   N     0.20360   0.63255   0.27696   0.00000  Uiso   1.00
N505   N     0.05035   0.74154   0.23871   0.00000  Uiso   1.00
N506   N     0.31205   0.89692   0.27888   0.00000  Uiso   1.00
C507   C     0.86564   0.09194   0.51993   0.00000  Uiso   1.00
C508   C     0.86722   0.05725   0.54259   0.00000  Uiso   1.00
C509   C     0.87380   0.02890   0.52157   0.00000  Uiso   1.00
C510   C     0.87413   0.99954   0.54816   0.00000  Uiso   1.00
C511   C     0.87748   0.94580   0.57635   0.00000  Uiso   1.00
C512   C     0.82498   0.08728   0.53204   0.00000  Uiso   1.00
C513   C     0.46272   0.41752   0.83550   0.00000  Uiso   1.00
C514   C     0.76083   0.08011   0.51988   0.00000  Uiso   1.00
C515   C     0.69861   0.07303   0.53170   0.00000  Uiso   1.00
C516   C     0.56377   0.46343   0.87645   0.00000  Uiso   1.00
C517   C     0.59548   0.49634   0.85588   0.00000  Uiso   1.00
C518   C     0.95431   0.19499   0.54958   0.00000  Uiso   1.00
C519   C     0.00408   0.25439   0.57860   0.00000  Uiso   1.00
C520   C     0.85452   0.09020   0.60452   0.00000  Uiso   1.00
C521   C     0.86117   0.05631   0.58853   0.00000  Uiso   1.00
C522   C     0.86150   0.02698   0.61516   0.00000  Uiso   1.00
C523   C     0.86809   0.99859   0.59419   0.00000  Uiso   1.00
C524   C     0.81893   0.08634   0.57799   0.00000  Uiso   1.00
C525   C     0.78375   0.08227   0.59575   0.00000  Uiso   1.00
C526   C     0.75478   0.07916   0.56591   0.00000  Uiso   1.00
C527   C     0.89106   0.12915   0.58906   0.00000  Uiso   1.00
C528   C     0.24985   0.82776   0.28280   0.00000  Uiso   1.00
C529   C     0.94826   0.19404   0.59561   0.00000  Uiso   1.00
H530   H     0.53701   0.42600   0.81749   0.00000  Uiso   1.00
H531   H     0.87847   0.02963   0.48601   0.00000  Uiso   1.00
H532   H     0.46740   0.41825   0.79994   0.00000  Uiso   1.00
H533   H     0.60015   0.49706   0.82032   0.00000  Uiso   1.00
H534   H     0.88481   0.95932   0.50833   0.00000  Uiso   1.00
H535   H     0.38757   0.40923   0.80075   0.00000  Uiso   1.00
H536   H     0.00082   0.24209   0.51039   0.00000  Uiso   1.00
H537   H     0.84981   0.08947   0.64029   0.00000  Uiso   1.00
H538   H     0.19016   0.69293   0.31738   0.00000  Uiso   1.00
H539   H     0.77908   0.08154   0.63131   0.00000  Uiso   1.00
H540   H     0.24516   0.82702   0.31835   0.00000  Uiso   1.00
H541   H     0.20057   0.62325   0.30867   0.00000  Uiso   1.00
H542   H     0.70333   0.07317   0.60110   0.00000  Uiso   1.00
H543   H     0.98325   0.23935   0.64407   0.00000  Uiso   1.00
O544   O     0.88099   0.91642   0.57921   0.00000  Uiso   1.00
O545   O     0.66596   0.06938   0.52553   0.00000  Uiso   1.00
O546   O     0.03320   0.28741   0.58191   0.00000  Uiso   1.00
N547   N     0.87972   0.96736   0.53836   0.00000  Uiso   1.00
N548   N     0.72648   0.07635   0.50011   0.00000  Uiso   1.00
N549   N     0.98817   0.23172   0.54029   0.00000  Uiso   1.00
N550   N     0.87026   0.96589   0.61029   0.00000  Uiso   1.00
N551   N     0.71702   0.07487   0.57204   0.00000  Uiso   1.00
N552   N     0.97871   0.23025   0.61222   0.00000  Uiso   1.00
C553   C     0.89296   0.46769   0.85326   0.00000  Uiso   1.00
C554   C     0.85670   0.46612   0.87592   0.00000  Uiso   1.00
C555   C     0.82176   0.45953   0.85490   0.00000  Uiso   1.00
C556   C     0.79207   0.45920   0.88149   0.00000  Uiso   1.00
C557   C     0.73499   0.45585   0.90968   0.00000  Uiso   1.00
C558   C     0.92897   0.50836   0.86538   0.00000  Uiso   1.00
C559   C     0.62146   0.87062   0.16883   0.00000  Uiso   1.00
C560   C     0.98594   0.57250   0.85321   0.00000  Uiso   1.00
C561   C     0.04108   0.63472   0.86504   0.00000  Uiso   1.00
C562   C     0.56633   0.76957   0.20978   0.00000  Uiso   1.00
C563   C     0.56753   0.73785   0.18921   0.00000  Uiso   1.00
C564   C     0.90734   0.37902   0.88291   0.00000  Uiso   1.00
C565   C     0.91697   0.32925   0.91193   0.00000  Uiso   1.00
C566   C     0.90235   0.47882   0.93785   0.00000  Uiso   1.00
C567   C     0.86180   0.47216   0.92186   0.00000  Uiso   1.00
C568   C     0.83215   0.47184   0.94849   0.00000  Uiso   1.00
C569   C     0.79718   0.46525   0.92752   0.00000  Uiso   1.00
C570   C     0.93407   0.51440   0.91132   0.00000  Uiso   1.00
C571   C     0.96519   0.54959   0.92909   0.00000  Uiso   1.00
C572   C     0.99105   0.57856   0.89924   0.00000  Uiso   1.00
C573   C     0.90476   0.44227   0.92240   0.00000  Uiso   1.00
C574   C     0.24458   0.08349   0.61613   0.00000  Uiso   1.00
C575   C     0.91245   0.38507   0.92894   0.00000  Uiso   1.00
H576   H     0.55566   0.79633   0.15082   0.00000  Uiso   1.00
H577   H     0.81783   0.45486   0.81934   0.00000  Uiso   1.00
H578   H     0.61751   0.86593   0.13328   0.00000  Uiso   1.00
H579   H     0.56358   0.73319   0.15366   0.00000  Uiso   1.00
H580   H     0.74118   0.44852   0.84166   0.00000  Uiso   1.00
H581   H     0.68833   0.94576   0.13409   0.00000  Uiso   1.00
H582   H     0.90793   0.33251   0.84372   0.00000  Uiso   1.00
H583   H     0.90633   0.48352   0.97362   0.00000  Uiso   1.00
H584   H     0.16944   0.14318   0.65071   0.00000  Uiso   1.00
H585   H     0.96912   0.55425   0.96464   0.00000  Uiso   1.00
H586   H     0.24852   0.08817   0.65169   0.00000  Uiso   1.00
H587   H     0.08935   0.13276   0.64201   0.00000  Uiso   1.00
H588   H     0.03650   0.63000   0.93443   0.00000  Uiso   1.00
H589   H     0.92277   0.35008   0.97740   0.00000  Uiso   1.00
O590   O     0.70210   0.45234   0.91254   0.00000  Uiso   1.00
O591   O     0.07009   0.66738   0.85887   0.00000  Uiso   1.00
O592   O     0.92087   0.30013   0.91524   0.00000  Uiso   1.00
N593   N     0.75431   0.45361   0.87169   0.00000  Uiso   1.00
N594   N     0.01654   0.60686   0.83345   0.00000  Uiso   1.00
N595   N     0.91022   0.34516   0.87362   0.00000  Uiso   1.00
N596   N     0.76229   0.46307   0.94362   0.00000  Uiso   1.00
N597   N     0.02452   0.61631   0.90538   0.00000  Uiso   1.00
N598   N     0.91820   0.35462   0.94555   0.00000  Uiso   1.00
C599   C     0.55963   0.80103   0.18659   0.00000  Uiso   1.00
C600   C     0.52336   0.79945   0.20925   0.00000  Uiso   1.00
C601   C     0.48843   0.79286   0.18824   0.00000  Uiso   1.00
C602   C     0.45873   0.79253   0.21482   0.00000  Uiso   1.00
C603   C     0.40166   0.78919   0.24302   0.00000  Uiso   1.00
C604   C     0.59563   0.84169   0.19871   0.00000  Uiso   1.00
C605   C     0.28813   0.20395   0.50216   0.00000  Uiso   1.00
C606   C     0.65261   0.90584   0.18655   0.00000  Uiso   1.00
C607   C     0.70775   0.96806   0.19837   0.00000  Uiso   1.00
C608   C     0.23299   0.10290   0.54312   0.00000  Uiso   1.00
C609   C     0.23419   0.07118   0.52254   0.00000  Uiso   1.00
C610   C     0.57401   0.71235   0.21625   0.00000  Uiso   1.00
C611   C     0.58364   0.66259   0.24526   0.00000  Uiso   1.00
C612   C     0.56902   0.81215   0.27118   0.00000  Uiso   1.00
C613   C     0.52847   0.80549   0.25520   0.00000  Uiso   1.00
C614   C     0.49882   0.80517   0.28183   0.00000  Uiso   1.00
C615   C     0.46384   0.79858   0.26085   0.00000  Uiso   1.00
C616   C     0.60074   0.84773   0.24465   0.00000  Uiso   1.00
C617   C     0.63185   0.88292   0.26242   0.00000  Uiso   1.00
C618   C     0.65772   0.91189   0.23257   0.00000  Uiso   1.00
C619   C     0.57143   0.77560   0.25573   0.00000  Uiso   1.00
C620   C     0.91124   0.41682   0.94947   0.00000  Uiso   1.00
C621   C     0.57912   0.71841   0.26228   0.00000  Uiso   1.00
H622   H     0.22233   0.12966   0.48416   0.00000  Uiso   1.00
H623   H     0.48449   0.78819   0.15268   0.00000  Uiso   1.00
H624   H     0.28418   0.19926   0.46661   0.00000  Uiso   1.00
H625   H     0.23024   0.06652   0.48699   0.00000  Uiso   1.00
H626   H     0.40785   0.78186   0.17500   0.00000  Uiso   1.00
H627   H     0.35500   0.27909   0.46742   0.00000  Uiso   1.00
H628   H     0.57460   0.66584   0.17706   0.00000  Uiso   1.00
H629   H     0.57299   0.81685   0.30695   0.00000  Uiso   1.00
H630   H     0.83611   0.47651   0.98405   0.00000  Uiso   1.00
H631   H     0.63579   0.88758   0.29798   0.00000  Uiso   1.00
H632   H     0.91519   0.42150   0.98502   0.00000  Uiso   1.00
H633   H     0.75602   0.46610   0.97534   0.00000  Uiso   1.00
H634   H     0.70317   0.96334   0.26776   0.00000  Uiso   1.00
H635   H     0.58944   0.68342   0.31073   0.00000  Uiso   1.00
O636   O     0.36877   0.78568   0.24587   0.00000  Uiso   1.00
O637   O     0.73675   0.00071   0.19220   0.00000  Uiso   1.00
O638   O     0.58754   0.63346   0.24858   0.00000  Uiso   1.00
N639   N     0.42097   0.78695   0.20503   0.00000  Uiso   1.00
N640   N     0.68320   0.94019   0.16678   0.00000  Uiso   1.00
N641   N     0.57689   0.67850   0.20695   0.00000  Uiso   1.00
N642   N     0.42896   0.79640   0.27696   0.00000  Uiso   1.00
N643   N     0.69119   0.94965   0.23871   0.00000  Uiso   1.00
N644   N     0.58487   0.68795   0.27888   0.00000  Uiso   1.00
C645   C     0.22630   0.13436   0.51993   0.00000  Uiso   1.00
C646   C     0.19003   0.13278   0.54259   0.00000  Uiso   1.00
C647   C     0.15510   0.12620   0.52157   0.00000  Uiso   1.00
C648   C     0.12540   0.12587   0.54816   0.00000  Uiso   1.00
C649   C     0.06832   0.12252   0.57635   0.00000  Uiso   1.00
C650   C     0.26230   0.17502   0.53204   0.00000  Uiso   1.00
C651   C     0.95480   0.53728   0.83550   0.00000  Uiso   1.00
C652   C     0.31928   0.23917   0.51988   0.00000  Uiso   1.00
C653   C     0.37442   0.30139   0.53170   0.00000  Uiso   1.00
C654   C     0.89966   0.43623   0.87645   0.00000  Uiso   1.00
C655   C     0.90086   0.40452   0.85588   0.00000  Uiso   1.00
C656   C     0.24067   0.04569   0.54958   0.00000  Uiso   1.00
C657   C     0.25031   0.99592   0.57860   0.00000  Uiso   1.00
C658   C     0.23569   0.14548   0.60452   0.00000  Uiso   1.00
C659   C     0.19513   0.13883   0.58853   0.00000  Uiso   1.00
C660   C     0.16548   0.13850   0.61516   0.00000  Uiso   1.00
C661   C     0.13051   0.13191   0.59419   0.00000  Uiso   1.00
C662   C     0.26740   0.18107   0.57799   0.00000  Uiso   1.00
C663   C     0.29852   0.21625   0.59575   0.00000  Uiso   1.00
C664   C     0.32439   0.24522   0.56591   0.00000  Uiso   1.00
C665   C     0.23809   0.10894   0.58906   0.00000  Uiso   1.00
C666   C     0.57791   0.75015   0.28280   0.00000  Uiso   1.00
C667   C     0.24578   0.05174   0.59561   0.00000  Uiso   1.00
H668   H     0.88899   0.46299   0.81749   0.00000  Uiso   1.00
H669   H     0.15116   0.12153   0.48601   0.00000  Uiso   1.00
H670   H     0.95084   0.53260   0.79994   0.00000  Uiso   1.00
H671   H     0.89691   0.39985   0.82032   0.00000  Uiso   1.00
H672   H     0.07451   0.11519   0.50833   0.00000  Uiso   1.00
H673   H     0.02166   0.61243   0.80075   0.00000  Uiso   1.00
H674   H     0.24127   0.99918   0.51039   0.00000  Uiso   1.00
H675   H     0.23966   0.15019   0.64029   0.00000  Uiso   1.00
H676   H     0.50277   0.80984   0.31738   0.00000  Uiso   1.00
H677   H     0.30246   0.22092   0.63131   0.00000  Uiso   1.00
H678   H     0.58186   0.75484   0.31835   0.00000  Uiso   1.00
H679   H     0.42268   0.79943   0.30867   0.00000  Uiso   1.00
H680   H     0.36984   0.29667   0.60110   0.00000  Uiso   1.00
H681   H     0.25610   0.01675   0.64407   0.00000  Uiso   1.00
O682   O     0.03543   0.11901   0.57921   0.00000  Uiso   1.00
O683   O     0.40342   0.33404   0.52553   0.00000  Uiso   1.00
O684   O     0.25421   0.96680   0.58191   0.00000  Uiso   1.00
N685   N     0.08764   0.12028   0.53836   0.00000  Uiso   1.00
N686   N     0.34987   0.27352   0.50011   0.00000  Uiso   1.00
N687   N     0.24355   0.01183   0.54029   0.00000  Uiso   1.00
N688   N     0.09562   0.12974   0.61029   0.00000  Uiso   1.00
N689   N     0.35785   0.28298   0.57204   0.00000  Uiso   1.00
N690   N     0.25154   0.02129   0.61222   0.00000  Uiso   1.00
C691   C     0.57473   0.10704   0.85326   0.00000  Uiso   1.00
C692   C     0.60942   0.14330   0.87592   0.00000  Uiso   1.00
C693   C     0.63777   0.17824   0.85490   0.00000  Uiso   1.00
C694   C     0.66713   0.20793   0.88149   0.00000  Uiso   1.00
C695   C     0.72086   0.26501   0.90968   0.00000  Uiso   1.00
C696   C     0.57939   0.07103   0.86538   0.00000  Uiso   1.00
C697   C     0.24915   0.37854   0.16883   0.00000  Uiso   1.00
C698   C     0.58656   0.01406   0.85321   0.00000  Uiso   1.00
C699   C     0.59364   0.95892   0.86504   0.00000  Uiso   1.00
C700   C     0.20324   0.43367   0.20978   0.00000  Uiso   1.00
C701   C     0.17033   0.43247   0.18921   0.00000  Uiso   1.00
C702   C     0.47168   0.09266   0.88291   0.00000  Uiso   1.00
C703   C     0.41228   0.08303   0.91193   0.00000  Uiso   1.00
C704   C     0.57646   0.09765   0.93785   0.00000  Uiso   1.00
C705   C     0.61036   0.13820   0.92186   0.00000  Uiso   1.00
C706   C     0.63968   0.16785   0.94849   0.00000  Uiso   1.00
C707   C     0.66807   0.20282   0.92752   0.00000  Uiso   1.00
C708   C     0.58033   0.06593   0.91132   0.00000  Uiso   1.00
C709   C     0.58440   0.03481   0.92909   0.00000  Uiso   1.00
C710   C     0.58750   0.00895   0.89924   0.00000  Uiso   1.00
C711   C     0.53751   0.09524   0.92240   0.00000  Uiso   1.00
C712   C     0.83891   0.75542   0.61613   0.00000  Uiso   1.00
C713   C     0.47262   0.08755   0.92894   0.00000  Uiso   1.00
H714   H     0.24067   0.44434   0.15082   0.00000  Uiso   1.00
H715   H     0.63703   0.18217   0.81934   0.00000  Uiso   1.00
H716   H     0.24842   0.38249   0.13328   0.00000  Uiso   1.00
H717   H     0.16961   0.43642   0.15366   0.00000  Uiso   1.00
H718   H     0.70734   0.25882   0.84166   0.00000  Uiso   1.00
H719   H     0.25743   0.31167   0.13409   0.00000  Uiso   1.00
H720   H     0.42458   0.09207   0.84372   0.00000  Uiso   1.00
H721   H     0.57719   0.09367   0.97362   0.00000  Uiso   1.00
H722   H     0.97374   0.83056   0.65071   0.00000  Uiso   1.00
H723   H     0.58512   0.03088   0.96464   0.00000  Uiso   1.00
H724   H     0.83965   0.75148   0.65169   0.00000  Uiso   1.00
H725   H     0.04341   0.91065   0.64201   0.00000  Uiso   1.00
H726   H     0.59350   0.96350   0.93443   0.00000  Uiso   1.00
H727   H     0.42731   0.07723   0.97740   0.00000  Uiso   1.00
O728   O     0.75024   0.29790   0.91254   0.00000  Uiso   1.00
O729   O     0.59729   0.92991   0.85887   0.00000  Uiso   1.00
O730   O     0.37926   0.07913   0.91524   0.00000  Uiso   1.00
N731   N     0.69931   0.24569   0.87169   0.00000  Uiso   1.00
N732   N     0.59032   0.98346   0.83345   0.00000  Uiso   1.00
N733   N     0.43494   0.08978   0.87362   0.00000  Uiso   1.00
N734   N     0.70078   0.23771   0.94362   0.00000  Uiso   1.00
N735   N     0.59179   0.97548   0.90538   0.00000  Uiso   1.00
N736   N     0.43642   0.08180   0.94555   0.00000  Uiso   1.00
C737   C     0.24140   0.44037   0.18659   0.00000  Uiso   1.00
C738   C     0.27609   0.47664   0.20925   0.00000  Uiso   1.00
C739   C     0.30444   0.51157   0.18824   0.00000  Uiso   1.00
C740   C     0.33380   0.54127   0.21482   0.00000  Uiso   1.00
C741   C     0.38753   0.59834   0.24302   0.00000  Uiso   1.00
C742   C     0.24606   0.40437   0.19871   0.00000  Uiso   1.00
C743   C     0.91582   0.71187   0.50216   0.00000  Uiso   1.00
C744   C     0.25323   0.34739   0.18655   0.00000  Uiso   1.00
C745   C     0.26031   0.29225   0.19837   0.00000  Uiso   1.00
C746   C     0.86991   0.76701   0.54312   0.00000  Uiso   1.00
C747   C     0.83699   0.76581   0.52254   0.00000  Uiso   1.00
C748   C     0.13835   0.42599   0.21625   0.00000  Uiso   1.00
C749   C     0.07895   0.41636   0.24526   0.00000  Uiso   1.00
C750   C     0.24313   0.43098   0.27118   0.00000  Uiso   1.00
C751   C     0.27703   0.47153   0.25520   0.00000  Uiso   1.00
C752   C     0.30635   0.50118   0.28183   0.00000  Uiso   1.00
C753   C     0.33474   0.53616   0.26085   0.00000  Uiso   1.00
C754   C     0.24700   0.39926   0.24465   0.00000  Uiso   1.00
C755   C     0.25107   0.36815   0.26242   0.00000  Uiso   1.00
C756   C     0.25417   0.34228   0.23257   0.00000  Uiso   1.00
C757   C     0.20418   0.42857   0.25573   0.00000  Uiso   1.00
C758   C     0.50558   0.08876   0.94947   0.00000  Uiso   1.00
C759   C     0.13929   0.42088   0.26228   0.00000  Uiso   1.00
H760   H     0.90733   0.77767   0.48416   0.00000  Uiso   1.00
H761   H     0.30370   0.51551   0.15268   0.00000  Uiso   1.00
H762   H     0.91509   0.71582   0.46661   0.00000  Uiso   1.00
H763   H     0.83628   0.76976   0.48699   0.00000  Uiso   1.00
H764   H     0.37401   0.59215   0.17500   0.00000  Uiso   1.00
H765   H     0.92410   0.64500   0.46742   0.00000  Uiso   1.00
H766   H     0.09124   0.42540   0.17706   0.00000  Uiso   1.00
H767   H     0.24386   0.42701   0.30695   0.00000  Uiso   1.00
H768   H     0.64041   0.16389   0.98405   0.00000  Uiso   1.00
H769   H     0.25179   0.36421   0.29798   0.00000  Uiso   1.00
H770   H     0.50631   0.08481   0.98502   0.00000  Uiso   1.00
H771   H     0.71008   0.24398   0.97534   0.00000  Uiso   1.00
H772   H     0.26017   0.29683   0.26776   0.00000  Uiso   1.00
H773   H     0.09398   0.41056   0.31073   0.00000  Uiso   1.00
O774   O     0.41691   0.63123   0.24587   0.00000  Uiso   1.00
O775   O     0.26396   0.26325   0.19220   0.00000  Uiso   1.00
O776   O     0.04592   0.41246   0.24858   0.00000  Uiso   1.00
N777   N     0.36597   0.57903   0.20503   0.00000  Uiso   1.00
N778   N     0.25699   0.31680   0.16678   0.00000  Uiso   1.00
N779   N     0.10161   0.42311   0.20695   0.00000  Uiso   1.00
N780   N     0.36745   0.57104   0.27696   0.00000  Uiso   1.00
N781   N     0.25846   0.30881   0.23871   0.00000  Uiso   1.00
N782   N     0.10308   0.41513   0.27888   0.00000  Uiso   1.00
C783   C     0.90806   0.77370   0.51993   0.00000  Uiso   1.00
C784   C     0.94275   0.80997   0.54259   0.00000  Uiso   1.00
C785   C     0.97110   0.84490   0.52157   0.00000  Uiso   1.00
C786   C     0.00046   0.87460   0.54816   0.00000  Uiso   1.00
C787   C     0.05420   0.93168   0.57635   0.00000  Uiso   1.00
C788   C     0.91272   0.73770   0.53204   0.00000  Uiso   1.00
C789   C     0.58248   0.04520   0.83550   0.00000  Uiso   1.00
C790   C     0.91989   0.68072   0.51988   0.00000  Uiso   1.00
C791   C     0.92697   0.62558   0.53170   0.00000  Uiso   1.00
C792   C     0.53657   0.10034   0.87645   0.00000  Uiso   1.00
C793   C     0.50366   0.09914   0.85588   0.00000  Uiso   1.00
C794   C     0.80501   0.75933   0.54958   0.00000  Uiso   1.00
C795   C     0.74561   0.74969   0.57860   0.00000  Uiso   1.00
C796   C     0.90980   0.76431   0.60452   0.00000  Uiso   1.00
C797   C     0.94369   0.80487   0.58853   0.00000  Uiso   1.00
C798   C     0.97302   0.83452   0.61516   0.00000  Uiso   1.00
C799   C     0.00141   0.86949   0.59419   0.00000  Uiso   1.00
C800   C     0.91366   0.73260   0.57799   0.00000  Uiso   1.00
C801   C     0.91773   0.70148   0.59575   0.00000  Uiso   1.00
C802   C     0.92084   0.67561   0.56591   0.00000  Uiso   1.00
C803   C     0.87085   0.76191   0.58906   0.00000  Uiso   1.00
C804   C     0.17224   0.42209   0.28280   0.00000  Uiso   1.00
C805   C     0.80596   0.75422   0.59561   0.00000  Uiso   1.00
H806   H     0.57400   0.11101   0.81749   0.00000  Uiso   1.00
H807   H     0.97037   0.84884   0.48601   0.00000  Uiso   1.00
H808   H     0.58175   0.04916   0.79994   0.00000  Uiso   1.00
H809   H     0.50294   0.10309   0.82032   0.00000  Uiso   1.00
H810   H     0.04068   0.92549   0.50833   0.00000  Uiso   1.00
H811   H     0.59077   0.97834   0.80075   0.00000  Uiso   1.00
H812   H     0.75791   0.75873   0.51039   0.00000  Uiso   1.00
H813   H     0.91053   0.76034   0.64029   0.00000  Uiso   1.00
H814   H     0.30707   0.49723   0.31738   0.00000  Uiso   1.00
H815   H     0.91846   0.69754   0.63131   0.00000  Uiso   1.00
H816   H     0.17298   0.41814   0.31835   0.00000  Uiso   1.00
H817   H     0.37675   0.57732   0.30867   0.00000  Uiso   1.00
H818   H     0.92683   0.63016   0.60110   0.00000  Uiso   1.00
H819   H     0.76065   0.74390   0.64407   0.00000  Uiso   1.00
O820   O     0.08358   0.96457   0.57921   0.00000  Uiso   1.00
O821   O     0.93062   0.59658   0.52553   0.00000  Uiso   1.00
O822   O     0.71259   0.74579   0.58191   0.00000  Uiso   1.00
N823   N     0.03264   0.91236   0.53836   0.00000  Uiso   1.00
N824   N     0.92365   0.65013   0.50011   0.00000  Uiso   1.00
N825   N     0.76828   0.75645   0.54029   0.00000  Uiso   1.00
N826   N     0.03411   0.90438   0.61029   0.00000  Uiso   1.00
N827   N     0.92513   0.64215   0.57204   0.00000  Uiso   1.00
N828   N     0.76975   0.74846   0.61222   0.00000  Uiso   1.00
C829   C     0.57473   0.46769   0.35326   0.00000  Uiso   1.00
C830   C     0.60942   0.46612   0.37592   0.00000  Uiso   1.00
C831   C     0.63777   0.45953   0.35490   0.00000  Uiso   1.00
C832   C     0.66713   0.45920   0.38149   0.00000  Uiso   1.00
C833   C     0.72086   0.45585   0.40968   0.00000  Uiso   1.00
C834   C     0.57939   0.50836   0.36538   0.00000  Uiso   1.00
C835   C     0.24915   0.87062   0.66883   0.00000  Uiso   1.00
C836   C     0.58656   0.57250   0.35321   0.00000  Uiso   1.00
C837   C     0.59364   0.63472   0.36504   0.00000  Uiso   1.00
C838   C     0.20324   0.76957   0.70978   0.00000  Uiso   1.00
C839   C     0.17033   0.73785   0.68921   0.00000  Uiso   1.00
C840   C     0.47168   0.37902   0.38291   0.00000  Uiso   1.00
C841   C     0.41228   0.32925   0.41193   0.00000  Uiso   1.00
C842   C     0.57646   0.47882   0.43785   0.00000  Uiso   1.00
C843   C     0.61036   0.47216   0.42186   0.00000  Uiso   1.00
C844   C     0.63968   0.47184   0.44849   0.00000  Uiso   1.00
C845   C     0.66807   0.46525   0.42752   0.00000  Uiso   1.00
C846   C     0.58033   0.51440   0.41132   0.00000  Uiso   1.00
C847   C     0.58440   0.54959   0.42909   0.00000  Uiso   1.00
C848   C     0.58750   0.57856   0.39924   0.00000  Uiso   1.00
C849   C     0.53751   0.44227   0.42240   0.00000  Uiso   1.00
C850   C     0.83891   0.08349   0.11613   0.00000  Uiso   1.00
C851   C     0.47262   0.38507   0.42894   0.00000  Uiso   1.00
H852   H     0.24067   0.79633   0.65082   0.00000  Uiso   1.00
H853   H     0.63703   0.45486   0.31934   0.00000  Uiso   1.00
H854   H     0.24842   0.86593   0.63328   0.00000  Uiso   1.00
H855   H     0.16961   0.73319   0.65366   0.00000  Uiso   1.00
H856   H     0.70734   0.44852   0.34166   0.00000  Uiso   1.00
H857   H     0.25743   0.94576   0.63409   0.00000  Uiso   1.00
H858   H     0.42458   0.33251   0.34372   0.00000  Uiso   1.00
H859   H     0.57719   0.48352   0.47362   0.00000  Uiso   1.00
H860   H     0.97374   0.14318   0.15071   0.00000  Uiso   1.00
H861   H     0.58512   0.55425   0.46464   0.00000  Uiso   1.00
H862   H     0.83965   0.08817   0.15169   0.00000  Uiso   1.00
H863   H     0.04341   0.13276   0.14201   0.00000  Uiso   1.00
H864   H     0.59350   0.63000   0.43443   0.00000  Uiso   1.00
H865   H     0.42731   0.35008   0.47740   0.00000  Uiso   1.00
O866   O     0.75024   0.45234   0.41254   0.00000  Uiso   1.00
O867   O     0.59729   0.66738   0.35887   0.00000  Uiso   1.00
O868   O     0.37926   0.30013   0.41524   0.00000  Uiso   1.00
N869   N     0.69931   0.45361   0.37169   0.00000  Uiso   1.00
N870   N     0.59032   0.60686   0.33345   0.00000  Uiso   1.00
N871   N     0.43494   0.34516   0.37362   0.00000  Uiso   1.00
N872   N     0.70078   0.46307   0.44362   0.00000  Uiso   1.00
N873   N     0.59179   0.61631   0.40538   0.00000  Uiso   1.00
N874   N     0.43642   0.35462   0.44555   0.00000  Uiso   1.00
C875   C     0.24140   0.80103   0.68659   0.00000  Uiso   1.00
C876   C     0.27609   0.79945   0.70925   0.00000  Uiso   1.00
C877   C     0.30444   0.79286   0.68824   0.00000  Uiso   1.00
C878   C     0.33380   0.79253   0.71482   0.00000  Uiso   1.00
C879   C     0.38753   0.78919   0.74302   0.00000  Uiso   1.00
C880   C     0.24606   0.84169   0.69871   0.00000  Uiso   1.00
C881   C     0.91582   0.20395   0.00216   0.00000  Uiso   1.00
C882   C     0.25323   0.90584   0.68655   0.00000  Uiso   1.00
C883   C     0.26031   0.96806   0.69837   0.00000  Uiso   1.00
C884   C     0.86991   0.10290   0.04312   0.00000  Uiso   1.00
C885   C     0.83699   0.07118   0.02254   0.00000  Uiso   1.00
C886   C     0.13835   0.71235   0.71625   0.00000  Uiso   1.00
C887   C     0.07895   0.66259   0.74526   0.00000  Uiso   1.00
C888   C     0.24313   0.81215   0.77118   0.00000  Uiso   1.00
C889   C     0.27703   0.80549   0.75520   0.00000  Uiso   1.00
C890   C     0.30635   0.80517   0.78183   0.00000  Uiso   1.00
C891   C     0.33474   0.79858   0.76085   0.00000  Uiso   1.00
C892   C     0.24700   0.84773   0.74465   0.00000  Uiso   1.00
C893   C     0.25107   0.88292   0.76242   0.00000  Uiso   1.00
C894   C     0.25417   0.91189   0.73257   0.00000  Uiso   1.00
C895   C     0.20418   0.77560   0.75573   0.00000  Uiso   1.00
C896   C     0.50558   0.41682   0.44947   0.00000  Uiso   1.00
C897   C     0.13929   0.71841   0.76228   0.00000  Uiso   1.00
H898   H     0.90733   0.12966   0.98416   0.00000  Uiso   1.00
H899   H     0.30370   0.78819   0.65268   0.00000  Uiso   1.00
H900   H     0.91509   0.19926   0.96661   0.00000  Uiso   1.00
H901   H     0.83628   0.06652   0.98699   0.00000  Uiso   1.00
H902   H     0.37401   0.78186   0.67500   0.00000  Uiso   1.00
H903   H     0.92410   0.27909   0.96742   0.00000  Uiso   1.00
H904   H     0.09124   0.66584   0.67706   0.00000  Uiso   1.00
H905   H     0.24386   0.81685   0.80695   0.00000  Uiso   1.00
H906   H     0.64041   0.47651   0.48405   0.00000  Uiso   1.00
H907   H     0.25179   0.88758   0.79798   0.00000  Uiso   1.00
H908   H     0.50631   0.42150   0.48502   0.00000  Uiso   1.00
H909   H     0.71008   0.46610   0.47534   0.00000  Uiso   1.00
H910   H     0.26017   0.96334   0.76776   0.00000  Uiso   1.00
H911   H     0.09398   0.68342   0.81073   0.00000  Uiso   1.00
O912   O     0.41691   0.78568   0.74587   0.00000  Uiso   1.00
O913   O     0.26396   0.00071   0.69220   0.00000  Uiso   1.00
O914   O     0.04592   0.63346   0.74858   0.00000  Uiso   1.00
N915   N     0.36597   0.78695   0.70503   0.00000  Uiso   1.00
N916   N     0.25699   0.94019   0.66678   0.00000  Uiso   1.00
N917   N     0.10161   0.67850   0.70695   0.00000  Uiso   1.00
N918   N     0.36745   0.79640   0.77696   0.00000  Uiso   1.00
N919   N     0.25846   0.94965   0.73871   0.00000  Uiso   1.00
N920   N     0.10308   0.68795   0.77888   0.00000  Uiso   1.00
C921   C     0.90806   0.13436   0.01993   0.00000  Uiso   1.00
C922   C     0.94275   0.13278   0.04259   0.00000  Uiso   1.00
C923   C     0.97110   0.12620   0.02157   0.00000  Uiso   1.00
C924   C     0.00046   0.12587   0.04816   0.00000  Uiso   1.00
C925   C     0.05420   0.12252   0.07635   0.00000  Uiso   1.00
C926   C     0.91272   0.17502   0.03204   0.00000  Uiso   1.00
C927   C     0.58248   0.53728   0.33550   0.00000  Uiso   1.00
C928   C     0.91989   0.23917   0.01988   0.00000  Uiso   1.00
C929   C     0.92697   0.30139   0.03170   0.00000  Uiso   1.00
C930   C     0.53657   0.43623   0.37645   0.00000  Uiso   1.00
C931   C     0.50366   0.40452   0.35588   0.00000  Uiso   1.00
C932   C     0.80501   0.04569   0.04958   0.00000  Uiso   1.00
C933   C     0.74561   0.99592   0.07860   0.00000  Uiso   1.00
C934   C     0.90980   0.14548   0.10452   0.00000  Uiso   1.00
C935   C     0.94369   0.13883   0.08853   0.00000  Uiso   1.00
C936   C     0.97302   0.13850   0.11516   0.00000  Uiso   1.00
C937   C     0.00141   0.13191   0.09419   0.00000  Uiso   1.00
C938   C     0.91366   0.18107   0.07799   0.00000  Uiso   1.00
C939   C     0.91773   0.21625   0.09575   0.00000  Uiso   1.00
C940   C     0.92084   0.24522   0.06591   0.00000  Uiso   1.00
C941   C     0.87085   0.10894   0.08906   0.00000  Uiso   1.00
C942   C     0.17224   0.75015   0.78280   0.00000  Uiso   1.00
C943   C     0.80596   0.05174   0.09561   0.00000  Uiso   1.00
H944   H     0.57400   0.46299   0.31749   0.00000  Uiso   1.00
H945   H     0.97037   0.12153   0.98601   0.00000  Uiso   1.00
H946   H     0.58175   0.53260   0.29994   0.00000  Uiso   1.00
H947   H     0.50294   0.39985   0.32032   0.00000  Uiso   1.00
H948   H     0.04068   0.11519   0.00833   0.00000  Uiso   1.00
H949   H     0.59077   0.61243   0.30075   0.00000  Uiso   1.00
H950   H     0.75791   0.99918   0.01039   0.00000  Uiso   1.00
H951   H     0.91053   0.15019   0.14029   0.00000  Uiso   1.00
H952   H     0.30707   0.80984   0.81738   0.00000  Uiso   1.00
H953   H     0.91846   0.22092   0.13131   0.00000  Uiso   1.00
H954   H     0.17298   0.75484   0.81835   0.00000  Uiso   1.00
H955   H     0.37675   0.79943   0.80867   0.00000  Uiso   1.00
H956   H     0.92683   0.29667   0.10110   0.00000  Uiso   1.00
H957   H     0.76065   0.01675   0.14407   0.00000  Uiso   1.00
O958   O     0.08358   0.11901   0.07921   0.00000  Uiso   1.00
O959   O     0.93062   0.33404   0.02553   0.00000  Uiso   1.00
O960   O     0.71259   0.96680   0.08191   0.00000  Uiso   1.00
N961   N     0.03264   0.12028   0.03836   0.00000  Uiso   1.00
N962   N     0.92365   0.27352   0.00011   0.00000  Uiso   1.00
N963   N     0.76828   0.01183   0.04029   0.00000  Uiso   1.00
N964   N     0.03411   0.12974   0.11029   0.00000  Uiso   1.00
N965   N     0.92513   0.28298   0.07204   0.00000  Uiso   1.00
N966   N     0.76975   0.02129   0.11222   0.00000  Uiso   1.00
C967   C     0.53231   0.10704   0.35326   0.00000  Uiso   1.00
C968   C     0.53388   0.14330   0.37592   0.00000  Uiso   1.00
C969   C     0.54047   0.17824   0.35490   0.00000  Uiso   1.00
C970   C     0.54080   0.20793   0.38149   0.00000  Uiso   1.00
C971   C     0.54415   0.26501   0.40968   0.00000  Uiso   1.00
C972   C     0.49164   0.07103   0.36538   0.00000  Uiso   1.00
C973   C     0.12938   0.37854   0.66883   0.00000  Uiso   1.00
C974   C     0.42750   0.01406   0.35321   0.00000  Uiso   1.00
C975   C     0.36528   0.95892   0.36504   0.00000  Uiso   1.00
C976   C     0.23043   0.43367   0.70978   0.00000  Uiso   1.00
C977   C     0.26215   0.43247   0.68921   0.00000  Uiso   1.00
C978   C     0.62098   0.09266   0.38291   0.00000  Uiso   1.00
C979   C     0.67075   0.08303   0.41193   0.00000  Uiso   1.00
C980   C     0.52118   0.09765   0.43785   0.00000  Uiso   1.00
C981   C     0.52784   0.13820   0.42186   0.00000  Uiso   1.00
C982   C     0.52816   0.16785   0.44849   0.00000  Uiso   1.00
C983   C     0.53475   0.20282   0.42752   0.00000  Uiso   1.00
C984   C     0.48560   0.06593   0.41132   0.00000  Uiso   1.00
C985   C     0.45041   0.03481   0.42909   0.00000  Uiso   1.00
C986   C     0.42144   0.00895   0.39924   0.00000  Uiso   1.00
C987   C     0.55773   0.09524   0.42240   0.00000  Uiso   1.00
C988   C     0.91651   0.75542   0.11613   0.00000  Uiso   1.00
C989   C     0.61493   0.08755   0.42894   0.00000  Uiso   1.00
H990   H     0.20367   0.44434   0.65082   0.00000  Uiso   1.00
H991   H     0.54514   0.18217   0.31934   0.00000  Uiso   1.00
H992   H     0.13407   0.38249   0.63328   0.00000  Uiso   1.00
H993   H     0.26681   0.43642   0.65366   0.00000  Uiso   1.00
H994   H     0.55148   0.25882   0.34166   0.00000  Uiso   1.00
H995   H     0.05424   0.31167   0.63409   0.00000  Uiso   1.00
H996   H     0.66749   0.09207   0.34372   0.00000  Uiso   1.00
H997   H     0.51648   0.09367   0.47362   0.00000  Uiso   1.00
H998   H     0.85682   0.83056   0.15071   0.00000  Uiso   1.00
H999   H     0.44575   0.03088   0.46464   0.00000  Uiso   1.00
H1000  H     0.91183   0.75148   0.15169   0.00000  Uiso   1.00
H1001  H     0.86724   0.91065   0.14201   0.00000  Uiso   1.00
H1002  H     0.37000   0.96350   0.43443   0.00000  Uiso   1.00
H1003  H     0.64992   0.07723   0.47740   0.00000  Uiso   1.00
O1004  O     0.54766   0.29790   0.41254   0.00000  Uiso   1.00
O1005  O     0.33262   0.92991   0.35887   0.00000  Uiso   1.00
O1006  O     0.69987   0.07913   0.41524   0.00000  Uiso   1.00
N1007  N     0.54639   0.24569   0.37169   0.00000  Uiso   1.00
N1008  N     0.39314   0.98346   0.33345   0.00000  Uiso   1.00
N1009  N     0.65484   0.08978   0.37362   0.00000  Uiso   1.00
N1010  N     0.53693   0.23771   0.44362   0.00000  Uiso   1.00
N1011  N     0.38369   0.97548   0.40538   0.00000  Uiso   1.00
N1012  N     0.64538   0.08180   0.44555   0.00000  Uiso   1.00
C1013  C     0.19897   0.44037   0.68659   0.00000  Uiso   1.00
C1014  C     0.20055   0.47664   0.70925   0.00000  Uiso   1.00
C1015  C     0.20714   0.51157   0.68824   0.00000  Uiso   1.00
C1016  C     0.20747   0.54127   0.71482   0.00000  Uiso   1.00
C1017  C     0.21081   0.59834   0.74302   0.00000  Uiso   1.00
C1018  C     0.15831   0.40437   0.69871   0.00000  Uiso   1.00
C1019  C     0.79605   0.71187   0.00216   0.00000  Uiso   1.00
C1020  C     0.09416   0.34739   0.68655   0.00000  Uiso   1.00
C1021  C     0.03194   0.29225   0.69837   0.00000  Uiso   1.00
C1022  C     0.89710   0.76701   0.04312   0.00000  Uiso   1.00
C1023  C     0.92882   0.76581   0.02254   0.00000  Uiso   1.00
C1024  C     0.28765   0.42599   0.71625   0.00000  Uiso   1.00
C1025  C     0.33741   0.41636   0.74526   0.00000  Uiso   1.00
C1026  C     0.18785   0.43098   0.77118   0.00000  Uiso   1.00
C1027  C     0.19451   0.47153   0.75520   0.00000  Uiso   1.00
C1028  C     0.19483   0.50118   0.78183   0.00000  Uiso   1.00
C1029  C     0.20142   0.53616   0.76085   0.00000  Uiso   1.00
C1030  C     0.15227   0.39926   0.74465   0.00000  Uiso   1.00
C1031  C     0.11708   0.36815   0.76242   0.00000  Uiso   1.00
C1032  C     0.08811   0.34228   0.73257   0.00000  Uiso   1.00
C1033  C     0.22440   0.42857   0.75573   0.00000  Uiso   1.00
C1034  C     0.58318   0.08876   0.44947   0.00000  Uiso   1.00
C1035  C     0.28159   0.42088   0.76228   0.00000  Uiso   1.00
H1036  H     0.87034   0.77767   0.98416   0.00000  Uiso   1.00
H1037  H     0.21181   0.51551   0.65268   0.00000  Uiso   1.00
H1038  H     0.80074   0.71582   0.96661   0.00000  Uiso   1.00
H1039  H     0.93348   0.76976   0.98699   0.00000  Uiso   1.00
H1040  H     0.21814   0.59215   0.67500   0.00000  Uiso   1.00
H1041  H     0.72091   0.64500   0.96742   0.00000  Uiso   1.00
H1042  H     0.33416   0.42540   0.67706   0.00000  Uiso   1.00
H1043  H     0.18315   0.42701   0.80695   0.00000  Uiso   1.00
H1044  H     0.52349   0.16389   0.48405   0.00000  Uiso   1.00
H1045  H     0.11242   0.36421   0.79798   0.00000  Uiso   1.00
H1046  H     0.57850   0.08481   0.48502   0.00000  Uiso   1.00
H1047  H     0.53390   0.24398   0.47534   0.00000  Uiso   1.00
H1048  H     0.03666   0.29683   0.76776   0.00000  Uiso   1.00
H1049  H     0.31658   0.41056   0.81073   0.00000  Uiso   1.00
O1050  O     0.21432   0.63123   0.74587   0.00000  Uiso   1.00
O1051  O     0.99929   0.26325   0.69220   0.00000  Uiso   1.00
O1052  O     0.36654   0.41246   0.74858   0.00000  Uiso   1.00
N1053  N     0.21305   0.57903   0.70503   0.00000  Uiso   1.00
N1054  N     0.05981   0.31680   0.66678   0.00000  Uiso   1.00
N1055  N     0.32150   0.42311   0.70695   0.00000  Uiso   1.00
N1056  N     0.20360   0.57104   0.77696   0.00000  Uiso   1.00
N1057  N     0.05035   0.30881   0.73871   0.00000  Uiso   1.00
N1058  N     0.31205   0.41513   0.77888   0.00000  Uiso   1.00
C1059  C     0.86564   0.77370   0.01993   0.00000  Uiso   1.00
C1060  C     0.86722   0.80997   0.04259   0.00000  Uiso   1.00
C1061  C     0.87380   0.84490   0.02157   0.00000  Uiso   1.00
C1062  C     0.87413   0.87460   0.04816   0.00000  Uiso   1.00
C1063  C     0.87748   0.93168   0.07635   0.00000  Uiso   1.00
C1064  C     0.82498   0.73770   0.03204   0.00000  Uiso   1.00
C1065  C     0.46272   0.04520   0.33550   0.00000  Uiso   1.00
C1066  C     0.76083   0.68072   0.01988   0.00000  Uiso   1.00
C1067  C     0.69861   0.62558   0.03170   0.00000  Uiso   1.00
C1068  C     0.56377   0.10034   0.37645   0.00000  Uiso   1.00
C1069  C     0.59548   0.09914   0.35588   0.00000  Uiso   1.00
C1070  C     0.95431   0.75933   0.04958   0.00000  Uiso   1.00
C1071  C     0.00408   0.74969   0.07860   0.00000  Uiso   1.00
C1072  C     0.85452   0.76431   0.10452   0.00000  Uiso   1.00
C1073  C     0.86117   0.80487   0.08853   0.00000  Uiso   1.00
C1074  C     0.86150   0.83452   0.11516   0.00000  Uiso   1.00
C1075  C     0.86809   0.86949   0.09419   0.00000  Uiso   1.00
C1076  C     0.81893   0.73260   0.07799   0.00000  Uiso   1.00
C1077  C     0.78375   0.70148   0.09575   0.00000  Uiso   1.00
C1078  C     0.75478   0.67561   0.06591   0.00000  Uiso   1.00
C1079  C     0.89106   0.76191   0.08906   0.00000  Uiso   1.00
C1080  C     0.24985   0.42209   0.78280   0.00000  Uiso   1.00
C1081  C     0.94826   0.75422   0.09561   0.00000  Uiso   1.00
H1082  H     0.53701   0.11101   0.31749   0.00000  Uiso   1.00
H1083  H     0.87847   0.84884   0.98601   0.00000  Uiso   1.00
H1084  H     0.46740   0.04916   0.29994   0.00000  Uiso   1.00
H1085  H     0.60015   0.10309   0.32032   0.00000  Uiso   1.00
H1086  H     0.88481   0.92549   0.00833   0.00000  Uiso   1.00
H1087  H     0.38757   0.97834   0.30075   0.00000  Uiso   1.00
H1088  H     0.00082   0.75873   0.01039   0.00000  Uiso   1.00
H1089  H     0.84981   0.76034   0.14029   0.00000  Uiso   1.00
H1090  H     0.19016   0.49723   0.81738   0.00000  Uiso   1.00
H1091  H     0.77908   0.69754   0.13131   0.00000  Uiso   1.00
H1092  H     0.24516   0.41814   0.81835   0.00000  Uiso   1.00
H1093  H     0.20057   0.57732   0.80867   0.00000  Uiso   1.00
H1094  H     0.70333   0.63016   0.10110   0.00000  Uiso   1.00
H1095  H     0.98325   0.74390   0.14407   0.00000  Uiso   1.00
O1096  O     0.88099   0.96457   0.07921   0.00000  Uiso   1.00
O1097  O     0.66596   0.59658   0.02553   0.00000  Uiso   1.00
O1098  O     0.03320   0.74579   0.08191   0.00000  Uiso   1.00
N1099  N     0.87972   0.91236   0.03836   0.00000  Uiso   1.00
N1100  N     0.72648   0.65013   0.00011   0.00000  Uiso   1.00
N1101  N     0.98817   0.75645   0.04029   0.00000  Uiso   1.00
N1102  N     0.87026   0.90438   0.11029   0.00000  Uiso   1.00
N1103  N     0.71702   0.64215   0.07204   0.00000  Uiso   1.00
N1104  N     0.97871   0.74846   0.11222   0.00000  Uiso   1.00
C1105  C     0.89296   0.42527   0.35326   0.00000  Uiso   1.00
C1106  C     0.85670   0.39058   0.37592   0.00000  Uiso   1.00
C1107  C     0.82176   0.36223   0.35490   0.00000  Uiso   1.00
C1108  C     0.79207   0.33287   0.38149   0.00000  Uiso   1.00
C1109  C     0.73499   0.27914   0.40968   0.00000  Uiso   1.00
C1110  C     0.92897   0.42061   0.36538   0.00000  Uiso   1.00
C1111  C     0.62146   0.75085   0.66883   0.00000  Uiso   1.00
C1112  C     0.98594   0.41344   0.35321   0.00000  Uiso   1.00
C1113  C     0.04108   0.40636   0.36504   0.00000  Uiso   1.00
C1114  C     0.56633   0.79676   0.70978   0.00000  Uiso   1.00
C1115  C     0.56753   0.82967   0.68921   0.00000  Uiso   1.00
C1116  C     0.90734   0.52832   0.38291   0.00000  Uiso   1.00
C1117  C     0.91697   0.58772   0.41193   0.00000  Uiso   1.00
C1118  C     0.90235   0.42354   0.43785   0.00000  Uiso   1.00
C1119  C     0.86180   0.38964   0.42186   0.00000  Uiso   1.00
C1120  C     0.83215   0.36032   0.44849   0.00000  Uiso   1.00
C1121  C     0.79718   0.33193   0.42752   0.00000  Uiso   1.00
C1122  C     0.93407   0.41967   0.41132   0.00000  Uiso   1.00
C1123  C     0.96519   0.41560   0.42909   0.00000  Uiso   1.00
C1124  C     0.99105   0.41250   0.39924   0.00000  Uiso   1.00
C1125  C     0.90476   0.46249   0.42240   0.00000  Uiso   1.00
C1126  C     0.24458   0.16109   0.11613   0.00000  Uiso   1.00
C1127  C     0.91245   0.52738   0.42894   0.00000  Uiso   1.00
H1128  H     0.55566   0.75933   0.65082   0.00000  Uiso   1.00
H1129  H     0.81783   0.36297   0.31934   0.00000  Uiso   1.00
H1130  H     0.61751   0.75158   0.63328   0.00000  Uiso   1.00
H1131  H     0.56358   0.83039   0.65366   0.00000  Uiso   1.00
H1132  H     0.74118   0.29266   0.34166   0.00000  Uiso   1.00
H1133  H     0.68833   0.74257   0.63409   0.00000  Uiso   1.00
H1134  H     0.90793   0.57542   0.34372   0.00000  Uiso   1.00
H1135  H     0.90633   0.42281   0.47362   0.00000  Uiso   1.00
H1136  H     0.16944   0.02626   0.15071   0.00000  Uiso   1.00
H1137  H     0.96912   0.41488   0.46464   0.00000  Uiso   1.00
H1138  H     0.24852   0.16035   0.15169   0.00000  Uiso   1.00
H1139  H     0.08935   0.95659   0.14201   0.00000  Uiso   1.00
H1140  H     0.03650   0.40650   0.43443   0.00000  Uiso   1.00
H1141  H     0.92277   0.57269   0.47740   0.00000  Uiso   1.00
O1142  O     0.70210   0.24976   0.41254   0.00000  Uiso   1.00
O1143  O     0.07009   0.40271   0.35887   0.00000  Uiso   1.00
O1144  O     0.92087   0.62074   0.41524   0.00000  Uiso   1.00
N1145  N     0.75431   0.30069   0.37169   0.00000  Uiso   1.00
N1146  N     0.01654   0.40968   0.33345   0.00000  Uiso   1.00
N1147  N     0.91022   0.56506   0.37362   0.00000  Uiso   1.00
N1148  N     0.76229   0.29922   0.44362   0.00000  Uiso   1.00
N1149  N     0.02452   0.40821   0.40538   0.00000  Uiso   1.00
N1150  N     0.91820   0.56358   0.44555   0.00000  Uiso   1.00
C1151  C     0.55963   0.75860   0.68659   0.00000  Uiso   1.00
C1152  C     0.52336   0.72391   0.70925   0.00000  Uiso   1.00
C1153  C     0.48843   0.69556   0.68824   0.00000  Uiso   1.00
C1154  C     0.45873   0.66620   0.71482   0.00000  Uiso   1.00
C1155  C     0.40166   0.61247   0.74302   0.00000  Uiso   1.00
C1156  C     0.59563   0.75394   0.69871   0.00000  Uiso   1.00
C1157  C     0.28813   0.08418   0.00216   0.00000  Uiso   1.00
C1158  C     0.65261   0.74677   0.68655   0.00000  Uiso   1.00
C1159  C     0.70775   0.73969   0.69837   0.00000  Uiso   1.00
C1160  C     0.23299   0.13009   0.04312   0.00000  Uiso   1.00
C1161  C     0.23419   0.16301   0.02254   0.00000  Uiso   1.00
C1162  C     0.57401   0.86165   0.71625   0.00000  Uiso   1.00
C1163  C     0.58364   0.92105   0.74526   0.00000  Uiso   1.00
C1164  C     0.56902   0.75687   0.77118   0.00000  Uiso   1.00
C1165  C     0.52847   0.72297   0.75520   0.00000  Uiso   1.00
C1166  C     0.49882   0.69365   0.78183   0.00000  Uiso   1.00
C1167  C     0.46384   0.66526   0.76085   0.00000  Uiso   1.00
C1168  C     0.60074   0.75300   0.74465   0.00000  Uiso   1.00
C1169  C     0.63185   0.74893   0.76242   0.00000  Uiso   1.00
C1170  C     0.65772   0.74583   0.73257   0.00000  Uiso   1.00
C1171  C     0.57143   0.79582   0.75573   0.00000  Uiso   1.00
C1172  C     0.91124   0.49442   0.44947   0.00000  Uiso   1.00
C1173  C     0.57912   0.86071   0.76228   0.00000  Uiso   1.00
H1174  H     0.22233   0.09267   0.98416   0.00000  Uiso   1.00
H1175  H     0.48449   0.69630   0.65268   0.00000  Uiso   1.00
H1176  H     0.28418   0.08491   0.96661   0.00000  Uiso   1.00
H1177  H     0.23024   0.16372   0.98699   0.00000  Uiso   1.00
H1178  H     0.40785   0.62599   0.67500   0.00000  Uiso   1.00
H1179  H     0.35500   0.07590   0.96742   0.00000  Uiso   1.00
H1180  H     0.57460   0.90876   0.67706   0.00000  Uiso   1.00
H1181  H     0.57299   0.75614   0.80695   0.00000  Uiso   1.00
H1182  H     0.83611   0.35959   0.48405   0.00000  Uiso   1.00
H1183  H     0.63579   0.74821   0.79798   0.00000  Uiso   1.00
H1184  H     0.91519   0.49369   0.48502   0.00000  Uiso   1.00
H1185  H     0.75602   0.28992   0.47534   0.00000  Uiso   1.00
H1186  H     0.70317   0.73983   0.76776   0.00000  Uiso   1.00
H1187  H     0.58944   0.90602   0.81073   0.00000  Uiso   1.00
O1188  O     0.36877   0.58309   0.74587   0.00000  Uiso   1.00
O1189  O     0.73675   0.73604   0.69220   0.00000  Uiso   1.00
O1190  O     0.58754   0.95408   0.74858   0.00000  Uiso   1.00
N1191  N     0.42097   0.63403   0.70503   0.00000  Uiso   1.00
N1192  N     0.68320   0.74301   0.66678   0.00000  Uiso   1.00
N1193  N     0.57689   0.89839   0.70695   0.00000  Uiso   1.00
N1194  N     0.42896   0.63255   0.77696   0.00000  Uiso   1.00
N1195  N     0.69119   0.74154   0.73871   0.00000  Uiso   1.00
N1196  N     0.58487   0.89692   0.77888   0.00000  Uiso   1.00
C1197  C     0.22630   0.09194   0.01993   0.00000  Uiso   1.00
C1198  C     0.19003   0.05725   0.04259   0.00000  Uiso   1.00
C1199  C     0.15510   0.02890   0.02157   0.00000  Uiso   1.00
C1200  C     0.12540   0.99954   0.04816   0.00000  Uiso   1.00
C1201  C     0.06832   0.94580   0.07635   0.00000  Uiso   1.00
C1202  C     0.26230   0.08728   0.03204   0.00000  Uiso   1.00
C1203  C     0.95480   0.41752   0.33550   0.00000  Uiso   1.00
C1204  C     0.31928   0.08011   0.01988   0.00000  Uiso   1.00
C1205  C     0.37442   0.07303   0.03170   0.00000  Uiso   1.00
C1206  C     0.89966   0.46343   0.37645   0.00000  Uiso   1.00
C1207  C     0.90086   0.49634   0.35588   0.00000  Uiso   1.00
C1208  C     0.24067   0.19499   0.04958   0.00000  Uiso   1.00
C1209  C     0.25031   0.25439   0.07860   0.00000  Uiso   1.00
C1210  C     0.23569   0.09020   0.10452   0.00000  Uiso   1.00
C1211  C     0.19513   0.05631   0.08853   0.00000  Uiso   1.00
C1212  C     0.16548   0.02698   0.11516   0.00000  Uiso   1.00
C1213  C     0.13051   0.99859   0.09419   0.00000  Uiso   1.00
C1214  C     0.26740   0.08634   0.07799   0.00000  Uiso   1.00
C1215  C     0.29852   0.08227   0.09575   0.00000  Uiso   1.00
C1216  C     0.32439   0.07916   0.06591   0.00000  Uiso   1.00
C1217  C     0.23809   0.12915   0.08906   0.00000  Uiso   1.00
C1218  C     0.57791   0.82776   0.78280   0.00000  Uiso   1.00
C1219  C     0.24578   0.19404   0.09561   0.00000  Uiso   1.00
H1220  H     0.88899   0.42600   0.31749   0.00000  Uiso   1.00
H1221  H     0.15116   0.02963   0.98601   0.00000  Uiso   1.00
H1222  H     0.95084   0.41825   0.29994   0.00000  Uiso   1.00
H1223  H     0.89691   0.49706   0.32032   0.00000  Uiso   1.00
H1224  H     0.07451   0.95932   0.00833   0.00000  Uiso   1.00
H1225  H     0.02166   0.40923   0.30075   0.00000  Uiso   1.00
H1226  H     0.24127   0.24209   0.01039   0.00000  Uiso   1.00
H1227  H     0.23966   0.08947   0.14029   0.00000  Uiso   1.00
H1228  H     0.50277   0.69293   0.81738   0.00000  Uiso   1.00
H1229  H     0.30246   0.08154   0.13131   0.00000  Uiso   1.00
H1230  H     0.58186   0.82702   0.81835   0.00000  Uiso   1.00
H1231  H     0.42268   0.62325   0.80867   0.00000  Uiso   1.00
H1232  H     0.36984   0.07317   0.10110   0.00000  Uiso   1.00
H1233  H     0.25610   0.23935   0.14407   0.00000  Uiso   1.00
O1234  O     0.03543   0.91642   0.07921   0.00000  Uiso   1.00
O1235  O     0.40342   0.06938   0.02553   0.00000  Uiso   1.00
O1236  O     0.25421   0.28741   0.08191   0.00000  Uiso   1.00
N1237  N     0.08764   0.96736   0.03836   0.00000  Uiso   1.00
N1238  N     0.34987   0.07635   0.00011   0.00000  Uiso   1.00
N1239  N     0.24355   0.23172   0.04029   0.00000  Uiso   1.00
N1240  N     0.09562   0.96589   0.11029   0.00000  Uiso   1.00
N1241  N     0.35785   0.07487   0.07204   0.00000  Uiso   1.00
N1242  N     0.25154   0.23025   0.11222   0.00000  Uiso   1.00
C1243  C     0.46769   0.57473   0.14674   0.00000  Uiso   1.00
C1244  C     0.46612   0.60942   0.12408   0.00000  Uiso   1.00
C1245  C     0.45953   0.63777   0.14510   0.00000  Uiso   1.00
C1246  C     0.45920   0.66713   0.11851   0.00000  Uiso   1.00
C1247  C     0.45585   0.72086   0.09032   0.00000  Uiso   1.00
C1248  C     0.50836   0.57939   0.13462   0.00000  Uiso   1.00
C1249  C     0.87062   0.24915   0.83117   0.00000  Uiso   1.00
C1250  C     0.57250   0.58656   0.14679   0.00000  Uiso   1.00
C1251  C     0.63472   0.59364   0.13496   0.00000  Uiso   1.00
C1252  C     0.76957   0.20324   0.79022   0.00000  Uiso   1.00
C1253  C     0.73785   0.17033   0.81079   0.00000  Uiso   1.00
C1254  C     0.37902   0.47168   0.11709   0.00000  Uiso   1.00
C1255  C     0.32925   0.41228   0.08807   0.00000  Uiso   1.00
C1256  C     0.47882   0.57646   0.06215   0.00000  Uiso   1.00
C1257  C     0.47216   0.61036   0.07814   0.00000  Uiso   1.00
C1258  C     0.47184   0.63968   0.05151   0.00000  Uiso   1.00
C1259  C     0.46525   0.66807   0.07248   0.00000  Uiso   1.00
C1260  C     0.51440   0.58033   0.08868   0.00000  Uiso   1.00
C1261  C     0.54959   0.58440   0.07091   0.00000  Uiso   1.00
C1262  C     0.57856   0.58750   0.10076   0.00000  Uiso   1.00
C1263  C     0.44227   0.53751   0.07760   0.00000  Uiso   1.00
C1264  C     0.08349   0.83891   0.38387   0.00000  Uiso   1.00
C1265  C     0.38507   0.47262   0.07106   0.00000  Uiso   1.00
H1266  H     0.79633   0.24067   0.84918   0.00000  Uiso   1.00
H1267  H     0.45486   0.63703   0.18066   0.00000  Uiso   1.00
H1268  H     0.86593   0.24842   0.86672   0.00000  Uiso   1.00
H1269  H     0.73319   0.16961   0.84634   0.00000  Uiso   1.00
H1270  H     0.44852   0.70734   0.15834   0.00000  Uiso   1.00
H1271  H     0.94576   0.25743   0.86591   0.00000  Uiso   1.00
H1272  H     0.33251   0.42458   0.15628   0.00000  Uiso   1.00
H1273  H     0.48352   0.57719   0.02638   0.00000  Uiso   1.00
H1274  H     0.14318   0.97374   0.34929   0.00000  Uiso   1.00
H1275  H     0.55425   0.58512   0.03536   0.00000  Uiso   1.00
H1276  H     0.08817   0.83965   0.34831   0.00000  Uiso   1.00
H1277  H     0.13276   0.04341   0.35799   0.00000  Uiso   1.00
H1278  H     0.63000   0.59350   0.06557   0.00000  Uiso   1.00
H1279  H     0.35008   0.42731   0.02260   0.00000  Uiso   1.00
O1280  O     0.45234   0.75024   0.08746   0.00000  Uiso   1.00
O1281  O     0.66738   0.59729   0.14113   0.00000  Uiso   1.00
O1282  O     0.30013   0.37926   0.08476   0.00000  Uiso   1.00
N1283  N     0.45361   0.69931   0.12831   0.00000  Uiso   1.00
N1284  N     0.60686   0.59032   0.16655   0.00000  Uiso   1.00
N1285  N     0.34516   0.43494   0.12638   0.00000  Uiso   1.00
N1286  N     0.46307   0.70078   0.05638   0.00000  Uiso   1.00
N1287  N     0.61631   0.59179   0.09462   0.00000  Uiso   1.00
N1288  N     0.35462   0.43642   0.05445   0.00000  Uiso   1.00
C1289  C     0.13436   0.90806   0.48007   0.00000  Uiso   1.00
C1290  C     0.13278   0.94275   0.45741   0.00000  Uiso   1.00
C1291  C     0.12620   0.97110   0.47843   0.00000  Uiso   1.00
C1292  C     0.12587   0.00046   0.45184   0.00000  Uiso   1.00
C1293  C     0.12252   0.05420   0.42365   0.00000  Uiso   1.00
C1294  C     0.17502   0.91272   0.46796   0.00000  Uiso   1.00
C1295  C     0.53728   0.58248   0.16450   0.00000  Uiso   1.00
C1296  C     0.23917   0.91989   0.48012   0.00000  Uiso   1.00
C1297  C     0.30139   0.92697   0.46830   0.00000  Uiso   1.00
C1298  C     0.43623   0.53657   0.12355   0.00000  Uiso   1.00
C1299  C     0.40452   0.50366   0.14412   0.00000  Uiso   1.00
C1300  C     0.04569   0.80501   0.45042   0.00000  Uiso   1.00
C1301  C     0.99592   0.74561   0.42140   0.00000  Uiso   1.00
C1302  C     0.14548   0.90980   0.39548   0.00000  Uiso   1.00
C1303  C     0.13883   0.94369   0.41147   0.00000  Uiso   1.00
C1304  C     0.13850   0.97302   0.38484   0.00000  Uiso   1.00
C1305  C     0.13191   0.00141   0.40581   0.00000  Uiso   1.00
C1306  C     0.18107   0.91366   0.42201   0.00000  Uiso   1.00
C1307  C     0.21625   0.91773   0.40425   0.00000  Uiso   1.00
C1308  C     0.24522   0.92084   0.43409   0.00000  Uiso   1.00
C1309  C     0.10894   0.87085   0.41094   0.00000  Uiso   1.00
C1310  C     0.75015   0.17224   0.71720   0.00000  Uiso   1.00
C1311  C     0.05174   0.80596   0.40439   0.00000  Uiso   1.00
H1312  H     0.46299   0.57400   0.18251   0.00000  Uiso   1.00
H1313  H     0.12153   0.97037   0.51399   0.00000  Uiso   1.00
H1314  H     0.53260   0.58175   0.20006   0.00000  Uiso   1.00
H1315  H     0.39985   0.50294   0.17968   0.00000  Uiso   1.00
H1316  H     0.11519   0.04068   0.49167   0.00000  Uiso   1.00
H1317  H     0.61243   0.59077   0.19925   0.00000  Uiso   1.00
H1318  H     0.99918   0.75791   0.48961   0.00000  Uiso   1.00
H1319  H     0.15019   0.91053   0.35971   0.00000  Uiso   1.00
H1320  H     0.80984   0.30707   0.68262   0.00000  Uiso   1.00
H1321  H     0.22092   0.91846   0.36869   0.00000  Uiso   1.00
H1322  H     0.75484   0.17298   0.68165   0.00000  Uiso   1.00
H1323  H     0.79943   0.37675   0.69133   0.00000  Uiso   1.00
H1324  H     0.29667   0.92683   0.39890   0.00000  Uiso   1.00
H1325  H     0.01675   0.76065   0.35593   0.00000  Uiso   1.00
O1326  O     0.11901   0.08358   0.42079   0.00000  Uiso   1.00
O1327  O     0.33404   0.93062   0.47447   0.00000  Uiso   1.00
O1328  O     0.96680   0.71259   0.41809   0.00000  Uiso   1.00
N1329  N     0.12028   0.03264   0.46164   0.00000  Uiso   1.00
N1330  N     0.27352   0.92365   0.49989   0.00000  Uiso   1.00
N1331  N     0.01183   0.76828   0.45971   0.00000  Uiso   1.00
N1332  N     0.12974   0.03411   0.38971   0.00000  Uiso   1.00
N1333  N     0.28298   0.92513   0.42796   0.00000  Uiso   1.00
N1334  N     0.02129   0.76975   0.38778   0.00000  Uiso   1.00
C1335  C     0.80103   0.24140   0.81341   0.00000  Uiso   1.00
C1336  C     0.79945   0.27609   0.79075   0.00000  Uiso   1.00
C1337  C     0.79286   0.30444   0.81176   0.00000  Uiso   1.00
C1338  C     0.79253   0.33380   0.78518   0.00000  Uiso   1.00
C1339  C     0.78919   0.38753   0.75698   0.00000  Uiso   1.00
C1340  C     0.84169   0.24606   0.80129   0.00000  Uiso   1.00
C1341  C     0.20395   0.91582   0.49784   0.00000  Uiso   1.00
C1342  C     0.90584   0.25323   0.81345   0.00000  Uiso   1.00
C1343  C     0.96806   0.26031   0.80163   0.00000  Uiso   1.00
C1344  C     0.10290   0.86991   0.45688   0.00000  Uiso   1.00
C1345  C     0.07118   0.83699   0.47746   0.00000  Uiso   1.00
C1346  C     0.71235   0.13835   0.78375   0.00000  Uiso   1.00
C1347  C     0.66259   0.07895   0.75474   0.00000  Uiso   1.00
C1348  C     0.81215   0.24313   0.72882   0.00000  Uiso   1.00
C1349  C     0.80549   0.27703   0.74480   0.00000  Uiso   1.00
C1350  C     0.80517   0.30635   0.71817   0.00000  Uiso   1.00
C1351  C     0.79858   0.33474   0.73915   0.00000  Uiso   1.00
C1352  C     0.84773   0.24700   0.75535   0.00000  Uiso   1.00
C1353  C     0.88292   0.25107   0.73758   0.00000  Uiso   1.00
C1354  C     0.91189   0.25417   0.76743   0.00000  Uiso   1.00
C1355  C     0.77560   0.20418   0.74427   0.00000  Uiso   1.00
C1356  C     0.41682   0.50558   0.05053   0.00000  Uiso   1.00
C1357  C     0.71841   0.13929   0.73772   0.00000  Uiso   1.00
H1358  H     0.12966   0.90733   0.51584   0.00000  Uiso   1.00
H1359  H     0.78819   0.30370   0.84732   0.00000  Uiso   1.00
H1360  H     0.19926   0.91509   0.53339   0.00000  Uiso   1.00
H1361  H     0.06652   0.83628   0.51301   0.00000  Uiso   1.00
H1362  H     0.78186   0.37401   0.82500   0.00000  Uiso   1.00
H1363  H     0.27909   0.92410   0.53258   0.00000  Uiso   1.00
H1364  H     0.66584   0.09124   0.82294   0.00000  Uiso   1.00
H1365  H     0.81685   0.24386   0.69305   0.00000  Uiso   1.00
H1366  H     0.47651   0.64041   0.01595   0.00000  Uiso   1.00
H1367  H     0.88758   0.25179   0.70202   0.00000  Uiso   1.00
H1368  H     0.42150   0.50631   0.01498   0.00000  Uiso   1.00
H1369  H     0.46610   0.71008   0.02466   0.00000  Uiso   1.00
H1370  H     0.96334   0.26017   0.73224   0.00000  Uiso   1.00
H1371  H     0.68342   0.09398   0.68927   0.00000  Uiso   1.00
O1372  O     0.78568   0.41691   0.75413   0.00000  Uiso   1.00
O1373  O     0.00071   0.26396   0.80780   0.00000  Uiso   1.00
O1374  O     0.63346   0.04592   0.75142   0.00000  Uiso   1.00
N1375  N     0.78695   0.36597   0.79497   0.00000  Uiso   1.00
N1376  N     0.94019   0.25699   0.83322   0.00000  Uiso   1.00
N1377  N     0.67850   0.10161   0.79305   0.00000  Uiso   1.00
N1378  N     0.79640   0.36745   0.72304   0.00000  Uiso   1.00
N1379  N     0.94965   0.25846   0.76129   0.00000  Uiso   1.00
N1380  N     0.68795   0.10308   0.72112   0.00000  Uiso   1.00
C1381  C     0.10704   0.53231   0.14674   0.00000  Uiso   1.00
C1382  C     0.14330   0.53388   0.12408   0.00000  Uiso   1.00
C1383  C     0.17824   0.54047   0.14510   0.00000  Uiso   1.00
C1384  C     0.20793   0.54080   0.11851   0.00000  Uiso   1.00
C1385  C     0.26501   0.54415   0.09032   0.00000  Uiso   1.00
C1386  C     0.07103   0.49164   0.13462   0.00000  Uiso   1.00
C1387  C     0.37854   0.12938   0.83117   0.00000  Uiso   1.00
C1388  C     0.01406   0.42750   0.14679   0.00000  Uiso   1.00
C1389  C     0.95892   0.36528   0.13496   0.00000  Uiso   1.00
C1390  C     0.43367   0.23043   0.79022   0.00000  Uiso   1.00
C1391  C     0.43247   0.26215   0.81079   0.00000  Uiso   1.00
C1392  C     0.09266   0.62098   0.11709   0.00000  Uiso   1.00
C1393  C     0.08303   0.67075   0.08807   0.00000  Uiso   1.00
C1394  C     0.09765   0.52118   0.06215   0.00000  Uiso   1.00
C1395  C     0.13820   0.52784   0.07814   0.00000  Uiso   1.00
C1396  C     0.16785   0.52816   0.05151   0.00000  Uiso   1.00
C1397  C     0.20282   0.53475   0.07248   0.00000  Uiso   1.00
C1398  C     0.06593   0.48560   0.08868   0.00000  Uiso   1.00
C1399  C     0.03481   0.45041   0.07091   0.00000  Uiso   1.00
C1400  C     0.00895   0.42144   0.10076   0.00000  Uiso   1.00
C1401  C     0.09524   0.55773   0.07760   0.00000  Uiso   1.00
C1402  C     0.75542   0.91651   0.38387   0.00000  Uiso   1.00
C1403  C     0.08755   0.61493   0.07106   0.00000  Uiso   1.00
H1404  H     0.44434   0.20367   0.84918   0.00000  Uiso   1.00
H1405  H     0.18217   0.54514   0.18066   0.00000  Uiso   1.00
H1406  H     0.38249   0.13407   0.86672   0.00000  Uiso   1.00
H1407  H     0.43642   0.26681   0.84634   0.00000  Uiso   1.00
H1408  H     0.25882   0.55148   0.15834   0.00000  Uiso   1.00
H1409  H     0.31167   0.05424   0.86591   0.00000  Uiso   1.00
H1410  H     0.09207   0.66749   0.15628   0.00000  Uiso   1.00
H1411  H     0.09367   0.51648   0.02638   0.00000  Uiso   1.00
H1412  H     0.83056   0.85682   0.34929   0.00000  Uiso   1.00
H1413  H     0.03088   0.44575   0.03536   0.00000  Uiso   1.00
H1414  H     0.75148   0.91183   0.34831   0.00000  Uiso   1.00
H1415  H     0.91065   0.86724   0.35799   0.00000  Uiso   1.00
H1416  H     0.96350   0.37000   0.06557   0.00000  Uiso   1.00
H1417  H     0.07723   0.64992   0.02260   0.00000  Uiso   1.00
O1418  O     0.29790   0.54766   0.08746   0.00000  Uiso   1.00
O1419  O     0.92991   0.33262   0.14113   0.00000  Uiso   1.00
O1420  O     0.07913   0.69987   0.08476   0.00000  Uiso   1.00
N1421  N     0.24569   0.54639   0.12831   0.00000  Uiso   1.00
N1422  N     0.98346   0.39314   0.16655   0.00000  Uiso   1.00
N1423  N     0.08978   0.65484   0.12638   0.00000  Uiso   1.00
N1424  N     0.23771   0.53693   0.05638   0.00000  Uiso   1.00
N1425  N     0.97548   0.38369   0.09462   0.00000  Uiso   1.00
N1426  N     0.08180   0.64538   0.05445   0.00000  Uiso   1.00
C1427  C     0.77370   0.86564   0.48007   0.00000  Uiso   1.00
C1428  C     0.80997   0.86722   0.45741   0.00000  Uiso   1.00
C1429  C     0.84490   0.87380   0.47843   0.00000  Uiso   1.00
C1430  C     0.87460   0.87413   0.45184   0.00000  Uiso   1.00
C1431  C     0.93168   0.87748   0.42365   0.00000  Uiso   1.00
C1432  C     0.73770   0.82498   0.46796   0.00000  Uiso   1.00
C1433  C     0.04520   0.46272   0.16450   0.00000  Uiso   1.00
C1434  C     0.68072   0.76083   0.48012   0.00000  Uiso   1.00
C1435  C     0.62558   0.69861   0.46830   0.00000  Uiso   1.00
C1436  C     0.10034   0.56377   0.12355   0.00000  Uiso   1.00
C1437  C     0.09914   0.59548   0.14412   0.00000  Uiso   1.00
C1438  C     0.75933   0.95431   0.45042   0.00000  Uiso   1.00
C1439  C     0.74969   0.00408   0.42140   0.00000  Uiso   1.00
C1440  C     0.76431   0.85452   0.39548   0.00000  Uiso   1.00
C1441  C     0.80487   0.86117   0.41147   0.00000  Uiso   1.00
C1442  C     0.83452   0.86150   0.38484   0.00000  Uiso   1.00
C1443  C     0.86949   0.86809   0.40581   0.00000  Uiso   1.00
C1444  C     0.73260   0.81893   0.42201   0.00000  Uiso   1.00
C1445  C     0.70148   0.78375   0.40425   0.00000  Uiso   1.00
C1446  C     0.67561   0.75478   0.43409   0.00000  Uiso   1.00
C1447  C     0.76191   0.89106   0.41094   0.00000  Uiso   1.00
C1448  C     0.42209   0.24985   0.71720   0.00000  Uiso   1.00
C1449  C     0.75422   0.94826   0.40439   0.00000  Uiso   1.00
H1450  H     0.11101   0.53701   0.18251   0.00000  Uiso   1.00
H1451  H     0.84884   0.87847   0.51399   0.00000  Uiso   1.00
H1452  H     0.04916   0.46740   0.20006   0.00000  Uiso   1.00
H1453  H     0.10309   0.60015   0.17968   0.00000  Uiso   1.00
H1454  H     0.92549   0.88481   0.49167   0.00000  Uiso   1.00
H1455  H     0.97834   0.38757   0.19925   0.00000  Uiso   1.00
H1456  H     0.75873   0.00082   0.48961   0.00000  Uiso   1.00
H1457  H     0.76034   0.84981   0.35971   0.00000  Uiso   1.00
H1458  H     0.49723   0.19016   0.68262   0.00000  Uiso   1.00
H1459  H     0.69754   0.77908   0.36869   0.00000  Uiso   1.00
H1460  H     0.41814   0.24516   0.68165   0.00000  Uiso   1.00
H1461  H     0.57732   0.20057   0.69133   0.00000  Uiso   1.00
H1462  H     0.63016   0.70333   0.39890   0.00000  Uiso   1.00
H1463  H     0.74390   0.98325   0.35593   0.00000  Uiso   1.00
O1464  O     0.96457   0.88099   0.42079   0.00000  Uiso   1.00
O1465  O     0.59658   0.66596   0.47447   0.00000  Uiso   1.00
O1466  O     0.74579   0.03320   0.41809   0.00000  Uiso   1.00
N1467  N     0.91236   0.87972   0.46164   0.00000  Uiso   1.00
N1468  N     0.65013   0.72648   0.49989   0.00000  Uiso   1.00
N1469  N     0.75645   0.98817   0.45971   0.00000  Uiso   1.00
N1470  N     0.90438   0.87026   0.38971   0.00000  Uiso   1.00
N1471  N     0.64215   0.71702   0.42796   0.00000  Uiso   1.00
N1472  N     0.74846   0.97871   0.38778   0.00000  Uiso   1.00
C1473  C     0.44037   0.19897   0.81341   0.00000  Uiso   1.00
C1474  C     0.47664   0.20055   0.79075   0.00000  Uiso   1.00
C1475  C     0.51157   0.20714   0.81176   0.00000  Uiso   1.00
C1476  C     0.54127   0.20747   0.78518   0.00000  Uiso   1.00
C1477  C     0.59834   0.21081   0.75698   0.00000  Uiso   1.00
C1478  C     0.40437   0.15831   0.80129   0.00000  Uiso   1.00
C1479  C     0.71187   0.79605   0.49784   0.00000  Uiso   1.00
C1480  C     0.34739   0.09416   0.81345   0.00000  Uiso   1.00
C1481  C     0.29225   0.03194   0.80163   0.00000  Uiso   1.00
C1482  C     0.76701   0.89710   0.45688   0.00000  Uiso   1.00
C1483  C     0.76581   0.92882   0.47746   0.00000  Uiso   1.00
C1484  C     0.42599   0.28765   0.78375   0.00000  Uiso   1.00
C1485  C     0.41636   0.33741   0.75474   0.00000  Uiso   1.00
C1486  C     0.43098   0.18785   0.72882   0.00000  Uiso   1.00
C1487  C     0.47153   0.19451   0.74480   0.00000  Uiso   1.00
C1488  C     0.50118   0.19483   0.71817   0.00000  Uiso   1.00
C1489  C     0.53616   0.20142   0.73915   0.00000  Uiso   1.00
C1490  C     0.39926   0.15227   0.75535   0.00000  Uiso   1.00
C1491  C     0.36815   0.11708   0.73758   0.00000  Uiso   1.00
C1492  C     0.34228   0.08811   0.76743   0.00000  Uiso   1.00
C1493  C     0.42857   0.22440   0.74427   0.00000  Uiso   1.00
C1494  C     0.08876   0.58318   0.05053   0.00000  Uiso   1.00
C1495  C     0.42088   0.28159   0.73772   0.00000  Uiso   1.00
H1496  H     0.77767   0.87034   0.51584   0.00000  Uiso   1.00
H1497  H     0.51551   0.21181   0.84732   0.00000  Uiso   1.00
H1498  H     0.71582   0.80074   0.53339   0.00000  Uiso   1.00
H1499  H     0.76976   0.93348   0.51301   0.00000  Uiso   1.00
H1500  H     0.59215   0.21814   0.82500   0.00000  Uiso   1.00
H1501  H     0.64500   0.72091   0.53258   0.00000  Uiso   1.00
H1502  H     0.42540   0.33416   0.82294   0.00000  Uiso   1.00
H1503  H     0.42701   0.18315   0.69305   0.00000  Uiso   1.00
H1504  H     0.16389   0.52349   0.01595   0.00000  Uiso   1.00
H1505  H     0.36421   0.11242   0.70202   0.00000  Uiso   1.00
H1506  H     0.08481   0.57850   0.01498   0.00000  Uiso   1.00
H1507  H     0.24398   0.53390   0.02466   0.00000  Uiso   1.00
H1508  H     0.29683   0.03666   0.73224   0.00000  Uiso   1.00
H1509  H     0.41056   0.31658   0.68927   0.00000  Uiso   1.00
O1510  O     0.63123   0.21432   0.75413   0.00000  Uiso   1.00
O1511  O     0.26325   0.99929   0.80780   0.00000  Uiso   1.00
O1512  O     0.41246   0.36654   0.75142   0.00000  Uiso   1.00
N1513  N     0.57903   0.21305   0.79497   0.00000  Uiso   1.00
N1514  N     0.31680   0.05981   0.83322   0.00000  Uiso   1.00
N1515  N     0.42311   0.32150   0.79305   0.00000  Uiso   1.00
N1516  N     0.57104   0.20360   0.72304   0.00000  Uiso   1.00
N1517  N     0.30881   0.05035   0.76129   0.00000  Uiso   1.00
N1518  N     0.41513   0.31205   0.72112   0.00000  Uiso   1.00
C1519  C     0.42527   0.89296   0.14674   0.00000  Uiso   1.00
C1520  C     0.39058   0.85670   0.12408   0.00000  Uiso   1.00
C1521  C     0.36223   0.82176   0.14510   0.00000  Uiso   1.00
C1522  C     0.33287   0.79207   0.11851   0.00000  Uiso   1.00
C1523  C     0.27914   0.73499   0.09032   0.00000  Uiso   1.00
C1524  C     0.42061   0.92897   0.13462   0.00000  Uiso   1.00
C1525  C     0.75085   0.62146   0.83117   0.00000  Uiso   1.00
C1526  C     0.41344   0.98594   0.14679   0.00000  Uiso   1.00
C1527  C     0.40636   0.04108   0.13496   0.00000  Uiso   1.00
C1528  C     0.79676   0.56633   0.79022   0.00000  Uiso   1.00
C1529  C     0.82967   0.56753   0.81079   0.00000  Uiso   1.00
C1530  C     0.52832   0.90734   0.11709   0.00000  Uiso   1.00
C1531  C     0.58772   0.91697   0.08807   0.00000  Uiso   1.00
C1532  C     0.42354   0.90235   0.06215   0.00000  Uiso   1.00
C1533  C     0.38964   0.86180   0.07814   0.00000  Uiso   1.00
C1534  C     0.36032   0.83215   0.05151   0.00000  Uiso   1.00
C1535  C     0.33193   0.79718   0.07248   0.00000  Uiso   1.00
C1536  C     0.41967   0.93407   0.08868   0.00000  Uiso   1.00
C1537  C     0.41560   0.96519   0.07091   0.00000  Uiso   1.00
C1538  C     0.41250   0.99105   0.10076   0.00000  Uiso   1.00
C1539  C     0.46249   0.90476   0.07760   0.00000  Uiso   1.00
C1540  C     0.16109   0.24458   0.38387   0.00000  Uiso   1.00
C1541  C     0.52738   0.91245   0.07106   0.00000  Uiso   1.00
H1542  H     0.75933   0.55566   0.84918   0.00000  Uiso   1.00
H1543  H     0.36297   0.81783   0.18066   0.00000  Uiso   1.00
H1544  H     0.75158   0.61751   0.86672   0.00000  Uiso   1.00
H1545  H     0.83039   0.56358   0.84634   0.00000  Uiso   1.00
H1546  H     0.29266   0.74118   0.15834   0.00000  Uiso   1.00
H1547  H     0.74257   0.68833   0.86591   0.00000  Uiso   1.00
H1548  H     0.57542   0.90793   0.15628   0.00000  Uiso   1.00
H1549  H     0.42281   0.90633   0.02638   0.00000  Uiso   1.00
H1550  H     0.02626   0.16944   0.34929   0.00000  Uiso   1.00
H1551  H     0.41488   0.96912   0.03536   0.00000  Uiso   1.00
H1552  H     0.16035   0.24852   0.34831   0.00000  Uiso   1.00
H1553  H     0.95659   0.08935   0.35799   0.00000  Uiso   1.00
H1554  H     0.40650   0.03650   0.06557   0.00000  Uiso   1.00
H1555  H     0.57269   0.92277   0.02260   0.00000  Uiso   1.00
O1556  O     0.24976   0.70210   0.08746   0.00000  Uiso   1.00
O1557  O     0.40271   0.07009   0.14113   0.00000  Uiso   1.00
O1558  O     0.62074   0.92087   0.08476   0.00000  Uiso   1.00
N1559  N     0.30069   0.75431   0.12831   0.00000  Uiso   1.00
N1560  N     0.40968   0.01654   0.16655   0.00000  Uiso   1.00
N1561  N     0.56506   0.91022   0.12638   0.00000  Uiso   1.00
N1562  N     0.29922   0.76229   0.05638   0.00000  Uiso   1.00
N1563  N     0.40821   0.02452   0.09462   0.00000  Uiso   1.00
N1564  N     0.56358   0.91820   0.05445   0.00000  Uiso   1.00
C1565  C     0.09194   0.22630   0.48007   0.00000  Uiso   1.00
C1566  C     0.05725   0.19003   0.45741   0.00000  Uiso   1.00
C1567  C     0.02890   0.15510   0.47843   0.00000  Uiso   1.00
C1568  C     0.99954   0.12540   0.45184   0.00000  Uiso   1.00
C1569  C     0.94580   0.06832   0.42365   0.00000  Uiso   1.00
C1570  C     0.08728   0.26230   0.46796   0.00000  Uiso   1.00
C1571  C     0.41752   0.95480   0.16450   0.00000  Uiso   1.00
C1572  C     0.08011   0.31928   0.48012   0.00000  Uiso   1.00
C1573  C     0.07303   0.37442   0.46830   0.00000  Uiso   1.00
C1574  C     0.46343   0.89966   0.12355   0.00000  Uiso   1.00
C1575  C     0.49634   0.90086   0.14412   0.00000  Uiso   1.00
C1576  C     0.19499   0.24067   0.45042   0.00000  Uiso   1.00
C1577  C     0.25439   0.25031   0.42140   0.00000  Uiso   1.00
C1578  C     0.09020   0.23569   0.39548   0.00000  Uiso   1.00
C1579  C     0.05631   0.19513   0.41147   0.00000  Uiso   1.00
C1580  C     0.02698   0.16548   0.38484   0.00000  Uiso   1.00
C1581  C     0.99859   0.13051   0.40581   0.00000  Uiso   1.00
C1582  C     0.08634   0.26740   0.42201   0.00000  Uiso   1.00
C1583  C     0.08227   0.29852   0.40425   0.00000  Uiso   1.00
C1584  C     0.07916   0.32439   0.43409   0.00000  Uiso   1.00
C1585  C     0.12915   0.23809   0.41094   0.00000  Uiso   1.00
C1586  C     0.82776   0.57791   0.71720   0.00000  Uiso   1.00
C1587  C     0.19404   0.24578   0.40439   0.00000  Uiso   1.00
H1588  H     0.42600   0.88899   0.18251   0.00000  Uiso   1.00
H1589  H     0.02963   0.15116   0.51399   0.00000  Uiso   1.00
H1590  H     0.41825   0.95084   0.20006   0.00000  Uiso   1.00
H1591  H     0.49706   0.89691   0.17968   0.00000  Uiso   1.00
H1592  H     0.95932   0.07451   0.49167   0.00000  Uiso   1.00
H1593  H     0.40923   0.02166   0.19925   0.00000  Uiso   1.00
H1594  H     0.24209   0.24127   0.48961   0.00000  Uiso   1.00
H1595  H     0.08947   0.23966   0.35971   0.00000  Uiso   1.00
H1596  H     0.69293   0.50277   0.68262   0.00000  Uiso   1.00
H1597  H     0.08154   0.30246   0.36869   0.00000  Uiso   1.00
H1598  H     0.82702   0.58186   0.68165   0.00000  Uiso   1.00
H1599  H     0.62325   0.42268   0.69133   0.00000  Uiso   1.00
H1600  H     0.07317   0.36984   0.39890   0.00000  Uiso   1.00
H1601  H     0.23935   0.25610   0.35593   0.00000  Uiso   1.00
O1602  O     0.91642   0.03543   0.42079   0.00000  Uiso   1.00
O1603  O     0.06938   0.40342   0.47447   0.00000  Uiso   1.00
O1604  O     0.28741   0.25421   0.41809   0.00000  Uiso   1.00
N1605  N     0.96736   0.08764   0.46164   0.00000  Uiso   1.00
N1606  N     0.07635   0.34987   0.49989   0.00000  Uiso   1.00
N1607  N     0.23172   0.24355   0.45971   0.00000  Uiso   1.00
N1608  N     0.96589   0.09562   0.38971   0.00000  Uiso   1.00
N1609  N     0.07487   0.35785   0.42796   0.00000  Uiso   1.00
N1610  N     0.23025   0.25154   0.38778   0.00000  Uiso   1.00
C1611  C     0.75860   0.55963   0.81341   0.00000  Uiso   1.00
C1612  C     0.72391   0.52336   0.79075   0.00000  Uiso   1.00
C1613  C     0.69556   0.48843   0.81176   0.00000  Uiso   1.00
C1614  C     0.66620   0.45873   0.78518   0.00000  Uiso   1.00
C1615  C     0.61247   0.40166   0.75698   0.00000  Uiso   1.00
C1616  C     0.75394   0.59563   0.80129   0.00000  Uiso   1.00
C1617  C     0.08418   0.28813   0.49784   0.00000  Uiso   1.00
C1618  C     0.74677   0.65261   0.81345   0.00000  Uiso   1.00
C1619  C     0.73969   0.70775   0.80163   0.00000  Uiso   1.00
C1620  C     0.13009   0.23299   0.45688   0.00000  Uiso   1.00
C1621  C     0.16301   0.23419   0.47746   0.00000  Uiso   1.00
C1622  C     0.86165   0.57401   0.78375   0.00000  Uiso   1.00
C1623  C     0.92105   0.58364   0.75474   0.00000  Uiso   1.00
C1624  C     0.75687   0.56902   0.72882   0.00000  Uiso   1.00
C1625  C     0.72297   0.52847   0.74480   0.00000  Uiso   1.00
C1626  C     0.69365   0.49882   0.71817   0.00000  Uiso   1.00
C1627  C     0.66526   0.46384   0.73915   0.00000  Uiso   1.00
C1628  C     0.75300   0.60074   0.75535   0.00000  Uiso   1.00
C1629  C     0.74893   0.63185   0.73758   0.00000  Uiso   1.00
C1630  C     0.74583   0.65772   0.76743   0.00000  Uiso   1.00
C1631  C     0.79582   0.57143   0.74427   0.00000  Uiso   1.00
C1632  C     0.49442   0.91124   0.05053   0.00000  Uiso   1.00
C1633  C     0.86071   0.57912   0.73772   0.00000  Uiso   1.00
H1634  H     0.09267   0.22233   0.51584   0.00000  Uiso   1.00
H1635  H     0.69630   0.48449   0.84732   0.00000  Uiso   1.00
H1636  H     0.08491   0.28418   0.53339   0.00000  Uiso   1.00
H1637  H     0.16372   0.23024   0.51301   0.00000  Uiso   1.00
H1638  H     0.62599   0.40785   0.82500   0.00000  Uiso   1.00
H1639  H     0.07590   0.35500   0.53258   0.00000  Uiso   1.00
H1640  H     0.90876   0.57460   0.82294   0.00000  Uiso   1.00
H1641  H     0.75614   0.57299   0.69305   0.00000  Uiso   1.00
H1642  H     0.35959   0.83611   0.01595   0.00000  Uiso   1.00
H1643  H     0.74821   0.63579   0.70202   0.00000  Uiso   1.00
H1644  H     0.49369   0.91519   0.01498   0.00000  Uiso   1.00
H1645  H     0.28992   0.75602   0.02466   0.00000  Uiso   1.00
H1646  H     0.73983   0.70317   0.73224   0.00000  Uiso   1.00
H1647  H     0.90602   0.58944   0.68927   0.00000  Uiso   1.00
O1648  O     0.58309   0.36877   0.75413   0.00000  Uiso   1.00
O1649  O     0.73604   0.73675   0.80780   0.00000  Uiso   1.00
O1650  O     0.95408   0.58754   0.75142   0.00000  Uiso   1.00
N1651  N     0.63403   0.42097   0.79497   0.00000  Uiso   1.00
N1652  N     0.74301   0.68320   0.83322   0.00000  Uiso   1.00
N1653  N     0.89839   0.57689   0.79305   0.00000  Uiso   1.00
N1654  N     0.63255   0.42896   0.72304   0.00000  Uiso   1.00
N1655  N     0.74154   0.69119   0.76129   0.00000  Uiso   1.00
N1656  N     0.89692   0.58487   0.72112   0.00000  Uiso   1.00
