data_job_03780
_audit_creation_date              2018-12-19
_audit_creation_method            'Materials Studio'
_symmetry_space_group_name_H-M    'P1'
_symmetry_Int_Tables_number       1
_symmetry_cell_setting            triclinic
loop_
_symmetry_equiv_pos_as_xyz
  x,y,z
_cell_length_a                    28.3626
_cell_length_b                    31.0650
_cell_length_c                    11.5677
_cell_angle_alpha                 90.0000
_cell_angle_beta                  90.0000
_cell_angle_gamma                 90.0000
loop_
_atom_site_label
_atom_site_type_symbol
_atom_site_fract_x
_atom_site_fract_y
_atom_site_fract_z
_atom_site_U_iso_or_equiv
_atom_site_adp_type
_atom_site_occupancy
C1     C     0.76078   0.35687   0.47355   0.00000  Uiso   1.00
C2     C     0.76657   0.34657   0.60166   0.00000  Uiso   1.00
C3     C     0.73162   0.33075   0.67407   0.00000  Uiso   1.00
C4     C     0.74395   0.32343   0.78854   0.00000  Uiso   1.00
C5     C     0.74598   0.30620   0.98132   0.00000  Uiso   1.00
C6     C     0.77518   0.40387   0.45943   0.00000  Uiso   1.00
C7     C     0.74747   0.43623   0.41224   0.00000  Uiso   1.00
C8     C     0.76705   0.47715   0.40698   0.00000  Uiso   1.00
C9     C     0.78246   0.54888   0.37886   0.00000  Uiso   1.00
C10    C     0.79821   0.33054   0.41064   0.00000  Uiso   1.00
C11    C     0.78986   0.30124   0.32240   0.00000  Uiso   1.00
C12    C     0.82883   0.28042   0.27603   0.00000  Uiso   1.00
C13    C     0.88000   0.23830   0.17217   0.00000  Uiso   1.00
C14    C     0.84484   0.37200   0.54808   0.00000  Uiso   1.00
C15    C     0.81222   0.35479   0.64214   0.00000  Uiso   1.00
C16    C     0.82461   0.34749   0.75654   0.00000  Uiso   1.00
C17    C     0.78968   0.33166   0.82910   0.00000  Uiso   1.00
C18    C     0.82083   0.41209   0.49991   0.00000  Uiso   1.00
C19    C     0.84046   0.45297   0.49471   0.00000  Uiso   1.00
C20    C     0.81279   0.48538   0.44753   0.00000  Uiso   1.00
C21    C     0.84386   0.33875   0.45112   0.00000  Uiso   1.00
C22    C     0.88286   0.31798   0.40488   0.00000  Uiso   1.00
C23    C     0.87457   0.28866   0.31659   0.00000  Uiso   1.00
H24    H     0.72524   0.35048   0.44202   0.00000  Uiso   1.00
H25    H     0.69629   0.32440   0.64270   0.00000  Uiso   1.00
H26    H     0.71214   0.42986   0.38091   0.00000  Uiso   1.00
H27    H     0.75453   0.29489   0.29109   0.00000  Uiso   1.00
H28    H     0.68432   0.29912   0.88306   0.00000  Uiso   1.00
H29    H     0.71774   0.52150   0.33101   0.00000  Uiso   1.00
H30    H     0.80713   0.23689   0.14161   0.00000  Uiso   1.00
H31    H     0.88038   0.37840   0.57960   0.00000  Uiso   1.00
H32    H     0.85994   0.35385   0.78784   0.00000  Uiso   1.00
H33    H     0.87579   0.45931   0.52604   0.00000  Uiso   1.00
H34    H     0.91818   0.32435   0.43623   0.00000  Uiso   1.00
H35    H     0.81714   0.32303   0.00086   0.00000  Uiso   1.00
H36    H     0.85057   0.54540   0.44881   0.00000  Uiso   1.00
H37    H     0.93996   0.26080   0.25941   0.00000  Uiso   1.00
O38    O     0.73448   0.29444   0.07647   0.00000  Uiso   1.00
O39    O     0.77834   0.58618   0.35218   0.00000  Uiso   1.00
O40    O     0.89561   0.21278   0.10370   0.00000  Uiso   1.00
N41    N     0.71839   0.30811   0.88220   0.00000  Uiso   1.00
N42    N     0.74964   0.51602   0.36609   0.00000  Uiso   1.00
N43    N     0.83320   0.24994   0.18899   0.00000  Uiso   1.00
N44    N     0.78986   0.32097   0.94559   0.00000  Uiso   1.00
N45    N     0.82111   0.52888   0.42947   0.00000  Uiso   1.00
N46    N     0.90468   0.26281   0.25238   0.00000  Uiso   1.00
C47    C     0.76078   0.85687   0.97355   0.00000  Uiso   1.00
C48    C     0.76657   0.84657   0.10166   0.00000  Uiso   1.00
C49    C     0.73162   0.83075   0.17407   0.00000  Uiso   1.00
C50    C     0.74395   0.82343   0.28854   0.00000  Uiso   1.00
C51    C     0.74598   0.80620   0.48132   0.00000  Uiso   1.00
C52    C     0.77518   0.90387   0.95943   0.00000  Uiso   1.00
C53    C     0.74747   0.93623   0.91224   0.00000  Uiso   1.00
C54    C     0.76705   0.97715   0.90698   0.00000  Uiso   1.00
C55    C     0.78246   0.04888   0.87886   0.00000  Uiso   1.00
C56    C     0.79821   0.83054   0.91064   0.00000  Uiso   1.00
C57    C     0.78986   0.80124   0.82240   0.00000  Uiso   1.00
C58    C     0.82883   0.78042   0.77603   0.00000  Uiso   1.00
C59    C     0.88000   0.73830   0.67217   0.00000  Uiso   1.00
C60    C     0.84484   0.87200   0.04808   0.00000  Uiso   1.00
C61    C     0.81222   0.85479   0.14214   0.00000  Uiso   1.00
C62    C     0.82461   0.84749   0.25654   0.00000  Uiso   1.00
C63    C     0.78968   0.83166   0.32910   0.00000  Uiso   1.00
C64    C     0.82083   0.91209   0.99991   0.00000  Uiso   1.00
C65    C     0.84046   0.95297   0.99471   0.00000  Uiso   1.00
C66    C     0.81279   0.98538   0.94753   0.00000  Uiso   1.00
C67    C     0.84386   0.83875   0.95112   0.00000  Uiso   1.00
C68    C     0.88286   0.81798   0.90488   0.00000  Uiso   1.00
C69    C     0.87457   0.78866   0.81659   0.00000  Uiso   1.00
H70    H     0.72524   0.85048   0.94202   0.00000  Uiso   1.00
H71    H     0.69629   0.82440   0.14270   0.00000  Uiso   1.00
H72    H     0.71214   0.92986   0.88091   0.00000  Uiso   1.00
H73    H     0.75453   0.79489   0.79109   0.00000  Uiso   1.00
H74    H     0.68432   0.79912   0.38306   0.00000  Uiso   1.00
H75    H     0.71774   0.02150   0.83101   0.00000  Uiso   1.00
H76    H     0.80713   0.73689   0.64161   0.00000  Uiso   1.00
H77    H     0.88038   0.87840   0.07960   0.00000  Uiso   1.00
H78    H     0.85994   0.85385   0.28784   0.00000  Uiso   1.00
H79    H     0.87579   0.95931   0.02604   0.00000  Uiso   1.00
H80    H     0.91818   0.82435   0.93623   0.00000  Uiso   1.00
H81    H     0.81714   0.82303   0.50086   0.00000  Uiso   1.00
H82    H     0.85057   0.04540   0.94881   0.00000  Uiso   1.00
H83    H     0.93996   0.76080   0.75941   0.00000  Uiso   1.00
O84    O     0.73448   0.79444   0.57647   0.00000  Uiso   1.00
O85    O     0.77834   0.08618   0.85218   0.00000  Uiso   1.00
O86    O     0.89561   0.71278   0.60370   0.00000  Uiso   1.00
N87    N     0.71839   0.80811   0.38220   0.00000  Uiso   1.00
N88    N     0.74964   0.01602   0.86609   0.00000  Uiso   1.00
N89    N     0.83320   0.74994   0.68899   0.00000  Uiso   1.00
N90    N     0.78986   0.82097   0.44559   0.00000  Uiso   1.00
N91    N     0.82111   0.02888   0.92947   0.00000  Uiso   1.00
N92    N     0.90468   0.76281   0.75238   0.00000  Uiso   1.00
C93    C     0.26078   0.35687   0.97355   0.00000  Uiso   1.00
C94    C     0.26657   0.34657   0.10166   0.00000  Uiso   1.00
C95    C     0.23162   0.33075   0.17407   0.00000  Uiso   1.00
C96    C     0.24395   0.32343   0.28854   0.00000  Uiso   1.00
C97    C     0.24598   0.30620   0.48132   0.00000  Uiso   1.00
C98    C     0.27518   0.40387   0.95943   0.00000  Uiso   1.00
C99    C     0.24747   0.43623   0.91224   0.00000  Uiso   1.00
C100   C     0.26705   0.47715   0.90698   0.00000  Uiso   1.00
C101   C     0.28246   0.54888   0.87886   0.00000  Uiso   1.00
C102   C     0.29821   0.33054   0.91064   0.00000  Uiso   1.00
C103   C     0.28986   0.30124   0.82240   0.00000  Uiso   1.00
C104   C     0.32883   0.28042   0.77603   0.00000  Uiso   1.00
C105   C     0.38000   0.23830   0.67217   0.00000  Uiso   1.00
C106   C     0.34484   0.37200   0.04808   0.00000  Uiso   1.00
C107   C     0.31222   0.35479   0.14214   0.00000  Uiso   1.00
C108   C     0.32461   0.34749   0.25654   0.00000  Uiso   1.00
C109   C     0.28968   0.33166   0.32910   0.00000  Uiso   1.00
C110   C     0.32083   0.41209   0.99991   0.00000  Uiso   1.00
C111   C     0.34046   0.45297   0.99471   0.00000  Uiso   1.00
C112   C     0.31279   0.48538   0.94753   0.00000  Uiso   1.00
C113   C     0.34386   0.33875   0.95112   0.00000  Uiso   1.00
C114   C     0.38286   0.31798   0.90488   0.00000  Uiso   1.00
C115   C     0.37457   0.28866   0.81659   0.00000  Uiso   1.00
H116   H     0.22524   0.35048   0.94202   0.00000  Uiso   1.00
H117   H     0.19629   0.32440   0.14270   0.00000  Uiso   1.00
H118   H     0.21214   0.42986   0.88091   0.00000  Uiso   1.00
H119   H     0.25453   0.29489   0.79109   0.00000  Uiso   1.00
H120   H     0.18432   0.29912   0.38306   0.00000  Uiso   1.00
H121   H     0.21774   0.52150   0.83101   0.00000  Uiso   1.00
H122   H     0.30713   0.23689   0.64161   0.00000  Uiso   1.00
H123   H     0.38038   0.37840   0.07960   0.00000  Uiso   1.00
H124   H     0.35994   0.35385   0.28784   0.00000  Uiso   1.00
H125   H     0.37579   0.45931   0.02604   0.00000  Uiso   1.00
H126   H     0.41818   0.32435   0.93623   0.00000  Uiso   1.00
H127   H     0.31714   0.32303   0.50086   0.00000  Uiso   1.00
H128   H     0.35057   0.54540   0.94881   0.00000  Uiso   1.00
H129   H     0.43996   0.26080   0.75941   0.00000  Uiso   1.00
O130   O     0.23448   0.29444   0.57647   0.00000  Uiso   1.00
O131   O     0.27834   0.58618   0.85218   0.00000  Uiso   1.00
O132   O     0.39561   0.21278   0.60370   0.00000  Uiso   1.00
N133   N     0.21839   0.30811   0.38220   0.00000  Uiso   1.00
N134   N     0.24964   0.51602   0.86609   0.00000  Uiso   1.00
N135   N     0.33320   0.24994   0.68899   0.00000  Uiso   1.00
N136   N     0.28986   0.32097   0.44559   0.00000  Uiso   1.00
N137   N     0.32111   0.52888   0.92947   0.00000  Uiso   1.00
N138   N     0.40468   0.26281   0.75238   0.00000  Uiso   1.00
C139   C     0.26078   0.85687   0.47355   0.00000  Uiso   1.00
C140   C     0.26657   0.84657   0.60166   0.00000  Uiso   1.00
C141   C     0.23162   0.83075   0.67407   0.00000  Uiso   1.00
C142   C     0.24395   0.82343   0.78854   0.00000  Uiso   1.00
C143   C     0.24598   0.80620   0.98132   0.00000  Uiso   1.00
C144   C     0.27518   0.90387   0.45943   0.00000  Uiso   1.00
C145   C     0.24747   0.93623   0.41224   0.00000  Uiso   1.00
C146   C     0.26705   0.97715   0.40698   0.00000  Uiso   1.00
C147   C     0.28246   0.04888   0.37886   0.00000  Uiso   1.00
C148   C     0.29821   0.83054   0.41064   0.00000  Uiso   1.00
C149   C     0.28986   0.80124   0.32240   0.00000  Uiso   1.00
C150   C     0.32883   0.78042   0.27603   0.00000  Uiso   1.00
C151   C     0.38000   0.73830   0.17217   0.00000  Uiso   1.00
C152   C     0.34484   0.87200   0.54808   0.00000  Uiso   1.00
C153   C     0.31222   0.85479   0.64214   0.00000  Uiso   1.00
C154   C     0.32461   0.84749   0.75654   0.00000  Uiso   1.00
C155   C     0.28968   0.83166   0.82910   0.00000  Uiso   1.00
C156   C     0.32083   0.91209   0.49991   0.00000  Uiso   1.00
C157   C     0.34046   0.95297   0.49471   0.00000  Uiso   1.00
C158   C     0.31279   0.98538   0.44753   0.00000  Uiso   1.00
C159   C     0.34386   0.83875   0.45112   0.00000  Uiso   1.00
C160   C     0.38286   0.81798   0.40488   0.00000  Uiso   1.00
C161   C     0.37457   0.78866   0.31659   0.00000  Uiso   1.00
H162   H     0.22524   0.85048   0.44202   0.00000  Uiso   1.00
H163   H     0.19629   0.82440   0.64270   0.00000  Uiso   1.00
H164   H     0.21214   0.92986   0.38091   0.00000  Uiso   1.00
H165   H     0.25453   0.79489   0.29109   0.00000  Uiso   1.00
H166   H     0.18432   0.79912   0.88306   0.00000  Uiso   1.00
H167   H     0.21774   0.02150   0.33101   0.00000  Uiso   1.00
H168   H     0.30713   0.73689   0.14161   0.00000  Uiso   1.00
H169   H     0.38038   0.87840   0.57960   0.00000  Uiso   1.00
H170   H     0.35994   0.85385   0.78784   0.00000  Uiso   1.00
H171   H     0.37579   0.95931   0.52604   0.00000  Uiso   1.00
H172   H     0.41818   0.82435   0.43623   0.00000  Uiso   1.00
H173   H     0.31714   0.82303   0.00086   0.00000  Uiso   1.00
H174   H     0.35057   0.04540   0.44881   0.00000  Uiso   1.00
H175   H     0.43996   0.76080   0.25941   0.00000  Uiso   1.00
O176   O     0.23448   0.79444   0.07647   0.00000  Uiso   1.00
O177   O     0.27834   0.08618   0.35218   0.00000  Uiso   1.00
O178   O     0.39561   0.71278   0.10370   0.00000  Uiso   1.00
N179   N     0.21839   0.80811   0.88220   0.00000  Uiso   1.00
N180   N     0.24964   0.01602   0.36609   0.00000  Uiso   1.00
N181   N     0.33320   0.74994   0.18899   0.00000  Uiso   1.00
N182   N     0.28986   0.82097   0.94559   0.00000  Uiso   1.00
N183   N     0.32111   0.02888   0.42947   0.00000  Uiso   1.00
N184   N     0.40468   0.76281   0.25238   0.00000  Uiso   1.00
C185   C     0.23922   0.64313   0.47355   0.00000  Uiso   1.00
C186   C     0.23343   0.65343   0.60166   0.00000  Uiso   1.00
C187   C     0.26838   0.66925   0.67407   0.00000  Uiso   1.00
C188   C     0.25605   0.67657   0.78854   0.00000  Uiso   1.00
C189   C     0.25402   0.69380   0.98132   0.00000  Uiso   1.00
C190   C     0.22482   0.59613   0.45943   0.00000  Uiso   1.00
C191   C     0.25253   0.56377   0.41224   0.00000  Uiso   1.00
C192   C     0.23295   0.52285   0.40698   0.00000  Uiso   1.00
C193   C     0.21754   0.45112   0.37886   0.00000  Uiso   1.00
C194   C     0.20179   0.66946   0.41064   0.00000  Uiso   1.00
C195   C     0.21014   0.69876   0.32240   0.00000  Uiso   1.00
C196   C     0.17117   0.71958   0.27603   0.00000  Uiso   1.00
C197   C     0.12000   0.76170   0.17217   0.00000  Uiso   1.00
C198   C     0.15516   0.62800   0.54808   0.00000  Uiso   1.00
C199   C     0.18778   0.64521   0.64214   0.00000  Uiso   1.00
C200   C     0.17539   0.65251   0.75654   0.00000  Uiso   1.00
C201   C     0.21032   0.66834   0.82910   0.00000  Uiso   1.00
C202   C     0.17917   0.58791   0.49991   0.00000  Uiso   1.00
C203   C     0.15954   0.54703   0.49471   0.00000  Uiso   1.00
C204   C     0.18721   0.51462   0.44753   0.00000  Uiso   1.00
C205   C     0.15614   0.66125   0.45112   0.00000  Uiso   1.00
C206   C     0.11714   0.68202   0.40488   0.00000  Uiso   1.00
C207   C     0.12543   0.71134   0.31659   0.00000  Uiso   1.00
H208   H     0.27476   0.64952   0.44202   0.00000  Uiso   1.00
H209   H     0.30371   0.67560   0.64270   0.00000  Uiso   1.00
H210   H     0.28786   0.57014   0.38091   0.00000  Uiso   1.00
H211   H     0.24547   0.70511   0.29109   0.00000  Uiso   1.00
H212   H     0.31568   0.70088   0.88306   0.00000  Uiso   1.00
H213   H     0.28226   0.47850   0.33101   0.00000  Uiso   1.00
H214   H     0.19287   0.76311   0.14161   0.00000  Uiso   1.00
H215   H     0.11962   0.62160   0.57960   0.00000  Uiso   1.00
H216   H     0.14006   0.64615   0.78784   0.00000  Uiso   1.00
H217   H     0.12421   0.54069   0.52604   0.00000  Uiso   1.00
H218   H     0.08182   0.67565   0.43623   0.00000  Uiso   1.00
H219   H     0.18286   0.67697   0.00086   0.00000  Uiso   1.00
H220   H     0.14943   0.45460   0.44881   0.00000  Uiso   1.00
H221   H     0.06004   0.73920   0.25941   0.00000  Uiso   1.00
O222   O     0.26552   0.70556   0.07647   0.00000  Uiso   1.00
O223   O     0.22166   0.41382   0.35218   0.00000  Uiso   1.00
O224   O     0.10439   0.78722   0.10370   0.00000  Uiso   1.00
N225   N     0.28161   0.69189   0.88220   0.00000  Uiso   1.00
N226   N     0.25036   0.48398   0.36609   0.00000  Uiso   1.00
N227   N     0.16680   0.75006   0.18899   0.00000  Uiso   1.00
N228   N     0.21014   0.67903   0.94559   0.00000  Uiso   1.00
N229   N     0.17889   0.47112   0.42947   0.00000  Uiso   1.00
N230   N     0.09532   0.73719   0.25238   0.00000  Uiso   1.00
C231   C     0.23922   0.14313   0.97355   0.00000  Uiso   1.00
C232   C     0.23343   0.15343   0.10166   0.00000  Uiso   1.00
C233   C     0.26838   0.16925   0.17407   0.00000  Uiso   1.00
C234   C     0.25605   0.17657   0.28854   0.00000  Uiso   1.00
C235   C     0.25402   0.19380   0.48132   0.00000  Uiso   1.00
C236   C     0.22482   0.09613   0.95943   0.00000  Uiso   1.00
C237   C     0.25253   0.06377   0.91224   0.00000  Uiso   1.00
C238   C     0.23295   0.02285   0.90698   0.00000  Uiso   1.00
C239   C     0.21754   0.95112   0.87886   0.00000  Uiso   1.00
C240   C     0.20179   0.16946   0.91064   0.00000  Uiso   1.00
C241   C     0.21014   0.19876   0.82240   0.00000  Uiso   1.00
C242   C     0.17117   0.21958   0.77603   0.00000  Uiso   1.00
C243   C     0.12000   0.26170   0.67217   0.00000  Uiso   1.00
C244   C     0.15516   0.12800   0.04808   0.00000  Uiso   1.00
C245   C     0.18778   0.14521   0.14214   0.00000  Uiso   1.00
C246   C     0.17539   0.15251   0.25654   0.00000  Uiso   1.00
C247   C     0.21032   0.16834   0.32910   0.00000  Uiso   1.00
C248   C     0.17917   0.08791   0.99991   0.00000  Uiso   1.00
C249   C     0.15954   0.04703   0.99471   0.00000  Uiso   1.00
C250   C     0.18721   0.01462   0.94753   0.00000  Uiso   1.00
C251   C     0.15614   0.16125   0.95112   0.00000  Uiso   1.00
C252   C     0.11714   0.18202   0.90488   0.00000  Uiso   1.00
C253   C     0.12543   0.21134   0.81659   0.00000  Uiso   1.00
H254   H     0.27476   0.14952   0.94202   0.00000  Uiso   1.00
H255   H     0.30371   0.17560   0.14270   0.00000  Uiso   1.00
H256   H     0.28786   0.07014   0.88091   0.00000  Uiso   1.00
H257   H     0.24547   0.20511   0.79109   0.00000  Uiso   1.00
H258   H     0.31568   0.20088   0.38306   0.00000  Uiso   1.00
H259   H     0.28226   0.97850   0.83101   0.00000  Uiso   1.00
H260   H     0.19287   0.26311   0.64161   0.00000  Uiso   1.00
H261   H     0.11962   0.12160   0.07960   0.00000  Uiso   1.00
H262   H     0.14006   0.14615   0.28784   0.00000  Uiso   1.00
H263   H     0.12421   0.04069   0.02604   0.00000  Uiso   1.00
H264   H     0.08182   0.17565   0.93623   0.00000  Uiso   1.00
H265   H     0.18286   0.17697   0.50086   0.00000  Uiso   1.00
H266   H     0.14943   0.95460   0.94881   0.00000  Uiso   1.00
H267   H     0.06004   0.23920   0.75941   0.00000  Uiso   1.00
O268   O     0.26552   0.20556   0.57647   0.00000  Uiso   1.00
O269   O     0.22166   0.91382   0.85218   0.00000  Uiso   1.00
O270   O     0.10439   0.28722   0.60370   0.00000  Uiso   1.00
N271   N     0.28161   0.19189   0.38220   0.00000  Uiso   1.00
N272   N     0.25036   0.98398   0.86609   0.00000  Uiso   1.00
N273   N     0.16680   0.25006   0.68899   0.00000  Uiso   1.00
N274   N     0.21014   0.17903   0.44559   0.00000  Uiso   1.00
N275   N     0.17889   0.97112   0.92947   0.00000  Uiso   1.00
N276   N     0.09532   0.23719   0.75238   0.00000  Uiso   1.00
C277   C     0.73922   0.64313   0.97355   0.00000  Uiso   1.00
C278   C     0.73343   0.65343   0.10166   0.00000  Uiso   1.00
C279   C     0.76838   0.66925   0.17407   0.00000  Uiso   1.00
C280   C     0.75605   0.67657   0.28854   0.00000  Uiso   1.00
C281   C     0.75402   0.69380   0.48132   0.00000  Uiso   1.00
C282   C     0.72482   0.59613   0.95943   0.00000  Uiso   1.00
C283   C     0.75253   0.56377   0.91224   0.00000  Uiso   1.00
C284   C     0.73295   0.52285   0.90698   0.00000  Uiso   1.00
C285   C     0.71754   0.45112   0.87886   0.00000  Uiso   1.00
C286   C     0.70179   0.66946   0.91064   0.00000  Uiso   1.00
C287   C     0.71014   0.69876   0.82240   0.00000  Uiso   1.00
C288   C     0.67117   0.71958   0.77603   0.00000  Uiso   1.00
C289   C     0.62000   0.76170   0.67217   0.00000  Uiso   1.00
C290   C     0.65516   0.62800   0.04808   0.00000  Uiso   1.00
C291   C     0.68778   0.64521   0.14214   0.00000  Uiso   1.00
C292   C     0.67539   0.65251   0.25654   0.00000  Uiso   1.00
C293   C     0.71032   0.66834   0.32910   0.00000  Uiso   1.00
C294   C     0.67917   0.58791   0.99991   0.00000  Uiso   1.00
C295   C     0.65954   0.54703   0.99471   0.00000  Uiso   1.00
C296   C     0.68721   0.51462   0.94753   0.00000  Uiso   1.00
C297   C     0.65614   0.66125   0.95112   0.00000  Uiso   1.00
C298   C     0.61714   0.68202   0.90488   0.00000  Uiso   1.00
C299   C     0.62543   0.71134   0.81659   0.00000  Uiso   1.00
H300   H     0.77476   0.64952   0.94202   0.00000  Uiso   1.00
H301   H     0.80371   0.67560   0.14270   0.00000  Uiso   1.00
H302   H     0.78786   0.57014   0.88091   0.00000  Uiso   1.00
H303   H     0.74547   0.70511   0.79109   0.00000  Uiso   1.00
H304   H     0.81568   0.70088   0.38306   0.00000  Uiso   1.00
H305   H     0.78226   0.47850   0.83101   0.00000  Uiso   1.00
H306   H     0.69287   0.76311   0.64161   0.00000  Uiso   1.00
H307   H     0.61962   0.62160   0.07960   0.00000  Uiso   1.00
H308   H     0.64006   0.64615   0.28784   0.00000  Uiso   1.00
H309   H     0.62421   0.54069   0.02604   0.00000  Uiso   1.00
H310   H     0.58182   0.67565   0.93623   0.00000  Uiso   1.00
H311   H     0.68286   0.67697   0.50086   0.00000  Uiso   1.00
H312   H     0.64943   0.45460   0.94881   0.00000  Uiso   1.00
H313   H     0.56004   0.73920   0.75941   0.00000  Uiso   1.00
O314   O     0.76552   0.70556   0.57647   0.00000  Uiso   1.00
O315   O     0.72166   0.41382   0.85218   0.00000  Uiso   1.00
O316   O     0.60439   0.78722   0.60370   0.00000  Uiso   1.00
N317   N     0.78161   0.69189   0.38220   0.00000  Uiso   1.00
N318   N     0.75036   0.48398   0.86609   0.00000  Uiso   1.00
N319   N     0.66680   0.75006   0.68899   0.00000  Uiso   1.00
N320   N     0.71014   0.67903   0.44559   0.00000  Uiso   1.00
N321   N     0.67889   0.47112   0.92947   0.00000  Uiso   1.00
N322   N     0.59532   0.73719   0.75238   0.00000  Uiso   1.00
C323   C     0.73922   0.14313   0.47355   0.00000  Uiso   1.00
C324   C     0.73343   0.15343   0.60166   0.00000  Uiso   1.00
C325   C     0.76838   0.16925   0.67407   0.00000  Uiso   1.00
C326   C     0.75605   0.17657   0.78854   0.00000  Uiso   1.00
C327   C     0.75402   0.19380   0.98132   0.00000  Uiso   1.00
C328   C     0.72482   0.09613   0.45943   0.00000  Uiso   1.00
C329   C     0.75253   0.06377   0.41224   0.00000  Uiso   1.00
C330   C     0.73295   0.02285   0.40698   0.00000  Uiso   1.00
C331   C     0.71754   0.95112   0.37886   0.00000  Uiso   1.00
C332   C     0.70179   0.16946   0.41064   0.00000  Uiso   1.00
C333   C     0.71014   0.19876   0.32240   0.00000  Uiso   1.00
C334   C     0.67117   0.21958   0.27603   0.00000  Uiso   1.00
C335   C     0.62000   0.26170   0.17217   0.00000  Uiso   1.00
C336   C     0.65516   0.12800   0.54808   0.00000  Uiso   1.00
C337   C     0.68778   0.14521   0.64214   0.00000  Uiso   1.00
C338   C     0.67539   0.15251   0.75654   0.00000  Uiso   1.00
C339   C     0.71032   0.16834   0.82910   0.00000  Uiso   1.00
C340   C     0.67917   0.08791   0.49991   0.00000  Uiso   1.00
C341   C     0.65954   0.04703   0.49471   0.00000  Uiso   1.00
C342   C     0.68721   0.01462   0.44753   0.00000  Uiso   1.00
C343   C     0.65614   0.16125   0.45112   0.00000  Uiso   1.00
C344   C     0.61714   0.18202   0.40488   0.00000  Uiso   1.00
C345   C     0.62543   0.21134   0.31659   0.00000  Uiso   1.00
H346   H     0.77476   0.14952   0.44202   0.00000  Uiso   1.00
H347   H     0.80371   0.17560   0.64270   0.00000  Uiso   1.00
H348   H     0.78786   0.07014   0.38091   0.00000  Uiso   1.00
H349   H     0.74547   0.20511   0.29109   0.00000  Uiso   1.00
H350   H     0.81568   0.20088   0.88306   0.00000  Uiso   1.00
H351   H     0.78226   0.97850   0.33101   0.00000  Uiso   1.00
H352   H     0.69287   0.26311   0.14161   0.00000  Uiso   1.00
H353   H     0.61962   0.12160   0.57960   0.00000  Uiso   1.00
H354   H     0.64006   0.14615   0.78784   0.00000  Uiso   1.00
H355   H     0.62421   0.04069   0.52604   0.00000  Uiso   1.00
H356   H     0.58182   0.17565   0.43623   0.00000  Uiso   1.00
H357   H     0.68286   0.17697   0.00086   0.00000  Uiso   1.00
H358   H     0.64943   0.95460   0.44881   0.00000  Uiso   1.00
H359   H     0.56004   0.23920   0.25941   0.00000  Uiso   1.00
O360   O     0.76552   0.20556   0.07647   0.00000  Uiso   1.00
O361   O     0.72166   0.91382   0.35218   0.00000  Uiso   1.00
O362   O     0.60439   0.28722   0.10370   0.00000  Uiso   1.00
N363   N     0.78161   0.19189   0.88220   0.00000  Uiso   1.00
N364   N     0.75036   0.98398   0.36609   0.00000  Uiso   1.00
N365   N     0.66680   0.25006   0.18899   0.00000  Uiso   1.00
N366   N     0.71014   0.17903   0.94559   0.00000  Uiso   1.00
N367   N     0.67889   0.97112   0.42947   0.00000  Uiso   1.00
N368   N     0.59532   0.23719   0.25238   0.00000  Uiso   1.00
C369   C     0.01078   0.89313   0.72355   0.00000  Uiso   1.00
C370   C     0.01657   0.90343   0.85166   0.00000  Uiso   1.00
C371   C     0.98162   0.91925   0.92407   0.00000  Uiso   1.00
C372   C     0.99395   0.92657   0.03854   0.00000  Uiso   1.00
C373   C     0.99598   0.94380   0.23132   0.00000  Uiso   1.00
C374   C     0.02518   0.84613   0.70943   0.00000  Uiso   1.00
C375   C     0.99747   0.81377   0.66224   0.00000  Uiso   1.00
C376   C     0.01705   0.77285   0.65698   0.00000  Uiso   1.00
C377   C     0.03246   0.70112   0.62886   0.00000  Uiso   1.00
C378   C     0.04821   0.91946   0.66064   0.00000  Uiso   1.00
C379   C     0.03986   0.94876   0.57240   0.00000  Uiso   1.00
C380   C     0.07883   0.96958   0.52603   0.00000  Uiso   1.00
C381   C     0.13000   0.01170   0.42217   0.00000  Uiso   1.00
C382   C     0.09484   0.87800   0.79808   0.00000  Uiso   1.00
C383   C     0.06222   0.89521   0.89214   0.00000  Uiso   1.00
C384   C     0.07461   0.90251   0.00654   0.00000  Uiso   1.00
C385   C     0.03968   0.91834   0.07910   0.00000  Uiso   1.00
C386   C     0.07083   0.83791   0.74991   0.00000  Uiso   1.00
C387   C     0.09046   0.79703   0.74471   0.00000  Uiso   1.00
C388   C     0.06279   0.76462   0.69753   0.00000  Uiso   1.00
C389   C     0.09386   0.91125   0.70112   0.00000  Uiso   1.00
C390   C     0.13286   0.93202   0.65488   0.00000  Uiso   1.00
C391   C     0.12457   0.96134   0.56659   0.00000  Uiso   1.00
H392   H     0.97524   0.89952   0.69202   0.00000  Uiso   1.00
H393   H     0.94629   0.92560   0.89270   0.00000  Uiso   1.00
H394   H     0.96214   0.82014   0.63091   0.00000  Uiso   1.00
H395   H     0.00453   0.95511   0.54109   0.00000  Uiso   1.00
H396   H     0.93432   0.95088   0.13306   0.00000  Uiso   1.00
H397   H     0.96774   0.72850   0.58101   0.00000  Uiso   1.00
H398   H     0.05713   0.01311   0.39161   0.00000  Uiso   1.00
H399   H     0.13038   0.87160   0.82960   0.00000  Uiso   1.00
H400   H     0.10994   0.89615   0.03784   0.00000  Uiso   1.00
H401   H     0.12579   0.79069   0.77604   0.00000  Uiso   1.00
H402   H     0.16818   0.92565   0.68623   0.00000  Uiso   1.00
H403   H     0.06714   0.92697   0.25086   0.00000  Uiso   1.00
H404   H     0.10057   0.70460   0.69881   0.00000  Uiso   1.00
H405   H     0.18996   0.98920   0.50941   0.00000  Uiso   1.00
O406   O     0.98448   0.95556   0.32647   0.00000  Uiso   1.00
O407   O     0.02834   0.66382   0.60218   0.00000  Uiso   1.00
O408   O     0.14561   0.03722   0.35370   0.00000  Uiso   1.00
N409   N     0.96839   0.94189   0.13220   0.00000  Uiso   1.00
N410   N     0.99964   0.73398   0.61609   0.00000  Uiso   1.00
N411   N     0.08320   0.00006   0.43899   0.00000  Uiso   1.00
N412   N     0.03986   0.92903   0.19559   0.00000  Uiso   1.00
N413   N     0.07111   0.72112   0.67947   0.00000  Uiso   1.00
N414   N     0.15468   0.98719   0.50238   0.00000  Uiso   1.00
C415   C     0.01078   0.39313   0.22355   0.00000  Uiso   1.00
C416   C     0.01657   0.40343   0.35166   0.00000  Uiso   1.00
C417   C     0.98162   0.41925   0.42407   0.00000  Uiso   1.00
C418   C     0.99395   0.42657   0.53854   0.00000  Uiso   1.00
C419   C     0.99598   0.44380   0.73132   0.00000  Uiso   1.00
C420   C     0.02518   0.34613   0.20943   0.00000  Uiso   1.00
C421   C     0.99747   0.31377   0.16224   0.00000  Uiso   1.00
C422   C     0.01705   0.27285   0.15698   0.00000  Uiso   1.00
C423   C     0.03246   0.20112   0.12886   0.00000  Uiso   1.00
C424   C     0.04821   0.41946   0.16064   0.00000  Uiso   1.00
C425   C     0.03986   0.44876   0.07240   0.00000  Uiso   1.00
C426   C     0.07883   0.46958   0.02603   0.00000  Uiso   1.00
C427   C     0.13000   0.51170   0.92217   0.00000  Uiso   1.00
C428   C     0.09484   0.37800   0.29808   0.00000  Uiso   1.00
C429   C     0.06222   0.39521   0.39214   0.00000  Uiso   1.00
C430   C     0.07461   0.40251   0.50654   0.00000  Uiso   1.00
C431   C     0.03968   0.41834   0.57910   0.00000  Uiso   1.00
C432   C     0.07083   0.33791   0.24991   0.00000  Uiso   1.00
C433   C     0.09046   0.29703   0.24471   0.00000  Uiso   1.00
C434   C     0.06279   0.26462   0.19753   0.00000  Uiso   1.00
C435   C     0.09386   0.41125   0.20112   0.00000  Uiso   1.00
C436   C     0.13286   0.43202   0.15488   0.00000  Uiso   1.00
C437   C     0.12457   0.46134   0.06659   0.00000  Uiso   1.00
H438   H     0.97524   0.39952   0.19202   0.00000  Uiso   1.00
H439   H     0.94629   0.42560   0.39270   0.00000  Uiso   1.00
H440   H     0.96214   0.32014   0.13091   0.00000  Uiso   1.00
H441   H     0.00453   0.45511   0.04109   0.00000  Uiso   1.00
H442   H     0.93432   0.45088   0.63306   0.00000  Uiso   1.00
H443   H     0.96774   0.22850   0.08101   0.00000  Uiso   1.00
H444   H     0.05713   0.51311   0.89161   0.00000  Uiso   1.00
H445   H     0.13038   0.37160   0.32960   0.00000  Uiso   1.00
H446   H     0.10994   0.39615   0.53784   0.00000  Uiso   1.00
H447   H     0.12579   0.29069   0.27604   0.00000  Uiso   1.00
H448   H     0.16818   0.42565   0.18623   0.00000  Uiso   1.00
H449   H     0.06714   0.42697   0.75086   0.00000  Uiso   1.00
H450   H     0.10057   0.20460   0.19881   0.00000  Uiso   1.00
H451   H     0.18996   0.48920   0.00941   0.00000  Uiso   1.00
O452   O     0.98448   0.45556   0.82647   0.00000  Uiso   1.00
O453   O     0.02834   0.16382   0.10218   0.00000  Uiso   1.00
O454   O     0.14561   0.53722   0.85370   0.00000  Uiso   1.00
N455   N     0.96839   0.44189   0.63220   0.00000  Uiso   1.00
N456   N     0.99964   0.23398   0.11609   0.00000  Uiso   1.00
N457   N     0.08320   0.50006   0.93899   0.00000  Uiso   1.00
N458   N     0.03986   0.42903   0.69559   0.00000  Uiso   1.00
N459   N     0.07111   0.22112   0.17947   0.00000  Uiso   1.00
N460   N     0.15468   0.48719   0.00238   0.00000  Uiso   1.00
C461   C     0.51078   0.89313   0.22355   0.00000  Uiso   1.00
C462   C     0.51657   0.90343   0.35166   0.00000  Uiso   1.00
C463   C     0.48162   0.91925   0.42407   0.00000  Uiso   1.00
C464   C     0.49395   0.92657   0.53854   0.00000  Uiso   1.00
C465   C     0.49598   0.94380   0.73132   0.00000  Uiso   1.00
C466   C     0.52518   0.84613   0.20943   0.00000  Uiso   1.00
C467   C     0.49747   0.81377   0.16224   0.00000  Uiso   1.00
C468   C     0.51705   0.77285   0.15698   0.00000  Uiso   1.00
C469   C     0.53246   0.70112   0.12886   0.00000  Uiso   1.00
C470   C     0.54821   0.91946   0.16064   0.00000  Uiso   1.00
C471   C     0.53986   0.94876   0.07240   0.00000  Uiso   1.00
C472   C     0.57883   0.96958   0.02603   0.00000  Uiso   1.00
C473   C     0.63000   0.01170   0.92217   0.00000  Uiso   1.00
C474   C     0.59484   0.87800   0.29808   0.00000  Uiso   1.00
C475   C     0.56222   0.89521   0.39214   0.00000  Uiso   1.00
C476   C     0.57461   0.90251   0.50654   0.00000  Uiso   1.00
C477   C     0.53968   0.91834   0.57910   0.00000  Uiso   1.00
C478   C     0.57083   0.83791   0.24991   0.00000  Uiso   1.00
C479   C     0.59046   0.79703   0.24471   0.00000  Uiso   1.00
C480   C     0.56279   0.76462   0.19753   0.00000  Uiso   1.00
C481   C     0.59386   0.91125   0.20112   0.00000  Uiso   1.00
C482   C     0.63286   0.93202   0.15488   0.00000  Uiso   1.00
C483   C     0.62457   0.96134   0.06659   0.00000  Uiso   1.00
H484   H     0.47524   0.89952   0.19202   0.00000  Uiso   1.00
H485   H     0.44629   0.92560   0.39270   0.00000  Uiso   1.00
H486   H     0.46214   0.82014   0.13091   0.00000  Uiso   1.00
H487   H     0.50453   0.95511   0.04109   0.00000  Uiso   1.00
H488   H     0.43432   0.95088   0.63306   0.00000  Uiso   1.00
H489   H     0.46774   0.72850   0.08101   0.00000  Uiso   1.00
H490   H     0.55713   0.01311   0.89161   0.00000  Uiso   1.00
H491   H     0.63038   0.87160   0.32960   0.00000  Uiso   1.00
H492   H     0.60994   0.89615   0.53784   0.00000  Uiso   1.00
H493   H     0.62579   0.79069   0.27604   0.00000  Uiso   1.00
H494   H     0.66818   0.92565   0.18623   0.00000  Uiso   1.00
H495   H     0.56714   0.92697   0.75086   0.00000  Uiso   1.00
H496   H     0.60057   0.70460   0.19881   0.00000  Uiso   1.00
H497   H     0.68996   0.98920   0.00941   0.00000  Uiso   1.00
O498   O     0.48448   0.95556   0.82647   0.00000  Uiso   1.00
O499   O     0.52834   0.66382   0.10218   0.00000  Uiso   1.00
O500   O     0.64561   0.03722   0.85370   0.00000  Uiso   1.00
N501   N     0.46839   0.94189   0.63220   0.00000  Uiso   1.00
N502   N     0.49964   0.73398   0.11609   0.00000  Uiso   1.00
N503   N     0.58320   0.00006   0.93899   0.00000  Uiso   1.00
N504   N     0.53986   0.92903   0.69559   0.00000  Uiso   1.00
N505   N     0.57111   0.72112   0.17947   0.00000  Uiso   1.00
N506   N     0.65468   0.98719   0.00238   0.00000  Uiso   1.00
C507   C     0.51078   0.39313   0.72355   0.00000  Uiso   1.00
C508   C     0.51657   0.40343   0.85166   0.00000  Uiso   1.00
C509   C     0.48162   0.41925   0.92407   0.00000  Uiso   1.00
C510   C     0.49395   0.42657   0.03854   0.00000  Uiso   1.00
C511   C     0.49598   0.44380   0.23132   0.00000  Uiso   1.00
C512   C     0.52518   0.34613   0.70943   0.00000  Uiso   1.00
C513   C     0.49747   0.31377   0.66224   0.00000  Uiso   1.00
C514   C     0.51705   0.27285   0.65698   0.00000  Uiso   1.00
C515   C     0.53246   0.20112   0.62886   0.00000  Uiso   1.00
C516   C     0.54821   0.41946   0.66064   0.00000  Uiso   1.00
C517   C     0.53986   0.44876   0.57240   0.00000  Uiso   1.00
C518   C     0.57883   0.46958   0.52603   0.00000  Uiso   1.00
C519   C     0.63000   0.51170   0.42217   0.00000  Uiso   1.00
C520   C     0.59484   0.37800   0.79808   0.00000  Uiso   1.00
C521   C     0.56222   0.39521   0.89214   0.00000  Uiso   1.00
C522   C     0.57461   0.40251   0.00654   0.00000  Uiso   1.00
C523   C     0.53968   0.41834   0.07910   0.00000  Uiso   1.00
C524   C     0.57083   0.33791   0.74991   0.00000  Uiso   1.00
C525   C     0.59046   0.29703   0.74471   0.00000  Uiso   1.00
C526   C     0.56279   0.26462   0.69753   0.00000  Uiso   1.00
C527   C     0.59386   0.41125   0.70112   0.00000  Uiso   1.00
C528   C     0.63286   0.43202   0.65488   0.00000  Uiso   1.00
C529   C     0.62457   0.46134   0.56659   0.00000  Uiso   1.00
H530   H     0.47524   0.39952   0.69202   0.00000  Uiso   1.00
H531   H     0.44629   0.42560   0.89270   0.00000  Uiso   1.00
H532   H     0.46214   0.32014   0.63091   0.00000  Uiso   1.00
H533   H     0.50453   0.45511   0.54109   0.00000  Uiso   1.00
H534   H     0.43432   0.45088   0.13306   0.00000  Uiso   1.00
H535   H     0.46774   0.22850   0.58101   0.00000  Uiso   1.00
H536   H     0.55713   0.51311   0.39161   0.00000  Uiso   1.00
H537   H     0.63038   0.37160   0.82960   0.00000  Uiso   1.00
H538   H     0.60994   0.39615   0.03784   0.00000  Uiso   1.00
H539   H     0.62579   0.29069   0.77604   0.00000  Uiso   1.00
H540   H     0.66818   0.42565   0.68623   0.00000  Uiso   1.00
H541   H     0.56714   0.42697   0.25086   0.00000  Uiso   1.00
H542   H     0.60057   0.20460   0.69881   0.00000  Uiso   1.00
H543   H     0.68996   0.48920   0.50941   0.00000  Uiso   1.00
O544   O     0.48448   0.45556   0.32647   0.00000  Uiso   1.00
O545   O     0.52834   0.16382   0.60218   0.00000  Uiso   1.00
O546   O     0.64561   0.53722   0.35370   0.00000  Uiso   1.00
N547   N     0.46839   0.44189   0.13220   0.00000  Uiso   1.00
N548   N     0.49964   0.23398   0.61609   0.00000  Uiso   1.00
N549   N     0.58320   0.50006   0.43899   0.00000  Uiso   1.00
N550   N     0.53986   0.42903   0.19559   0.00000  Uiso   1.00
N551   N     0.57111   0.22112   0.67947   0.00000  Uiso   1.00
N552   N     0.65468   0.48719   0.50238   0.00000  Uiso   1.00
C553   C     0.48922   0.60687   0.72355   0.00000  Uiso   1.00
C554   C     0.48343   0.59657   0.85166   0.00000  Uiso   1.00
C555   C     0.51838   0.58075   0.92407   0.00000  Uiso   1.00
C556   C     0.50605   0.57343   0.03854   0.00000  Uiso   1.00
C557   C     0.50402   0.55620   0.23132   0.00000  Uiso   1.00
C558   C     0.47482   0.65387   0.70943   0.00000  Uiso   1.00
C559   C     0.50253   0.68623   0.66224   0.00000  Uiso   1.00
C560   C     0.48295   0.72715   0.65698   0.00000  Uiso   1.00
C561   C     0.46754   0.79888   0.62886   0.00000  Uiso   1.00
C562   C     0.45179   0.58054   0.66064   0.00000  Uiso   1.00
C563   C     0.46014   0.55124   0.57240   0.00000  Uiso   1.00
C564   C     0.42117   0.53042   0.52603   0.00000  Uiso   1.00
C565   C     0.37000   0.48830   0.42217   0.00000  Uiso   1.00
C566   C     0.40516   0.62200   0.79808   0.00000  Uiso   1.00
C567   C     0.43778   0.60479   0.89214   0.00000  Uiso   1.00
C568   C     0.42539   0.59749   0.00654   0.00000  Uiso   1.00
C569   C     0.46032   0.58166   0.07910   0.00000  Uiso   1.00
C570   C     0.42917   0.66209   0.74991   0.00000  Uiso   1.00
C571   C     0.40954   0.70297   0.74471   0.00000  Uiso   1.00
C572   C     0.43721   0.73538   0.69753   0.00000  Uiso   1.00
C573   C     0.40614   0.58875   0.70112   0.00000  Uiso   1.00
C574   C     0.36714   0.56798   0.65488   0.00000  Uiso   1.00
C575   C     0.37543   0.53866   0.56659   0.00000  Uiso   1.00
H576   H     0.52476   0.60048   0.69202   0.00000  Uiso   1.00
H577   H     0.55371   0.57440   0.89270   0.00000  Uiso   1.00
H578   H     0.53786   0.67986   0.63091   0.00000  Uiso   1.00
H579   H     0.49547   0.54489   0.54109   0.00000  Uiso   1.00
H580   H     0.56568   0.54912   0.13306   0.00000  Uiso   1.00
H581   H     0.53226   0.77150   0.58101   0.00000  Uiso   1.00
H582   H     0.44287   0.48689   0.39161   0.00000  Uiso   1.00
H583   H     0.36962   0.62840   0.82960   0.00000  Uiso   1.00
H584   H     0.39006   0.60385   0.03784   0.00000  Uiso   1.00
H585   H     0.37421   0.70931   0.77604   0.00000  Uiso   1.00
H586   H     0.33182   0.57435   0.68623   0.00000  Uiso   1.00
H587   H     0.43286   0.57303   0.25086   0.00000  Uiso   1.00
H588   H     0.39943   0.79540   0.69881   0.00000  Uiso   1.00
H589   H     0.31004   0.51080   0.50941   0.00000  Uiso   1.00
O590   O     0.51552   0.54444   0.32647   0.00000  Uiso   1.00
O591   O     0.47166   0.83618   0.60218   0.00000  Uiso   1.00
O592   O     0.35439   0.46278   0.35370   0.00000  Uiso   1.00
N593   N     0.53161   0.55811   0.13220   0.00000  Uiso   1.00
N594   N     0.50036   0.76602   0.61609   0.00000  Uiso   1.00
N595   N     0.41680   0.49994   0.43899   0.00000  Uiso   1.00
N596   N     0.46014   0.57097   0.19559   0.00000  Uiso   1.00
N597   N     0.42889   0.77888   0.67947   0.00000  Uiso   1.00
N598   N     0.34532   0.51281   0.50238   0.00000  Uiso   1.00
C599   C     0.48922   0.10687   0.22355   0.00000  Uiso   1.00
C600   C     0.48343   0.09657   0.35166   0.00000  Uiso   1.00
C601   C     0.51838   0.08075   0.42407   0.00000  Uiso   1.00
C602   C     0.50605   0.07343   0.53854   0.00000  Uiso   1.00
C603   C     0.50402   0.05620   0.73132   0.00000  Uiso   1.00
C604   C     0.47482   0.15387   0.20943   0.00000  Uiso   1.00
C605   C     0.50253   0.18623   0.16224   0.00000  Uiso   1.00
C606   C     0.48295   0.22715   0.15698   0.00000  Uiso   1.00
C607   C     0.46754   0.29888   0.12886   0.00000  Uiso   1.00
C608   C     0.45179   0.08054   0.16064   0.00000  Uiso   1.00
C609   C     0.46014   0.05124   0.07240   0.00000  Uiso   1.00
C610   C     0.42117   0.03042   0.02603   0.00000  Uiso   1.00
C611   C     0.37000   0.98830   0.92217   0.00000  Uiso   1.00
C612   C     0.40516   0.12200   0.29808   0.00000  Uiso   1.00
C613   C     0.43778   0.10479   0.39214   0.00000  Uiso   1.00
C614   C     0.42539   0.09749   0.50654   0.00000  Uiso   1.00
C615   C     0.46032   0.08166   0.57910   0.00000  Uiso   1.00
C616   C     0.42917   0.16209   0.24991   0.00000  Uiso   1.00
C617   C     0.40954   0.20297   0.24471   0.00000  Uiso   1.00
C618   C     0.43721   0.23538   0.19753   0.00000  Uiso   1.00
C619   C     0.40614   0.08875   0.20112   0.00000  Uiso   1.00
C620   C     0.36714   0.06798   0.15488   0.00000  Uiso   1.00
C621   C     0.37543   0.03866   0.06659   0.00000  Uiso   1.00
H622   H     0.52476   0.10048   0.19202   0.00000  Uiso   1.00
H623   H     0.55371   0.07440   0.39270   0.00000  Uiso   1.00
H624   H     0.53786   0.17986   0.13091   0.00000  Uiso   1.00
H625   H     0.49547   0.04489   0.04109   0.00000  Uiso   1.00
H626   H     0.56568   0.04912   0.63306   0.00000  Uiso   1.00
H627   H     0.53226   0.27150   0.08101   0.00000  Uiso   1.00
H628   H     0.44287   0.98689   0.89161   0.00000  Uiso   1.00
H629   H     0.36962   0.12840   0.32960   0.00000  Uiso   1.00
H630   H     0.39006   0.10385   0.53784   0.00000  Uiso   1.00
H631   H     0.37421   0.20931   0.27604   0.00000  Uiso   1.00
H632   H     0.33182   0.07435   0.18623   0.00000  Uiso   1.00
H633   H     0.43286   0.07303   0.75086   0.00000  Uiso   1.00
H634   H     0.39943   0.29540   0.19881   0.00000  Uiso   1.00
H635   H     0.31004   0.01080   0.00941   0.00000  Uiso   1.00
O636   O     0.51552   0.04444   0.82647   0.00000  Uiso   1.00
O637   O     0.47166   0.33618   0.10218   0.00000  Uiso   1.00
O638   O     0.35439   0.96278   0.85370   0.00000  Uiso   1.00
N639   N     0.53161   0.05811   0.63220   0.00000  Uiso   1.00
N640   N     0.50036   0.26602   0.11609   0.00000  Uiso   1.00
N641   N     0.41680   0.99994   0.93899   0.00000  Uiso   1.00
N642   N     0.46014   0.07097   0.69559   0.00000  Uiso   1.00
N643   N     0.42889   0.27888   0.17947   0.00000  Uiso   1.00
N644   N     0.34532   0.01281   0.00238   0.00000  Uiso   1.00
C645   C     0.98922   0.60687   0.22355   0.00000  Uiso   1.00
C646   C     0.98343   0.59657   0.35166   0.00000  Uiso   1.00
C647   C     0.01838   0.58075   0.42407   0.00000  Uiso   1.00
C648   C     0.00605   0.57343   0.53854   0.00000  Uiso   1.00
C649   C     0.00402   0.55620   0.73132   0.00000  Uiso   1.00
C650   C     0.97482   0.65387   0.20943   0.00000  Uiso   1.00
C651   C     0.00253   0.68623   0.16224   0.00000  Uiso   1.00
C652   C     0.98295   0.72715   0.15698   0.00000  Uiso   1.00
C653   C     0.96754   0.79888   0.12886   0.00000  Uiso   1.00
C654   C     0.95179   0.58054   0.16064   0.00000  Uiso   1.00
C655   C     0.96014   0.55124   0.07240   0.00000  Uiso   1.00
C656   C     0.92117   0.53042   0.02603   0.00000  Uiso   1.00
C657   C     0.87000   0.48830   0.92217   0.00000  Uiso   1.00
C658   C     0.90516   0.62200   0.29808   0.00000  Uiso   1.00
C659   C     0.93778   0.60479   0.39214   0.00000  Uiso   1.00
C660   C     0.92539   0.59749   0.50654   0.00000  Uiso   1.00
C661   C     0.96032   0.58166   0.57910   0.00000  Uiso   1.00
C662   C     0.92917   0.66209   0.24991   0.00000  Uiso   1.00
C663   C     0.90954   0.70297   0.24471   0.00000  Uiso   1.00
C664   C     0.93721   0.73538   0.19753   0.00000  Uiso   1.00
C665   C     0.90614   0.58875   0.20112   0.00000  Uiso   1.00
C666   C     0.86714   0.56798   0.15488   0.00000  Uiso   1.00
C667   C     0.87543   0.53866   0.06659   0.00000  Uiso   1.00
H668   H     0.02476   0.60048   0.19202   0.00000  Uiso   1.00
H669   H     0.05371   0.57440   0.39270   0.00000  Uiso   1.00
H670   H     0.03786   0.67986   0.13091   0.00000  Uiso   1.00
H671   H     0.99547   0.54489   0.04109   0.00000  Uiso   1.00
H672   H     0.06568   0.54912   0.63306   0.00000  Uiso   1.00
H673   H     0.03226   0.77150   0.08101   0.00000  Uiso   1.00
H674   H     0.94287   0.48689   0.89161   0.00000  Uiso   1.00
H675   H     0.86962   0.62840   0.32960   0.00000  Uiso   1.00
H676   H     0.89006   0.60385   0.53784   0.00000  Uiso   1.00
H677   H     0.87421   0.70931   0.27604   0.00000  Uiso   1.00
H678   H     0.83182   0.57435   0.18623   0.00000  Uiso   1.00
H679   H     0.93286   0.57303   0.75086   0.00000  Uiso   1.00
H680   H     0.89943   0.79540   0.19881   0.00000  Uiso   1.00
H681   H     0.81004   0.51080   0.00941   0.00000  Uiso   1.00
O682   O     0.01552   0.54444   0.82647   0.00000  Uiso   1.00
O683   O     0.97166   0.83618   0.10218   0.00000  Uiso   1.00
O684   O     0.85439   0.46278   0.85370   0.00000  Uiso   1.00
N685   N     0.03161   0.55811   0.63220   0.00000  Uiso   1.00
N686   N     0.00036   0.76602   0.11609   0.00000  Uiso   1.00
N687   N     0.91680   0.49994   0.93899   0.00000  Uiso   1.00
N688   N     0.96014   0.57097   0.69559   0.00000  Uiso   1.00
N689   N     0.92889   0.77888   0.17947   0.00000  Uiso   1.00
N690   N     0.84532   0.51281   0.00238   0.00000  Uiso   1.00
C691   C     0.98922   0.10687   0.72355   0.00000  Uiso   1.00
C692   C     0.98343   0.09657   0.85166   0.00000  Uiso   1.00
C693   C     0.01838   0.08075   0.92407   0.00000  Uiso   1.00
C694   C     0.00605   0.07343   0.03854   0.00000  Uiso   1.00
C695   C     0.00402   0.05620   0.23132   0.00000  Uiso   1.00
C696   C     0.97482   0.15387   0.70943   0.00000  Uiso   1.00
C697   C     0.00253   0.18623   0.66224   0.00000  Uiso   1.00
C698   C     0.98295   0.22715   0.65698   0.00000  Uiso   1.00
C699   C     0.96754   0.29888   0.62886   0.00000  Uiso   1.00
C700   C     0.95179   0.08054   0.66064   0.00000  Uiso   1.00
C701   C     0.96014   0.05124   0.57240   0.00000  Uiso   1.00
C702   C     0.92117   0.03042   0.52603   0.00000  Uiso   1.00
C703   C     0.87000   0.98830   0.42217   0.00000  Uiso   1.00
C704   C     0.90516   0.12200   0.79808   0.00000  Uiso   1.00
C705   C     0.93778   0.10479   0.89214   0.00000  Uiso   1.00
C706   C     0.92539   0.09749   0.00654   0.00000  Uiso   1.00
C707   C     0.96032   0.08166   0.07910   0.00000  Uiso   1.00
C708   C     0.92917   0.16209   0.74991   0.00000  Uiso   1.00
C709   C     0.90954   0.20297   0.74471   0.00000  Uiso   1.00
C710   C     0.93721   0.23538   0.69753   0.00000  Uiso   1.00
C711   C     0.90614   0.08875   0.70112   0.00000  Uiso   1.00
C712   C     0.86714   0.06798   0.65488   0.00000  Uiso   1.00
C713   C     0.87543   0.03866   0.56659   0.00000  Uiso   1.00
H714   H     0.02476   0.10048   0.69202   0.00000  Uiso   1.00
H715   H     0.05371   0.07440   0.89270   0.00000  Uiso   1.00
H716   H     0.03786   0.17986   0.63091   0.00000  Uiso   1.00
H717   H     0.99547   0.04489   0.54109   0.00000  Uiso   1.00
H718   H     0.06568   0.04912   0.13306   0.00000  Uiso   1.00
H719   H     0.03226   0.27150   0.58101   0.00000  Uiso   1.00
H720   H     0.94287   0.98689   0.39161   0.00000  Uiso   1.00
H721   H     0.86962   0.12840   0.82960   0.00000  Uiso   1.00
H722   H     0.89006   0.10385   0.03784   0.00000  Uiso   1.00
H723   H     0.87421   0.20931   0.77604   0.00000  Uiso   1.00
H724   H     0.83182   0.07435   0.68623   0.00000  Uiso   1.00
H725   H     0.93286   0.07303   0.25086   0.00000  Uiso   1.00
H726   H     0.89943   0.29540   0.69881   0.00000  Uiso   1.00
H727   H     0.81004   0.01080   0.50941   0.00000  Uiso   1.00
O728   O     0.01552   0.04444   0.32647   0.00000  Uiso   1.00
O729   O     0.97166   0.33618   0.60218   0.00000  Uiso   1.00
O730   O     0.85439   0.96278   0.35370   0.00000  Uiso   1.00
N731   N     0.03161   0.05811   0.13220   0.00000  Uiso   1.00
N732   N     0.00036   0.26602   0.61609   0.00000  Uiso   1.00
N733   N     0.91680   0.99994   0.43899   0.00000  Uiso   1.00
N734   N     0.96014   0.07097   0.19559   0.00000  Uiso   1.00
N735   N     0.92889   0.27888   0.67947   0.00000  Uiso   1.00
N736   N     0.84532   0.01281   0.50238   0.00000  Uiso   1.00
