data_job_02138
_audit_creation_date              2018-12-19
_audit_creation_method            'Materials Studio'
_symmetry_space_group_name_H-M    'P1'
_symmetry_Int_Tables_number       1
_symmetry_cell_setting            triclinic
loop_
_symmetry_equiv_pos_as_xyz
  x,y,z
_cell_length_a                    31.4250
_cell_length_b                    31.4250
_cell_length_c                    12.6503
_cell_angle_alpha                 90.0000
_cell_angle_beta                  90.0000
_cell_angle_gamma                 90.0000
loop_
_atom_site_label
_atom_site_type_symbol
_atom_site_fract_x
_atom_site_fract_y
_atom_site_fract_z
_atom_site_U_iso_or_equiv
_atom_site_adp_type
_atom_site_occupancy
C1     C     0.92944   0.65139   0.11249   0.00000  Uiso   1.00
C2     C     0.97527   0.63565   0.10588   0.00000  Uiso   1.00
C3     C     0.98892   0.59448   0.12644   0.00000  Uiso   1.00
C4     C     0.03217   0.58647   0.11600   0.00000  Uiso   1.00
C5     C     0.09899   0.55717   0.11034   0.00000  Uiso   1.00
C6     C     0.92987   0.68872   0.18948   0.00000  Uiso   1.00
C7     C     0.90535   0.69217   0.28032   0.00000  Uiso   1.00
C8     C     0.91037   0.72885   0.34024   0.00000  Uiso   1.00
C9     C     0.90669   0.78195   0.46433   0.00000  Uiso   1.00
C10    C     0.91918   0.67022   0.00436   0.00000  Uiso   1.00
C11    C     0.88567   0.65812   0.93956   0.00000  Uiso   1.00
C12    C     0.88169   0.67922   0.84363   0.00000  Uiso   1.00
C13    C     0.86141   0.70359   0.68029   0.00000  Uiso   1.00
C14    C     0.98197   0.71038   0.05739   0.00000  Uiso   1.00
C15    C     0.00380   0.66770   0.07595   0.00000  Uiso   1.00
C16    C     0.04703   0.65975   0.06547   0.00000  Uiso   1.00
C17    C     0.06075   0.61857   0.08601   0.00000  Uiso   1.00
C18    C     0.95840   0.72077   0.15956   0.00000  Uiso   1.00
C19    C     0.96346   0.75745   0.21935   0.00000  Uiso   1.00
C20    C     0.93895   0.76095   0.31026   0.00000  Uiso   1.00
C21    C     0.94771   0.70226   0.97443   0.00000  Uiso   1.00
C22    C     0.94378   0.72339   0.87859   0.00000  Uiso   1.00
C23    C     0.91027   0.71132   0.81365   0.00000  Uiso   1.00
H24    H     0.90723   0.62644   0.13580   0.00000  Uiso   1.00
H25    H     0.96684   0.56969   0.14961   0.00000  Uiso   1.00
H26    H     0.88327   0.66737   0.30345   0.00000  Uiso   1.00
H27    H     0.86360   0.63332   0.96274   0.00000  Uiso   1.00
H28    H     0.04550   0.52090   0.15176   0.00000  Uiso   1.00
H29    H     0.86929   0.72688   0.47613   0.00000  Uiso   1.00
H30    H     0.82780   0.65507   0.75768   0.00000  Uiso   1.00
H31    H     0.00418   0.73533   0.03409   0.00000  Uiso   1.00
H32    H     0.06910   0.68456   0.04231   0.00000  Uiso   1.00
H33    H     0.98554   0.78224   0.19617   0.00000  Uiso   1.00
H34    H     0.96586   0.74819   0.85545   0.00000  Uiso   1.00
H35    H     0.12851   0.61413   0.06468   0.00000  Uiso   1.00
H36    H     0.95229   0.82011   0.38906   0.00000  Uiso   1.00
H37    H     0.91081   0.74830   0.67060   0.00000  Uiso   1.00
O38    O     0.12797   0.53215   0.11550   0.00000  Uiso   1.00
O39    O     0.89677   0.80239   0.54106   0.00000  Uiso   1.00
O40    O     0.84235   0.70818   0.59846   0.00000  Uiso   1.00
N41    N     0.05612   0.54981   0.13012   0.00000  Uiso   1.00
N42    N     0.89138   0.74238   0.43340   0.00000  Uiso   1.00
N43    N     0.85259   0.67526   0.76171   0.00000  Uiso   1.00
N44    N     0.10079   0.59998   0.08326   0.00000  Uiso   1.00
N45    N     0.93605   0.79255   0.38654   0.00000  Uiso   1.00
N46    N     0.89725   0.72543   0.71486   0.00000  Uiso   1.00
C47    C     0.42944   0.15139   0.61249   0.00000  Uiso   1.00
C48    C     0.47527   0.13565   0.60588   0.00000  Uiso   1.00
C49    C     0.48892   0.09448   0.62644   0.00000  Uiso   1.00
C50    C     0.53217   0.08647   0.61600   0.00000  Uiso   1.00
C51    C     0.59899   0.05717   0.61034   0.00000  Uiso   1.00
C52    C     0.42987   0.18872   0.68948   0.00000  Uiso   1.00
C53    C     0.40535   0.19217   0.78032   0.00000  Uiso   1.00
C54    C     0.41037   0.22885   0.84024   0.00000  Uiso   1.00
C55    C     0.40669   0.28195   0.96433   0.00000  Uiso   1.00
C56    C     0.41918   0.17022   0.50436   0.00000  Uiso   1.00
C57    C     0.38567   0.15812   0.43956   0.00000  Uiso   1.00
C58    C     0.38169   0.17922   0.34363   0.00000  Uiso   1.00
C59    C     0.36141   0.20359   0.18029   0.00000  Uiso   1.00
C60    C     0.48197   0.21038   0.55739   0.00000  Uiso   1.00
C61    C     0.50380   0.16770   0.57595   0.00000  Uiso   1.00
C62    C     0.54703   0.15975   0.56547   0.00000  Uiso   1.00
C63    C     0.56075   0.11857   0.58601   0.00000  Uiso   1.00
C64    C     0.45840   0.22077   0.65956   0.00000  Uiso   1.00
C65    C     0.46346   0.25745   0.71935   0.00000  Uiso   1.00
C66    C     0.43895   0.26095   0.81026   0.00000  Uiso   1.00
C67    C     0.44771   0.20226   0.47443   0.00000  Uiso   1.00
C68    C     0.44378   0.22339   0.37859   0.00000  Uiso   1.00
C69    C     0.41027   0.21132   0.31365   0.00000  Uiso   1.00
H70    H     0.40723   0.12644   0.63580   0.00000  Uiso   1.00
H71    H     0.46684   0.06969   0.64961   0.00000  Uiso   1.00
H72    H     0.38327   0.16737   0.80345   0.00000  Uiso   1.00
H73    H     0.36360   0.13332   0.46274   0.00000  Uiso   1.00
H74    H     0.54550   0.02090   0.65176   0.00000  Uiso   1.00
H75    H     0.36929   0.22688   0.97613   0.00000  Uiso   1.00
H76    H     0.32780   0.15507   0.25768   0.00000  Uiso   1.00
H77    H     0.50418   0.23533   0.53409   0.00000  Uiso   1.00
H78    H     0.56910   0.18456   0.54231   0.00000  Uiso   1.00
H79    H     0.48554   0.28224   0.69617   0.00000  Uiso   1.00
H80    H     0.46586   0.24819   0.35545   0.00000  Uiso   1.00
H81    H     0.62851   0.11413   0.56468   0.00000  Uiso   1.00
H82    H     0.45229   0.32011   0.88906   0.00000  Uiso   1.00
H83    H     0.41081   0.24830   0.17060   0.00000  Uiso   1.00
O84    O     0.62797   0.03215   0.61550   0.00000  Uiso   1.00
O85    O     0.39677   0.30239   0.04106   0.00000  Uiso   1.00
O86    O     0.34235   0.20818   0.09846   0.00000  Uiso   1.00
N87    N     0.55612   0.04981   0.63012   0.00000  Uiso   1.00
N88    N     0.39138   0.24238   0.93340   0.00000  Uiso   1.00
N89    N     0.35259   0.17526   0.26171   0.00000  Uiso   1.00
N90    N     0.60079   0.09998   0.58326   0.00000  Uiso   1.00
N91    N     0.43605   0.29255   0.88654   0.00000  Uiso   1.00
N92    N     0.39725   0.22543   0.21486   0.00000  Uiso   1.00
C93    C     0.57056   0.84861   0.61249   0.00000  Uiso   1.00
C94    C     0.52473   0.86435   0.60588   0.00000  Uiso   1.00
C95    C     0.51108   0.90552   0.62644   0.00000  Uiso   1.00
C96    C     0.46783   0.91353   0.61600   0.00000  Uiso   1.00
C97    C     0.40101   0.94283   0.61034   0.00000  Uiso   1.00
C98    C     0.57013   0.81128   0.68948   0.00000  Uiso   1.00
C99    C     0.59465   0.80783   0.78032   0.00000  Uiso   1.00
C100   C     0.58963   0.77115   0.84024   0.00000  Uiso   1.00
C101   C     0.59331   0.71805   0.96433   0.00000  Uiso   1.00
C102   C     0.58082   0.82978   0.50436   0.00000  Uiso   1.00
C103   C     0.61433   0.84188   0.43956   0.00000  Uiso   1.00
C104   C     0.61831   0.82078   0.34363   0.00000  Uiso   1.00
C105   C     0.63859   0.79641   0.18029   0.00000  Uiso   1.00
C106   C     0.51803   0.78962   0.55739   0.00000  Uiso   1.00
C107   C     0.49620   0.83230   0.57595   0.00000  Uiso   1.00
C108   C     0.45297   0.84025   0.56547   0.00000  Uiso   1.00
C109   C     0.43925   0.88143   0.58601   0.00000  Uiso   1.00
C110   C     0.54160   0.77923   0.65956   0.00000  Uiso   1.00
C111   C     0.53654   0.74255   0.71935   0.00000  Uiso   1.00
C112   C     0.56105   0.73905   0.81026   0.00000  Uiso   1.00
C113   C     0.55229   0.79774   0.47443   0.00000  Uiso   1.00
C114   C     0.55622   0.77661   0.37859   0.00000  Uiso   1.00
C115   C     0.58973   0.78868   0.31365   0.00000  Uiso   1.00
H116   H     0.59277   0.87356   0.63580   0.00000  Uiso   1.00
H117   H     0.53316   0.93031   0.64961   0.00000  Uiso   1.00
H118   H     0.61673   0.83263   0.80345   0.00000  Uiso   1.00
H119   H     0.63640   0.86668   0.46274   0.00000  Uiso   1.00
H120   H     0.45450   0.97910   0.65176   0.00000  Uiso   1.00
H121   H     0.63071   0.77312   0.97613   0.00000  Uiso   1.00
H122   H     0.67220   0.84493   0.25768   0.00000  Uiso   1.00
H123   H     0.49582   0.76467   0.53409   0.00000  Uiso   1.00
H124   H     0.43090   0.81544   0.54231   0.00000  Uiso   1.00
H125   H     0.51446   0.71776   0.69617   0.00000  Uiso   1.00
H126   H     0.53414   0.75181   0.35545   0.00000  Uiso   1.00
H127   H     0.37149   0.88587   0.56468   0.00000  Uiso   1.00
H128   H     0.54771   0.67989   0.88906   0.00000  Uiso   1.00
H129   H     0.58919   0.75170   0.17060   0.00000  Uiso   1.00
O130   O     0.37203   0.96785   0.61550   0.00000  Uiso   1.00
O131   O     0.60323   0.69761   0.04106   0.00000  Uiso   1.00
O132   O     0.65765   0.79182   0.09846   0.00000  Uiso   1.00
N133   N     0.44388   0.95019   0.63012   0.00000  Uiso   1.00
N134   N     0.60862   0.75762   0.93340   0.00000  Uiso   1.00
N135   N     0.64741   0.82474   0.26171   0.00000  Uiso   1.00
N136   N     0.39921   0.90002   0.58326   0.00000  Uiso   1.00
N137   N     0.56395   0.70745   0.88654   0.00000  Uiso   1.00
N138   N     0.60275   0.77457   0.21486   0.00000  Uiso   1.00
C139   C     0.07056   0.34861   0.11249   0.00000  Uiso   1.00
C140   C     0.02473   0.36435   0.10588   0.00000  Uiso   1.00
C141   C     0.01108   0.40552   0.12644   0.00000  Uiso   1.00
C142   C     0.96783   0.41353   0.11600   0.00000  Uiso   1.00
C143   C     0.90101   0.44283   0.11034   0.00000  Uiso   1.00
C144   C     0.07013   0.31128   0.18948   0.00000  Uiso   1.00
C145   C     0.09465   0.30783   0.28032   0.00000  Uiso   1.00
C146   C     0.08963   0.27115   0.34024   0.00000  Uiso   1.00
C147   C     0.09331   0.21805   0.46433   0.00000  Uiso   1.00
C148   C     0.08082   0.32978   0.00436   0.00000  Uiso   1.00
C149   C     0.11433   0.34188   0.93956   0.00000  Uiso   1.00
C150   C     0.11831   0.32078   0.84363   0.00000  Uiso   1.00
C151   C     0.13859   0.29641   0.68029   0.00000  Uiso   1.00
C152   C     0.01803   0.28962   0.05739   0.00000  Uiso   1.00
C153   C     0.99620   0.33230   0.07595   0.00000  Uiso   1.00
C154   C     0.95297   0.34025   0.06547   0.00000  Uiso   1.00
C155   C     0.93925   0.38143   0.08601   0.00000  Uiso   1.00
C156   C     0.04160   0.27923   0.15956   0.00000  Uiso   1.00
C157   C     0.03654   0.24255   0.21935   0.00000  Uiso   1.00
C158   C     0.06105   0.23905   0.31026   0.00000  Uiso   1.00
C159   C     0.05229   0.29774   0.97443   0.00000  Uiso   1.00
C160   C     0.05622   0.27661   0.87859   0.00000  Uiso   1.00
C161   C     0.08973   0.28868   0.81365   0.00000  Uiso   1.00
H162   H     0.09277   0.37356   0.13580   0.00000  Uiso   1.00
H163   H     0.03316   0.43031   0.14961   0.00000  Uiso   1.00
H164   H     0.11673   0.33263   0.30345   0.00000  Uiso   1.00
H165   H     0.13640   0.36668   0.96274   0.00000  Uiso   1.00
H166   H     0.95450   0.47910   0.15176   0.00000  Uiso   1.00
H167   H     0.13071   0.27312   0.47613   0.00000  Uiso   1.00
H168   H     0.17220   0.34493   0.75768   0.00000  Uiso   1.00
H169   H     0.99582   0.26467   0.03409   0.00000  Uiso   1.00
H170   H     0.93090   0.31544   0.04231   0.00000  Uiso   1.00
H171   H     0.01446   0.21776   0.19617   0.00000  Uiso   1.00
H172   H     0.03414   0.25181   0.85545   0.00000  Uiso   1.00
H173   H     0.87149   0.38587   0.06468   0.00000  Uiso   1.00
H174   H     0.04771   0.17989   0.38906   0.00000  Uiso   1.00
H175   H     0.08919   0.25170   0.67060   0.00000  Uiso   1.00
O176   O     0.87203   0.46785   0.11550   0.00000  Uiso   1.00
O177   O     0.10323   0.19761   0.54106   0.00000  Uiso   1.00
O178   O     0.15765   0.29182   0.59846   0.00000  Uiso   1.00
N179   N     0.94388   0.45019   0.13012   0.00000  Uiso   1.00
N180   N     0.10862   0.25762   0.43340   0.00000  Uiso   1.00
N181   N     0.14741   0.32474   0.76171   0.00000  Uiso   1.00
N182   N     0.89921   0.40002   0.08326   0.00000  Uiso   1.00
N183   N     0.06395   0.20745   0.38654   0.00000  Uiso   1.00
N184   N     0.10275   0.27457   0.71486   0.00000  Uiso   1.00
C185   C     0.34861   0.42944   0.36249   0.00000  Uiso   1.00
C186   C     0.36435   0.47527   0.35588   0.00000  Uiso   1.00
C187   C     0.40552   0.48892   0.37644   0.00000  Uiso   1.00
C188   C     0.41353   0.53217   0.36600   0.00000  Uiso   1.00
C189   C     0.44283   0.59899   0.36034   0.00000  Uiso   1.00
C190   C     0.31128   0.42987   0.43948   0.00000  Uiso   1.00
C191   C     0.30783   0.40535   0.53032   0.00000  Uiso   1.00
C192   C     0.27115   0.41037   0.59024   0.00000  Uiso   1.00
C193   C     0.21805   0.40669   0.71433   0.00000  Uiso   1.00
C194   C     0.32978   0.41918   0.25436   0.00000  Uiso   1.00
C195   C     0.34188   0.38567   0.18956   0.00000  Uiso   1.00
C196   C     0.32078   0.38169   0.09363   0.00000  Uiso   1.00
C197   C     0.29641   0.36141   0.93029   0.00000  Uiso   1.00
C198   C     0.28962   0.48197   0.30739   0.00000  Uiso   1.00
C199   C     0.33230   0.50380   0.32595   0.00000  Uiso   1.00
C200   C     0.34025   0.54703   0.31547   0.00000  Uiso   1.00
C201   C     0.38143   0.56075   0.33601   0.00000  Uiso   1.00
C202   C     0.27923   0.45840   0.40956   0.00000  Uiso   1.00
C203   C     0.24255   0.46346   0.46935   0.00000  Uiso   1.00
C204   C     0.23905   0.43895   0.56026   0.00000  Uiso   1.00
C205   C     0.29774   0.44771   0.22443   0.00000  Uiso   1.00
C206   C     0.27661   0.44378   0.12859   0.00000  Uiso   1.00
C207   C     0.28868   0.41027   0.06365   0.00000  Uiso   1.00
H208   H     0.37356   0.40723   0.38580   0.00000  Uiso   1.00
H209   H     0.43031   0.46684   0.39961   0.00000  Uiso   1.00
H210   H     0.33263   0.38327   0.55345   0.00000  Uiso   1.00
H211   H     0.36668   0.36360   0.21274   0.00000  Uiso   1.00
H212   H     0.47910   0.54550   0.40176   0.00000  Uiso   1.00
H213   H     0.27312   0.36929   0.72613   0.00000  Uiso   1.00
H214   H     0.34493   0.32780   0.00768   0.00000  Uiso   1.00
H215   H     0.26467   0.50418   0.28409   0.00000  Uiso   1.00
H216   H     0.31544   0.56910   0.29231   0.00000  Uiso   1.00
H217   H     0.21776   0.48554   0.44617   0.00000  Uiso   1.00
H218   H     0.25181   0.46586   0.10545   0.00000  Uiso   1.00
H219   H     0.38587   0.62851   0.31468   0.00000  Uiso   1.00
H220   H     0.17989   0.45229   0.63906   0.00000  Uiso   1.00
H221   H     0.25170   0.41081   0.92060   0.00000  Uiso   1.00
O222   O     0.46785   0.62797   0.36550   0.00000  Uiso   1.00
O223   O     0.19761   0.39677   0.79106   0.00000  Uiso   1.00
O224   O     0.29182   0.34235   0.84846   0.00000  Uiso   1.00
N225   N     0.45019   0.55612   0.38012   0.00000  Uiso   1.00
N226   N     0.25762   0.39138   0.68340   0.00000  Uiso   1.00
N227   N     0.32474   0.35259   0.01171   0.00000  Uiso   1.00
N228   N     0.40002   0.60079   0.33326   0.00000  Uiso   1.00
N229   N     0.20745   0.43605   0.63654   0.00000  Uiso   1.00
N230   N     0.27457   0.39725   0.96486   0.00000  Uiso   1.00
C231   C     0.84861   0.92944   0.86249   0.00000  Uiso   1.00
C232   C     0.86435   0.97527   0.85588   0.00000  Uiso   1.00
C233   C     0.90552   0.98892   0.87644   0.00000  Uiso   1.00
C234   C     0.91353   0.03217   0.86600   0.00000  Uiso   1.00
C235   C     0.94283   0.09899   0.86034   0.00000  Uiso   1.00
C236   C     0.81128   0.92987   0.93948   0.00000  Uiso   1.00
C237   C     0.80783   0.90535   0.03032   0.00000  Uiso   1.00
C238   C     0.77115   0.91037   0.09024   0.00000  Uiso   1.00
C239   C     0.71805   0.90669   0.21433   0.00000  Uiso   1.00
C240   C     0.82978   0.91918   0.75436   0.00000  Uiso   1.00
C241   C     0.84188   0.88567   0.68956   0.00000  Uiso   1.00
C242   C     0.82078   0.88169   0.59363   0.00000  Uiso   1.00
C243   C     0.79641   0.86141   0.43029   0.00000  Uiso   1.00
C244   C     0.78962   0.98197   0.80739   0.00000  Uiso   1.00
C245   C     0.83230   0.00380   0.82595   0.00000  Uiso   1.00
C246   C     0.84025   0.04703   0.81547   0.00000  Uiso   1.00
C247   C     0.88143   0.06075   0.83601   0.00000  Uiso   1.00
C248   C     0.77923   0.95840   0.90956   0.00000  Uiso   1.00
C249   C     0.74255   0.96346   0.96935   0.00000  Uiso   1.00
C250   C     0.73905   0.93895   0.06026   0.00000  Uiso   1.00
C251   C     0.79774   0.94771   0.72443   0.00000  Uiso   1.00
C252   C     0.77661   0.94378   0.62859   0.00000  Uiso   1.00
C253   C     0.78868   0.91027   0.56365   0.00000  Uiso   1.00
H254   H     0.87356   0.90723   0.88580   0.00000  Uiso   1.00
H255   H     0.93031   0.96684   0.89961   0.00000  Uiso   1.00
H256   H     0.83263   0.88327   0.05345   0.00000  Uiso   1.00
H257   H     0.86668   0.86360   0.71274   0.00000  Uiso   1.00
H258   H     0.97910   0.04550   0.90176   0.00000  Uiso   1.00
H259   H     0.77312   0.86929   0.22613   0.00000  Uiso   1.00
H260   H     0.84493   0.82780   0.50768   0.00000  Uiso   1.00
H261   H     0.76467   0.00418   0.78409   0.00000  Uiso   1.00
H262   H     0.81544   0.06910   0.79231   0.00000  Uiso   1.00
H263   H     0.71776   0.98554   0.94617   0.00000  Uiso   1.00
H264   H     0.75181   0.96586   0.60545   0.00000  Uiso   1.00
H265   H     0.88587   0.12851   0.81468   0.00000  Uiso   1.00
H266   H     0.67989   0.95229   0.13906   0.00000  Uiso   1.00
H267   H     0.75170   0.91081   0.42060   0.00000  Uiso   1.00
O268   O     0.96785   0.12797   0.86550   0.00000  Uiso   1.00
O269   O     0.69761   0.89677   0.29106   0.00000  Uiso   1.00
O270   O     0.79182   0.84235   0.34846   0.00000  Uiso   1.00
N271   N     0.95019   0.05612   0.88012   0.00000  Uiso   1.00
N272   N     0.75762   0.89138   0.18340   0.00000  Uiso   1.00
N273   N     0.82474   0.85259   0.51171   0.00000  Uiso   1.00
N274   N     0.90002   0.10079   0.83326   0.00000  Uiso   1.00
N275   N     0.70745   0.93605   0.13654   0.00000  Uiso   1.00
N276   N     0.77457   0.89725   0.46486   0.00000  Uiso   1.00
C277   C     0.15139   0.07056   0.86249   0.00000  Uiso   1.00
C278   C     0.13565   0.02473   0.85588   0.00000  Uiso   1.00
C279   C     0.09448   0.01108   0.87644   0.00000  Uiso   1.00
C280   C     0.08647   0.96783   0.86600   0.00000  Uiso   1.00
C281   C     0.05717   0.90101   0.86034   0.00000  Uiso   1.00
C282   C     0.18872   0.07013   0.93948   0.00000  Uiso   1.00
C283   C     0.19217   0.09465   0.03032   0.00000  Uiso   1.00
C284   C     0.22885   0.08963   0.09024   0.00000  Uiso   1.00
C285   C     0.28195   0.09331   0.21433   0.00000  Uiso   1.00
C286   C     0.17022   0.08082   0.75436   0.00000  Uiso   1.00
C287   C     0.15812   0.11433   0.68956   0.00000  Uiso   1.00
C288   C     0.17922   0.11831   0.59363   0.00000  Uiso   1.00
C289   C     0.20359   0.13859   0.43029   0.00000  Uiso   1.00
C290   C     0.21038   0.01803   0.80739   0.00000  Uiso   1.00
C291   C     0.16770   0.99620   0.82595   0.00000  Uiso   1.00
C292   C     0.15975   0.95297   0.81547   0.00000  Uiso   1.00
C293   C     0.11857   0.93925   0.83601   0.00000  Uiso   1.00
C294   C     0.22077   0.04160   0.90956   0.00000  Uiso   1.00
C295   C     0.25745   0.03654   0.96935   0.00000  Uiso   1.00
C296   C     0.26095   0.06105   0.06026   0.00000  Uiso   1.00
C297   C     0.20226   0.05229   0.72443   0.00000  Uiso   1.00
C298   C     0.22339   0.05622   0.62859   0.00000  Uiso   1.00
C299   C     0.21132   0.08973   0.56365   0.00000  Uiso   1.00
H300   H     0.12644   0.09277   0.88580   0.00000  Uiso   1.00
H301   H     0.06969   0.03316   0.89961   0.00000  Uiso   1.00
H302   H     0.16737   0.11673   0.05345   0.00000  Uiso   1.00
H303   H     0.13332   0.13640   0.71274   0.00000  Uiso   1.00
H304   H     0.02090   0.95450   0.90176   0.00000  Uiso   1.00
H305   H     0.22688   0.13071   0.22613   0.00000  Uiso   1.00
H306   H     0.15507   0.17220   0.50768   0.00000  Uiso   1.00
H307   H     0.23533   0.99582   0.78409   0.00000  Uiso   1.00
H308   H     0.18456   0.93090   0.79231   0.00000  Uiso   1.00
H309   H     0.28224   0.01446   0.94617   0.00000  Uiso   1.00
H310   H     0.24819   0.03414   0.60545   0.00000  Uiso   1.00
H311   H     0.11413   0.87149   0.81468   0.00000  Uiso   1.00
H312   H     0.32011   0.04771   0.13906   0.00000  Uiso   1.00
H313   H     0.24830   0.08919   0.42060   0.00000  Uiso   1.00
O314   O     0.03215   0.87203   0.86550   0.00000  Uiso   1.00
O315   O     0.30239   0.10323   0.29106   0.00000  Uiso   1.00
O316   O     0.20818   0.15765   0.34846   0.00000  Uiso   1.00
N317   N     0.04981   0.94388   0.88012   0.00000  Uiso   1.00
N318   N     0.24238   0.10862   0.18340   0.00000  Uiso   1.00
N319   N     0.17526   0.14741   0.51171   0.00000  Uiso   1.00
N320   N     0.09998   0.89921   0.83326   0.00000  Uiso   1.00
N321   N     0.29255   0.06395   0.13654   0.00000  Uiso   1.00
N322   N     0.22543   0.10275   0.46486   0.00000  Uiso   1.00
C323   C     0.65139   0.57056   0.36249   0.00000  Uiso   1.00
C324   C     0.63565   0.52473   0.35588   0.00000  Uiso   1.00
C325   C     0.59448   0.51108   0.37644   0.00000  Uiso   1.00
C326   C     0.58647   0.46783   0.36600   0.00000  Uiso   1.00
C327   C     0.55717   0.40101   0.36034   0.00000  Uiso   1.00
C328   C     0.68872   0.57013   0.43948   0.00000  Uiso   1.00
C329   C     0.69217   0.59465   0.53032   0.00000  Uiso   1.00
C330   C     0.72885   0.58963   0.59024   0.00000  Uiso   1.00
C331   C     0.78195   0.59331   0.71433   0.00000  Uiso   1.00
C332   C     0.67022   0.58082   0.25436   0.00000  Uiso   1.00
C333   C     0.65812   0.61433   0.18956   0.00000  Uiso   1.00
C334   C     0.67922   0.61831   0.09363   0.00000  Uiso   1.00
C335   C     0.70359   0.63859   0.93029   0.00000  Uiso   1.00
C336   C     0.71038   0.51803   0.30739   0.00000  Uiso   1.00
C337   C     0.66770   0.49620   0.32595   0.00000  Uiso   1.00
C338   C     0.65975   0.45297   0.31547   0.00000  Uiso   1.00
C339   C     0.61857   0.43925   0.33601   0.00000  Uiso   1.00
C340   C     0.72077   0.54160   0.40956   0.00000  Uiso   1.00
C341   C     0.75745   0.53654   0.46935   0.00000  Uiso   1.00
C342   C     0.76095   0.56105   0.56026   0.00000  Uiso   1.00
C343   C     0.70226   0.55229   0.22443   0.00000  Uiso   1.00
C344   C     0.72339   0.55622   0.12859   0.00000  Uiso   1.00
C345   C     0.71132   0.58973   0.06365   0.00000  Uiso   1.00
H346   H     0.62644   0.59277   0.38580   0.00000  Uiso   1.00
H347   H     0.56969   0.53316   0.39961   0.00000  Uiso   1.00
H348   H     0.66737   0.61673   0.55345   0.00000  Uiso   1.00
H349   H     0.63332   0.63640   0.21274   0.00000  Uiso   1.00
H350   H     0.52090   0.45450   0.40176   0.00000  Uiso   1.00
H351   H     0.72688   0.63071   0.72613   0.00000  Uiso   1.00
H352   H     0.65507   0.67220   0.00768   0.00000  Uiso   1.00
H353   H     0.73533   0.49582   0.28409   0.00000  Uiso   1.00
H354   H     0.68456   0.43090   0.29231   0.00000  Uiso   1.00
H355   H     0.78224   0.51446   0.44617   0.00000  Uiso   1.00
H356   H     0.74819   0.53414   0.10545   0.00000  Uiso   1.00
H357   H     0.61413   0.37149   0.31468   0.00000  Uiso   1.00
H358   H     0.82011   0.54771   0.63906   0.00000  Uiso   1.00
H359   H     0.74830   0.58919   0.92060   0.00000  Uiso   1.00
O360   O     0.53215   0.37203   0.36550   0.00000  Uiso   1.00
O361   O     0.80239   0.60323   0.79106   0.00000  Uiso   1.00
O362   O     0.70818   0.65765   0.84846   0.00000  Uiso   1.00
N363   N     0.54981   0.44388   0.38012   0.00000  Uiso   1.00
N364   N     0.74238   0.60862   0.68340   0.00000  Uiso   1.00
N365   N     0.67526   0.64741   0.01171   0.00000  Uiso   1.00
N366   N     0.59998   0.39921   0.33326   0.00000  Uiso   1.00
N367   N     0.79255   0.56395   0.63654   0.00000  Uiso   1.00
N368   N     0.72543   0.60275   0.96486   0.00000  Uiso   1.00
C369   C     0.92944   0.34861   0.61249   0.00000  Uiso   1.00
C370   C     0.97527   0.36435   0.60588   0.00000  Uiso   1.00
C371   C     0.98892   0.40552   0.62644   0.00000  Uiso   1.00
C372   C     0.03217   0.41353   0.61600   0.00000  Uiso   1.00
C373   C     0.09899   0.44283   0.61034   0.00000  Uiso   1.00
C374   C     0.92987   0.31128   0.68948   0.00000  Uiso   1.00
C375   C     0.90535   0.30783   0.78032   0.00000  Uiso   1.00
C376   C     0.91037   0.27115   0.84024   0.00000  Uiso   1.00
C377   C     0.90669   0.21805   0.96433   0.00000  Uiso   1.00
C378   C     0.91918   0.32978   0.50436   0.00000  Uiso   1.00
C379   C     0.88567   0.34188   0.43956   0.00000  Uiso   1.00
C380   C     0.88169   0.32078   0.34363   0.00000  Uiso   1.00
C381   C     0.86141   0.29641   0.18029   0.00000  Uiso   1.00
C382   C     0.98197   0.28962   0.55739   0.00000  Uiso   1.00
C383   C     0.00380   0.33230   0.57595   0.00000  Uiso   1.00
C384   C     0.04703   0.34025   0.56547   0.00000  Uiso   1.00
C385   C     0.06075   0.38143   0.58601   0.00000  Uiso   1.00
C386   C     0.95840   0.27923   0.65956   0.00000  Uiso   1.00
C387   C     0.96346   0.24255   0.71935   0.00000  Uiso   1.00
C388   C     0.93895   0.23905   0.81026   0.00000  Uiso   1.00
C389   C     0.94771   0.29774   0.47443   0.00000  Uiso   1.00
C390   C     0.94378   0.27661   0.37859   0.00000  Uiso   1.00
C391   C     0.91027   0.28868   0.31365   0.00000  Uiso   1.00
H392   H     0.90723   0.37356   0.63580   0.00000  Uiso   1.00
H393   H     0.96684   0.43031   0.64961   0.00000  Uiso   1.00
H394   H     0.88327   0.33263   0.80345   0.00000  Uiso   1.00
H395   H     0.86360   0.36668   0.46274   0.00000  Uiso   1.00
H396   H     0.04550   0.47910   0.65176   0.00000  Uiso   1.00
H397   H     0.86929   0.27312   0.97613   0.00000  Uiso   1.00
H398   H     0.82780   0.34493   0.25768   0.00000  Uiso   1.00
H399   H     0.00418   0.26467   0.53409   0.00000  Uiso   1.00
H400   H     0.06910   0.31544   0.54231   0.00000  Uiso   1.00
H401   H     0.98554   0.21776   0.69617   0.00000  Uiso   1.00
H402   H     0.96586   0.25181   0.35545   0.00000  Uiso   1.00
H403   H     0.12851   0.38587   0.56468   0.00000  Uiso   1.00
H404   H     0.95229   0.17989   0.88906   0.00000  Uiso   1.00
H405   H     0.91081   0.25170   0.17060   0.00000  Uiso   1.00
O406   O     0.12797   0.46785   0.61550   0.00000  Uiso   1.00
O407   O     0.89677   0.19761   0.04106   0.00000  Uiso   1.00
O408   O     0.84235   0.29182   0.09846   0.00000  Uiso   1.00
N409   N     0.05612   0.45019   0.63012   0.00000  Uiso   1.00
N410   N     0.89138   0.25762   0.93340   0.00000  Uiso   1.00
N411   N     0.85259   0.32474   0.26171   0.00000  Uiso   1.00
N412   N     0.10079   0.40002   0.58326   0.00000  Uiso   1.00
N413   N     0.93605   0.20745   0.88654   0.00000  Uiso   1.00
N414   N     0.89725   0.27457   0.21486   0.00000  Uiso   1.00
C415   C     0.42944   0.84861   0.11249   0.00000  Uiso   1.00
C416   C     0.47527   0.86435   0.10588   0.00000  Uiso   1.00
C417   C     0.48892   0.90552   0.12644   0.00000  Uiso   1.00
C418   C     0.53217   0.91353   0.11600   0.00000  Uiso   1.00
C419   C     0.59899   0.94283   0.11034   0.00000  Uiso   1.00
C420   C     0.42987   0.81128   0.18948   0.00000  Uiso   1.00
C421   C     0.40535   0.80783   0.28032   0.00000  Uiso   1.00
C422   C     0.41037   0.77115   0.34024   0.00000  Uiso   1.00
C423   C     0.40669   0.71805   0.46433   0.00000  Uiso   1.00
C424   C     0.41918   0.82978   0.00436   0.00000  Uiso   1.00
C425   C     0.38567   0.84188   0.93956   0.00000  Uiso   1.00
C426   C     0.38169   0.82078   0.84363   0.00000  Uiso   1.00
C427   C     0.36141   0.79641   0.68029   0.00000  Uiso   1.00
C428   C     0.48197   0.78962   0.05739   0.00000  Uiso   1.00
C429   C     0.50380   0.83230   0.07595   0.00000  Uiso   1.00
C430   C     0.54703   0.84025   0.06547   0.00000  Uiso   1.00
C431   C     0.56075   0.88143   0.08601   0.00000  Uiso   1.00
C432   C     0.45840   0.77923   0.15956   0.00000  Uiso   1.00
C433   C     0.46346   0.74255   0.21935   0.00000  Uiso   1.00
C434   C     0.43895   0.73905   0.31026   0.00000  Uiso   1.00
C435   C     0.44771   0.79774   0.97443   0.00000  Uiso   1.00
C436   C     0.44378   0.77661   0.87859   0.00000  Uiso   1.00
C437   C     0.41027   0.78868   0.81365   0.00000  Uiso   1.00
H438   H     0.40723   0.87356   0.13580   0.00000  Uiso   1.00
H439   H     0.46684   0.93031   0.14961   0.00000  Uiso   1.00
H440   H     0.38327   0.83263   0.30345   0.00000  Uiso   1.00
H441   H     0.36360   0.86668   0.96274   0.00000  Uiso   1.00
H442   H     0.54550   0.97910   0.15176   0.00000  Uiso   1.00
H443   H     0.36929   0.77312   0.47613   0.00000  Uiso   1.00
H444   H     0.32780   0.84493   0.75768   0.00000  Uiso   1.00
H445   H     0.50418   0.76467   0.03409   0.00000  Uiso   1.00
H446   H     0.56910   0.81544   0.04231   0.00000  Uiso   1.00
H447   H     0.48554   0.71776   0.19617   0.00000  Uiso   1.00
H448   H     0.46586   0.75181   0.85545   0.00000  Uiso   1.00
H449   H     0.62851   0.88587   0.06468   0.00000  Uiso   1.00
H450   H     0.45229   0.67989   0.38906   0.00000  Uiso   1.00
H451   H     0.41081   0.75170   0.67060   0.00000  Uiso   1.00
O452   O     0.62797   0.96785   0.11550   0.00000  Uiso   1.00
O453   O     0.39677   0.69761   0.54106   0.00000  Uiso   1.00
O454   O     0.34235   0.79182   0.59846   0.00000  Uiso   1.00
N455   N     0.55612   0.95019   0.13012   0.00000  Uiso   1.00
N456   N     0.39138   0.75762   0.43340   0.00000  Uiso   1.00
N457   N     0.35259   0.82474   0.76171   0.00000  Uiso   1.00
N458   N     0.60079   0.90002   0.08326   0.00000  Uiso   1.00
N459   N     0.43605   0.70745   0.38654   0.00000  Uiso   1.00
N460   N     0.39725   0.77457   0.71486   0.00000  Uiso   1.00
C461   C     0.57056   0.15139   0.11249   0.00000  Uiso   1.00
C462   C     0.52473   0.13565   0.10588   0.00000  Uiso   1.00
C463   C     0.51108   0.09448   0.12644   0.00000  Uiso   1.00
C464   C     0.46783   0.08647   0.11600   0.00000  Uiso   1.00
C465   C     0.40101   0.05717   0.11034   0.00000  Uiso   1.00
C466   C     0.57013   0.18872   0.18948   0.00000  Uiso   1.00
C467   C     0.59465   0.19217   0.28032   0.00000  Uiso   1.00
C468   C     0.58963   0.22885   0.34024   0.00000  Uiso   1.00
C469   C     0.59331   0.28195   0.46433   0.00000  Uiso   1.00
C470   C     0.58082   0.17022   0.00436   0.00000  Uiso   1.00
C471   C     0.61433   0.15812   0.93956   0.00000  Uiso   1.00
C472   C     0.61831   0.17922   0.84363   0.00000  Uiso   1.00
C473   C     0.63859   0.20359   0.68029   0.00000  Uiso   1.00
C474   C     0.51803   0.21038   0.05739   0.00000  Uiso   1.00
C475   C     0.49620   0.16770   0.07595   0.00000  Uiso   1.00
C476   C     0.45297   0.15975   0.06547   0.00000  Uiso   1.00
C477   C     0.43925   0.11857   0.08601   0.00000  Uiso   1.00
C478   C     0.54160   0.22077   0.15956   0.00000  Uiso   1.00
C479   C     0.53654   0.25745   0.21935   0.00000  Uiso   1.00
C480   C     0.56105   0.26095   0.31026   0.00000  Uiso   1.00
C481   C     0.55229   0.20226   0.97443   0.00000  Uiso   1.00
C482   C     0.55622   0.22339   0.87859   0.00000  Uiso   1.00
C483   C     0.58973   0.21132   0.81365   0.00000  Uiso   1.00
H484   H     0.59277   0.12644   0.13580   0.00000  Uiso   1.00
H485   H     0.53316   0.06969   0.14961   0.00000  Uiso   1.00
H486   H     0.61673   0.16737   0.30345   0.00000  Uiso   1.00
H487   H     0.63640   0.13332   0.96274   0.00000  Uiso   1.00
H488   H     0.45450   0.02090   0.15176   0.00000  Uiso   1.00
H489   H     0.63071   0.22688   0.47613   0.00000  Uiso   1.00
H490   H     0.67220   0.15507   0.75768   0.00000  Uiso   1.00
H491   H     0.49582   0.23533   0.03409   0.00000  Uiso   1.00
H492   H     0.43090   0.18456   0.04231   0.00000  Uiso   1.00
H493   H     0.51446   0.28224   0.19617   0.00000  Uiso   1.00
H494   H     0.53414   0.24819   0.85545   0.00000  Uiso   1.00
H495   H     0.37149   0.11413   0.06468   0.00000  Uiso   1.00
H496   H     0.54771   0.32011   0.38906   0.00000  Uiso   1.00
H497   H     0.58919   0.24830   0.67060   0.00000  Uiso   1.00
O498   O     0.37203   0.03215   0.11550   0.00000  Uiso   1.00
O499   O     0.60323   0.30239   0.54106   0.00000  Uiso   1.00
O500   O     0.65765   0.20818   0.59846   0.00000  Uiso   1.00
N501   N     0.44388   0.04981   0.13012   0.00000  Uiso   1.00
N502   N     0.60862   0.24238   0.43340   0.00000  Uiso   1.00
N503   N     0.64741   0.17526   0.76171   0.00000  Uiso   1.00
N504   N     0.39921   0.09998   0.08326   0.00000  Uiso   1.00
N505   N     0.56395   0.29255   0.38654   0.00000  Uiso   1.00
N506   N     0.60275   0.22543   0.71486   0.00000  Uiso   1.00
C507   C     0.07056   0.65139   0.61249   0.00000  Uiso   1.00
C508   C     0.02473   0.63565   0.60588   0.00000  Uiso   1.00
C509   C     0.01108   0.59448   0.62644   0.00000  Uiso   1.00
C510   C     0.96783   0.58647   0.61600   0.00000  Uiso   1.00
C511   C     0.90101   0.55717   0.61034   0.00000  Uiso   1.00
C512   C     0.07013   0.68872   0.68948   0.00000  Uiso   1.00
C513   C     0.09465   0.69217   0.78032   0.00000  Uiso   1.00
C514   C     0.08963   0.72885   0.84024   0.00000  Uiso   1.00
C515   C     0.09331   0.78195   0.96433   0.00000  Uiso   1.00
C516   C     0.08082   0.67022   0.50436   0.00000  Uiso   1.00
C517   C     0.11433   0.65812   0.43956   0.00000  Uiso   1.00
C518   C     0.11831   0.67922   0.34363   0.00000  Uiso   1.00
C519   C     0.13859   0.70359   0.18029   0.00000  Uiso   1.00
C520   C     0.01803   0.71038   0.55739   0.00000  Uiso   1.00
C521   C     0.99620   0.66770   0.57595   0.00000  Uiso   1.00
C522   C     0.95297   0.65975   0.56547   0.00000  Uiso   1.00
C523   C     0.93925   0.61857   0.58601   0.00000  Uiso   1.00
C524   C     0.04160   0.72077   0.65956   0.00000  Uiso   1.00
C525   C     0.03654   0.75745   0.71935   0.00000  Uiso   1.00
C526   C     0.06105   0.76095   0.81026   0.00000  Uiso   1.00
C527   C     0.05229   0.70226   0.47443   0.00000  Uiso   1.00
C528   C     0.05622   0.72339   0.37859   0.00000  Uiso   1.00
C529   C     0.08973   0.71132   0.31365   0.00000  Uiso   1.00
H530   H     0.09277   0.62644   0.63580   0.00000  Uiso   1.00
H531   H     0.03316   0.56969   0.64961   0.00000  Uiso   1.00
H532   H     0.11673   0.66737   0.80345   0.00000  Uiso   1.00
H533   H     0.13640   0.63332   0.46274   0.00000  Uiso   1.00
H534   H     0.95450   0.52090   0.65176   0.00000  Uiso   1.00
H535   H     0.13071   0.72688   0.97613   0.00000  Uiso   1.00
H536   H     0.17220   0.65507   0.25768   0.00000  Uiso   1.00
H537   H     0.99582   0.73533   0.53409   0.00000  Uiso   1.00
H538   H     0.93090   0.68456   0.54231   0.00000  Uiso   1.00
H539   H     0.01446   0.78224   0.69617   0.00000  Uiso   1.00
H540   H     0.03414   0.74819   0.35545   0.00000  Uiso   1.00
H541   H     0.87149   0.61413   0.56468   0.00000  Uiso   1.00
H542   H     0.04771   0.82011   0.88906   0.00000  Uiso   1.00
H543   H     0.08919   0.74830   0.17060   0.00000  Uiso   1.00
O544   O     0.87203   0.53215   0.61550   0.00000  Uiso   1.00
O545   O     0.10323   0.80239   0.04106   0.00000  Uiso   1.00
O546   O     0.15765   0.70818   0.09846   0.00000  Uiso   1.00
N547   N     0.94388   0.54981   0.63012   0.00000  Uiso   1.00
N548   N     0.10862   0.74238   0.93340   0.00000  Uiso   1.00
N549   N     0.14741   0.67526   0.26171   0.00000  Uiso   1.00
N550   N     0.89921   0.59998   0.58326   0.00000  Uiso   1.00
N551   N     0.06395   0.79255   0.88654   0.00000  Uiso   1.00
N552   N     0.10275   0.72543   0.21486   0.00000  Uiso   1.00
C553   C     0.34861   0.57056   0.86249   0.00000  Uiso   1.00
C554   C     0.36435   0.52473   0.85588   0.00000  Uiso   1.00
C555   C     0.40552   0.51108   0.87644   0.00000  Uiso   1.00
C556   C     0.41353   0.46783   0.86600   0.00000  Uiso   1.00
C557   C     0.44283   0.40101   0.86034   0.00000  Uiso   1.00
C558   C     0.31128   0.57013   0.93948   0.00000  Uiso   1.00
C559   C     0.30783   0.59465   0.03032   0.00000  Uiso   1.00
C560   C     0.27115   0.58963   0.09024   0.00000  Uiso   1.00
C561   C     0.21805   0.59331   0.21433   0.00000  Uiso   1.00
C562   C     0.32978   0.58082   0.75436   0.00000  Uiso   1.00
C563   C     0.34188   0.61433   0.68956   0.00000  Uiso   1.00
C564   C     0.32078   0.61831   0.59363   0.00000  Uiso   1.00
C565   C     0.29641   0.63859   0.43029   0.00000  Uiso   1.00
C566   C     0.28962   0.51803   0.80739   0.00000  Uiso   1.00
C567   C     0.33230   0.49620   0.82595   0.00000  Uiso   1.00
C568   C     0.34025   0.45297   0.81547   0.00000  Uiso   1.00
C569   C     0.38143   0.43925   0.83601   0.00000  Uiso   1.00
C570   C     0.27923   0.54160   0.90956   0.00000  Uiso   1.00
C571   C     0.24255   0.53654   0.96935   0.00000  Uiso   1.00
C572   C     0.23905   0.56105   0.06026   0.00000  Uiso   1.00
C573   C     0.29774   0.55229   0.72443   0.00000  Uiso   1.00
C574   C     0.27661   0.55622   0.62859   0.00000  Uiso   1.00
C575   C     0.28868   0.58973   0.56365   0.00000  Uiso   1.00
H576   H     0.37356   0.59277   0.88580   0.00000  Uiso   1.00
H577   H     0.43031   0.53316   0.89961   0.00000  Uiso   1.00
H578   H     0.33263   0.61673   0.05345   0.00000  Uiso   1.00
H579   H     0.36668   0.63640   0.71274   0.00000  Uiso   1.00
H580   H     0.47910   0.45450   0.90176   0.00000  Uiso   1.00
H581   H     0.27312   0.63071   0.22613   0.00000  Uiso   1.00
H582   H     0.34493   0.67220   0.50768   0.00000  Uiso   1.00
H583   H     0.26467   0.49582   0.78409   0.00000  Uiso   1.00
H584   H     0.31544   0.43090   0.79231   0.00000  Uiso   1.00
H585   H     0.21776   0.51446   0.94617   0.00000  Uiso   1.00
H586   H     0.25181   0.53414   0.60545   0.00000  Uiso   1.00
H587   H     0.38587   0.37149   0.81468   0.00000  Uiso   1.00
H588   H     0.17989   0.54771   0.13906   0.00000  Uiso   1.00
H589   H     0.25170   0.58919   0.42060   0.00000  Uiso   1.00
O590   O     0.46785   0.37203   0.86550   0.00000  Uiso   1.00
O591   O     0.19761   0.60323   0.29106   0.00000  Uiso   1.00
O592   O     0.29182   0.65765   0.34846   0.00000  Uiso   1.00
N593   N     0.45019   0.44388   0.88012   0.00000  Uiso   1.00
N594   N     0.25762   0.60862   0.18340   0.00000  Uiso   1.00
N595   N     0.32474   0.64741   0.51171   0.00000  Uiso   1.00
N596   N     0.40002   0.39921   0.83326   0.00000  Uiso   1.00
N597   N     0.20745   0.56395   0.13654   0.00000  Uiso   1.00
N598   N     0.27457   0.60275   0.46486   0.00000  Uiso   1.00
C599   C     0.84861   0.07056   0.36249   0.00000  Uiso   1.00
C600   C     0.86435   0.02473   0.35588   0.00000  Uiso   1.00
C601   C     0.90552   0.01108   0.37644   0.00000  Uiso   1.00
C602   C     0.91353   0.96783   0.36600   0.00000  Uiso   1.00
C603   C     0.94283   0.90101   0.36034   0.00000  Uiso   1.00
C604   C     0.81128   0.07013   0.43948   0.00000  Uiso   1.00
C605   C     0.80783   0.09465   0.53032   0.00000  Uiso   1.00
C606   C     0.77115   0.08963   0.59024   0.00000  Uiso   1.00
C607   C     0.71805   0.09331   0.71433   0.00000  Uiso   1.00
C608   C     0.82978   0.08082   0.25436   0.00000  Uiso   1.00
C609   C     0.84188   0.11433   0.18956   0.00000  Uiso   1.00
C610   C     0.82078   0.11831   0.09363   0.00000  Uiso   1.00
C611   C     0.79641   0.13859   0.93029   0.00000  Uiso   1.00
C612   C     0.78962   0.01803   0.30739   0.00000  Uiso   1.00
C613   C     0.83230   0.99620   0.32595   0.00000  Uiso   1.00
C614   C     0.84025   0.95297   0.31547   0.00000  Uiso   1.00
C615   C     0.88143   0.93925   0.33601   0.00000  Uiso   1.00
C616   C     0.77923   0.04160   0.40956   0.00000  Uiso   1.00
C617   C     0.74255   0.03654   0.46935   0.00000  Uiso   1.00
C618   C     0.73905   0.06105   0.56026   0.00000  Uiso   1.00
C619   C     0.79774   0.05229   0.22443   0.00000  Uiso   1.00
C620   C     0.77661   0.05622   0.12859   0.00000  Uiso   1.00
C621   C     0.78868   0.08973   0.06365   0.00000  Uiso   1.00
H622   H     0.87356   0.09277   0.38580   0.00000  Uiso   1.00
H623   H     0.93031   0.03316   0.39961   0.00000  Uiso   1.00
H624   H     0.83263   0.11673   0.55345   0.00000  Uiso   1.00
H625   H     0.86668   0.13640   0.21274   0.00000  Uiso   1.00
H626   H     0.97910   0.95450   0.40176   0.00000  Uiso   1.00
H627   H     0.77312   0.13071   0.72613   0.00000  Uiso   1.00
H628   H     0.84493   0.17220   0.00768   0.00000  Uiso   1.00
H629   H     0.76467   0.99582   0.28409   0.00000  Uiso   1.00
H630   H     0.81544   0.93090   0.29231   0.00000  Uiso   1.00
H631   H     0.71776   0.01446   0.44617   0.00000  Uiso   1.00
H632   H     0.75181   0.03414   0.10545   0.00000  Uiso   1.00
H633   H     0.88587   0.87149   0.31468   0.00000  Uiso   1.00
H634   H     0.67989   0.04771   0.63906   0.00000  Uiso   1.00
H635   H     0.75170   0.08919   0.92060   0.00000  Uiso   1.00
O636   O     0.96785   0.87203   0.36550   0.00000  Uiso   1.00
O637   O     0.69761   0.10323   0.79106   0.00000  Uiso   1.00
O638   O     0.79182   0.15765   0.84846   0.00000  Uiso   1.00
N639   N     0.95019   0.94388   0.38012   0.00000  Uiso   1.00
N640   N     0.75762   0.10862   0.68340   0.00000  Uiso   1.00
N641   N     0.82474   0.14741   0.01171   0.00000  Uiso   1.00
N642   N     0.90002   0.89921   0.33326   0.00000  Uiso   1.00
N643   N     0.70745   0.06395   0.63654   0.00000  Uiso   1.00
N644   N     0.77457   0.10275   0.96486   0.00000  Uiso   1.00
C645   C     0.15139   0.92944   0.36249   0.00000  Uiso   1.00
C646   C     0.13565   0.97527   0.35588   0.00000  Uiso   1.00
C647   C     0.09448   0.98892   0.37644   0.00000  Uiso   1.00
C648   C     0.08647   0.03217   0.36600   0.00000  Uiso   1.00
C649   C     0.05717   0.09899   0.36034   0.00000  Uiso   1.00
C650   C     0.18872   0.92987   0.43948   0.00000  Uiso   1.00
C651   C     0.19217   0.90535   0.53032   0.00000  Uiso   1.00
C652   C     0.22885   0.91037   0.59024   0.00000  Uiso   1.00
C653   C     0.28195   0.90669   0.71433   0.00000  Uiso   1.00
C654   C     0.17022   0.91918   0.25436   0.00000  Uiso   1.00
C655   C     0.15812   0.88567   0.18956   0.00000  Uiso   1.00
C656   C     0.17922   0.88169   0.09363   0.00000  Uiso   1.00
C657   C     0.20359   0.86141   0.93029   0.00000  Uiso   1.00
C658   C     0.21038   0.98197   0.30739   0.00000  Uiso   1.00
C659   C     0.16770   0.00380   0.32595   0.00000  Uiso   1.00
C660   C     0.15975   0.04703   0.31547   0.00000  Uiso   1.00
C661   C     0.11857   0.06075   0.33601   0.00000  Uiso   1.00
C662   C     0.22077   0.95840   0.40956   0.00000  Uiso   1.00
C663   C     0.25745   0.96346   0.46935   0.00000  Uiso   1.00
C664   C     0.26095   0.93895   0.56026   0.00000  Uiso   1.00
C665   C     0.20226   0.94771   0.22443   0.00000  Uiso   1.00
C666   C     0.22339   0.94378   0.12859   0.00000  Uiso   1.00
C667   C     0.21132   0.91027   0.06365   0.00000  Uiso   1.00
H668   H     0.12644   0.90723   0.38580   0.00000  Uiso   1.00
H669   H     0.06969   0.96684   0.39961   0.00000  Uiso   1.00
H670   H     0.16737   0.88327   0.55345   0.00000  Uiso   1.00
H671   H     0.13332   0.86360   0.21274   0.00000  Uiso   1.00
H672   H     0.02090   0.04550   0.40176   0.00000  Uiso   1.00
H673   H     0.22688   0.86929   0.72613   0.00000  Uiso   1.00
H674   H     0.15507   0.82780   0.00768   0.00000  Uiso   1.00
H675   H     0.23533   0.00418   0.28409   0.00000  Uiso   1.00
H676   H     0.18456   0.06910   0.29231   0.00000  Uiso   1.00
H677   H     0.28224   0.98554   0.44617   0.00000  Uiso   1.00
H678   H     0.24819   0.96586   0.10545   0.00000  Uiso   1.00
H679   H     0.11413   0.12851   0.31468   0.00000  Uiso   1.00
H680   H     0.32011   0.95229   0.63906   0.00000  Uiso   1.00
H681   H     0.24830   0.91081   0.92060   0.00000  Uiso   1.00
O682   O     0.03215   0.12797   0.36550   0.00000  Uiso   1.00
O683   O     0.30239   0.89677   0.79106   0.00000  Uiso   1.00
O684   O     0.20818   0.84235   0.84846   0.00000  Uiso   1.00
N685   N     0.04981   0.05612   0.38012   0.00000  Uiso   1.00
N686   N     0.24238   0.89138   0.68340   0.00000  Uiso   1.00
N687   N     0.17526   0.85259   0.01171   0.00000  Uiso   1.00
N688   N     0.09998   0.10079   0.33326   0.00000  Uiso   1.00
N689   N     0.29255   0.93605   0.63654   0.00000  Uiso   1.00
N690   N     0.22543   0.89725   0.96486   0.00000  Uiso   1.00
C691   C     0.65139   0.42944   0.86249   0.00000  Uiso   1.00
C692   C     0.63565   0.47527   0.85588   0.00000  Uiso   1.00
C693   C     0.59448   0.48892   0.87644   0.00000  Uiso   1.00
C694   C     0.58647   0.53217   0.86600   0.00000  Uiso   1.00
C695   C     0.55717   0.59899   0.86034   0.00000  Uiso   1.00
C696   C     0.68872   0.42987   0.93948   0.00000  Uiso   1.00
C697   C     0.69217   0.40535   0.03032   0.00000  Uiso   1.00
C698   C     0.72885   0.41037   0.09024   0.00000  Uiso   1.00
C699   C     0.78195   0.40669   0.21433   0.00000  Uiso   1.00
C700   C     0.67022   0.41918   0.75436   0.00000  Uiso   1.00
C701   C     0.65812   0.38567   0.68956   0.00000  Uiso   1.00
C702   C     0.67922   0.38169   0.59363   0.00000  Uiso   1.00
C703   C     0.70359   0.36141   0.43029   0.00000  Uiso   1.00
C704   C     0.71038   0.48197   0.80739   0.00000  Uiso   1.00
C705   C     0.66770   0.50380   0.82595   0.00000  Uiso   1.00
C706   C     0.65975   0.54703   0.81547   0.00000  Uiso   1.00
C707   C     0.61857   0.56075   0.83601   0.00000  Uiso   1.00
C708   C     0.72077   0.45840   0.90956   0.00000  Uiso   1.00
C709   C     0.75745   0.46346   0.96935   0.00000  Uiso   1.00
C710   C     0.76095   0.43895   0.06026   0.00000  Uiso   1.00
C711   C     0.70226   0.44771   0.72443   0.00000  Uiso   1.00
C712   C     0.72339   0.44378   0.62859   0.00000  Uiso   1.00
C713   C     0.71132   0.41027   0.56365   0.00000  Uiso   1.00
H714   H     0.62644   0.40723   0.88580   0.00000  Uiso   1.00
H715   H     0.56969   0.46684   0.89961   0.00000  Uiso   1.00
H716   H     0.66737   0.38327   0.05345   0.00000  Uiso   1.00
H717   H     0.63332   0.36360   0.71274   0.00000  Uiso   1.00
H718   H     0.52090   0.54550   0.90176   0.00000  Uiso   1.00
H719   H     0.72688   0.36929   0.22613   0.00000  Uiso   1.00
H720   H     0.65507   0.32780   0.50768   0.00000  Uiso   1.00
H721   H     0.73533   0.50418   0.78409   0.00000  Uiso   1.00
H722   H     0.68456   0.56910   0.79231   0.00000  Uiso   1.00
H723   H     0.78224   0.48554   0.94617   0.00000  Uiso   1.00
H724   H     0.74819   0.46586   0.60545   0.00000  Uiso   1.00
H725   H     0.61413   0.62851   0.81468   0.00000  Uiso   1.00
H726   H     0.82011   0.45229   0.13906   0.00000  Uiso   1.00
H727   H     0.74830   0.41081   0.42060   0.00000  Uiso   1.00
O728   O     0.53215   0.62797   0.86550   0.00000  Uiso   1.00
O729   O     0.80239   0.39677   0.29106   0.00000  Uiso   1.00
O730   O     0.70818   0.34235   0.34846   0.00000  Uiso   1.00
N731   N     0.54981   0.55612   0.88012   0.00000  Uiso   1.00
N732   N     0.74238   0.39138   0.18340   0.00000  Uiso   1.00
N733   N     0.67526   0.35259   0.51171   0.00000  Uiso   1.00
N734   N     0.59998   0.60079   0.83326   0.00000  Uiso   1.00
N735   N     0.79255   0.43605   0.13654   0.00000  Uiso   1.00
N736   N     0.72543   0.39725   0.46486   0.00000  Uiso   1.00
