data_job_02861
_audit_creation_date              2018-12-19
_audit_creation_method            'Materials Studio'
_symmetry_space_group_name_H-M    'P1'
_symmetry_Int_Tables_number       1
_symmetry_cell_setting            triclinic
loop_
_symmetry_equiv_pos_as_xyz
  x,y,z
_cell_length_a                    38.9904
_cell_length_b                    38.9904
_cell_length_c                    7.7142
_cell_angle_alpha                 90.0000
_cell_angle_beta                  90.0000
_cell_angle_gamma                 90.0000
loop_
_atom_site_label
_atom_site_type_symbol
_atom_site_fract_x
_atom_site_fract_y
_atom_site_fract_z
_atom_site_U_iso_or_equiv
_atom_site_adp_type
_atom_site_occupancy
C1     C     0.87912   0.88942   0.36785   0.00000  Uiso   1.00
C2     C     0.85180   0.87156   0.47677   0.00000  Uiso   1.00
C3     C     0.81680   0.87172   0.44393   0.00000  Uiso   1.00
C4     C     0.79606   0.85385   0.55897   0.00000  Uiso   1.00
C5     C     0.75155   0.82877   0.70644   0.00000  Uiso   1.00
C6     C     0.89836   0.91313   0.49137   0.00000  Uiso   1.00
C7     C     0.90251   0.94825   0.47079   0.00000  Uiso   1.00
C8     C     0.92097   0.96536   0.59811   0.00000  Uiso   1.00
C9     C     0.94876   0.00482   0.76818   0.00000  Uiso   1.00
C10    C     0.90459   0.86162   0.31544   0.00000  Uiso   1.00
C11    C     0.91399   0.85342   0.14694   0.00000  Uiso   1.00
C12    C     0.93770   0.82717   0.12614   0.00000  Uiso   1.00
C13    C     0.97516   0.78665   0.02305   0.00000  Uiso   1.00
C14    C     0.90451   0.85738   0.63054   0.00000  Uiso   1.00
C15    C     0.86559   0.85415   0.61945   0.00000  Uiso   1.00
C16    C     0.84489   0.83627   0.73457   0.00000  Uiso   1.00
C17    C     0.80988   0.83641   0.70191   0.00000  Uiso   1.00
C18    C     0.91215   0.89573   0.63405   0.00000  Uiso   1.00
C19    C     0.93060   0.91279   0.76142   0.00000  Uiso   1.00
C20    C     0.93478   0.94792   0.74105   0.00000  Uiso   1.00
C21    C     0.91838   0.84421   0.45812   0.00000  Uiso   1.00
C22    C     0.94208   0.81797   0.43758   0.00000  Uiso   1.00
C23    C     0.95151   0.80974   0.26908   0.00000  Uiso   1.00
H24    H     0.86838   0.90297   0.25677   0.00000  Uiso   1.00
H25    H     0.80614   0.88520   0.33351   0.00000  Uiso   1.00
H26    H     0.89184   0.96171   0.36035   0.00000  Uiso   1.00
H27    H     0.90331   0.86690   0.03655   0.00000  Uiso   1.00
H28    H     0.74322   0.85783   0.48155   0.00000  Uiso   1.00
H29    H     0.92393   0.01915   0.53812   0.00000  Uiso   1.00
H30    H     0.94813   0.81923   0.85532   0.00000  Uiso   1.00
H31    H     0.91524   0.84382   0.74163   0.00000  Uiso   1.00
H32    H     0.85557   0.82280   0.84498   0.00000  Uiso   1.00
H33    H     0.94127   0.89931   0.87182   0.00000  Uiso   1.00
H34    H     0.95275   0.80450   0.54802   0.00000  Uiso   1.00
H35    H     0.78334   0.80719   0.89668   0.00000  Uiso   1.00
H36    H     0.96405   0.96851   0.95324   0.00000  Uiso   1.00
H37    H     0.98825   0.76858   0.27045   0.00000  Uiso   1.00
O38    O     0.72318   0.81976   0.74838   0.00000  Uiso   1.00
O39    O     0.96027   0.03140   0.82257   0.00000  Uiso   1.00
O40    O     0.99201   0.76911   0.92677   0.00000  Uiso   1.00
N41    N     0.76085   0.84879   0.56505   0.00000  Uiso   1.00
N42    N     0.92980   0.99961   0.61795   0.00000  Uiso   1.00
N43    N     0.95243   0.81271   0.97959   0.00000  Uiso   1.00
N44    N     0.78244   0.82154   0.78842   0.00000  Uiso   1.00
N45    N     0.95139   0.97236   0.84133   0.00000  Uiso   1.00
N46    N     0.97402   0.78546   0.20297   0.00000  Uiso   1.00
C47    C     0.37912   0.38942   0.86785   0.00000  Uiso   1.00
C48    C     0.35180   0.37156   0.97677   0.00000  Uiso   1.00
C49    C     0.31680   0.37172   0.94393   0.00000  Uiso   1.00
C50    C     0.29606   0.35385   0.05897   0.00000  Uiso   1.00
C51    C     0.25155   0.32877   0.20644   0.00000  Uiso   1.00
C52    C     0.39836   0.41313   0.99137   0.00000  Uiso   1.00
C53    C     0.40251   0.44825   0.97079   0.00000  Uiso   1.00
C54    C     0.42097   0.46536   0.09811   0.00000  Uiso   1.00
C55    C     0.44876   0.50482   0.26818   0.00000  Uiso   1.00
C56    C     0.40459   0.36162   0.81544   0.00000  Uiso   1.00
C57    C     0.41399   0.35342   0.64694   0.00000  Uiso   1.00
C58    C     0.43770   0.32717   0.62614   0.00000  Uiso   1.00
C59    C     0.47516   0.28665   0.52305   0.00000  Uiso   1.00
C60    C     0.40451   0.35738   0.13054   0.00000  Uiso   1.00
C61    C     0.36559   0.35415   0.11945   0.00000  Uiso   1.00
C62    C     0.34489   0.33627   0.23457   0.00000  Uiso   1.00
C63    C     0.30988   0.33641   0.20191   0.00000  Uiso   1.00
C64    C     0.41215   0.39573   0.13405   0.00000  Uiso   1.00
C65    C     0.43060   0.41279   0.26142   0.00000  Uiso   1.00
C66    C     0.43478   0.44792   0.24105   0.00000  Uiso   1.00
C67    C     0.41838   0.34421   0.95812   0.00000  Uiso   1.00
C68    C     0.44208   0.31797   0.93758   0.00000  Uiso   1.00
C69    C     0.45151   0.30974   0.76908   0.00000  Uiso   1.00
H70    H     0.36838   0.40297   0.75677   0.00000  Uiso   1.00
H71    H     0.30614   0.38520   0.83351   0.00000  Uiso   1.00
H72    H     0.39184   0.46171   0.86035   0.00000  Uiso   1.00
H73    H     0.40331   0.36690   0.53655   0.00000  Uiso   1.00
H74    H     0.24322   0.35783   0.98155   0.00000  Uiso   1.00
H75    H     0.42393   0.51915   0.03812   0.00000  Uiso   1.00
H76    H     0.44813   0.31923   0.35532   0.00000  Uiso   1.00
H77    H     0.41524   0.34382   0.24163   0.00000  Uiso   1.00
H78    H     0.35557   0.32280   0.34498   0.00000  Uiso   1.00
H79    H     0.44127   0.39931   0.37182   0.00000  Uiso   1.00
H80    H     0.45275   0.30450   0.04802   0.00000  Uiso   1.00
H81    H     0.28334   0.30719   0.39668   0.00000  Uiso   1.00
H82    H     0.46405   0.46851   0.45324   0.00000  Uiso   1.00
H83    H     0.48825   0.26858   0.77045   0.00000  Uiso   1.00
O84    O     0.22318   0.31976   0.24838   0.00000  Uiso   1.00
O85    O     0.46027   0.53140   0.32257   0.00000  Uiso   1.00
O86    O     0.49201   0.26911   0.42677   0.00000  Uiso   1.00
N87    N     0.26085   0.34879   0.06505   0.00000  Uiso   1.00
N88    N     0.42980   0.49961   0.11795   0.00000  Uiso   1.00
N89    N     0.45243   0.31271   0.47959   0.00000  Uiso   1.00
N90    N     0.28244   0.32154   0.28842   0.00000  Uiso   1.00
N91    N     0.45139   0.47236   0.34133   0.00000  Uiso   1.00
N92    N     0.47402   0.28546   0.70297   0.00000  Uiso   1.00
C93    C     0.62088   0.61058   0.86785   0.00000  Uiso   1.00
C94    C     0.64820   0.62844   0.97677   0.00000  Uiso   1.00
C95    C     0.68320   0.62828   0.94393   0.00000  Uiso   1.00
C96    C     0.70394   0.64615   0.05897   0.00000  Uiso   1.00
C97    C     0.74845   0.67123   0.20644   0.00000  Uiso   1.00
C98    C     0.60164   0.58687   0.99137   0.00000  Uiso   1.00
C99    C     0.59749   0.55175   0.97079   0.00000  Uiso   1.00
C100   C     0.57903   0.53464   0.09811   0.00000  Uiso   1.00
C101   C     0.55124   0.49518   0.26818   0.00000  Uiso   1.00
C102   C     0.59541   0.63838   0.81544   0.00000  Uiso   1.00
C103   C     0.58601   0.64658   0.64694   0.00000  Uiso   1.00
C104   C     0.56230   0.67283   0.62614   0.00000  Uiso   1.00
C105   C     0.52484   0.71335   0.52305   0.00000  Uiso   1.00
C106   C     0.59549   0.64262   0.13054   0.00000  Uiso   1.00
C107   C     0.63441   0.64585   0.11945   0.00000  Uiso   1.00
C108   C     0.65511   0.66373   0.23457   0.00000  Uiso   1.00
C109   C     0.69012   0.66359   0.20191   0.00000  Uiso   1.00
C110   C     0.58785   0.60427   0.13405   0.00000  Uiso   1.00
C111   C     0.56940   0.58721   0.26142   0.00000  Uiso   1.00
C112   C     0.56522   0.55208   0.24105   0.00000  Uiso   1.00
C113   C     0.58162   0.65579   0.95812   0.00000  Uiso   1.00
C114   C     0.55792   0.68203   0.93758   0.00000  Uiso   1.00
C115   C     0.54849   0.69026   0.76908   0.00000  Uiso   1.00
H116   H     0.63162   0.59703   0.75677   0.00000  Uiso   1.00
H117   H     0.69386   0.61480   0.83351   0.00000  Uiso   1.00
H118   H     0.60816   0.53829   0.86035   0.00000  Uiso   1.00
H119   H     0.59669   0.63310   0.53655   0.00000  Uiso   1.00
H120   H     0.75678   0.64217   0.98155   0.00000  Uiso   1.00
H121   H     0.57607   0.48085   0.03812   0.00000  Uiso   1.00
H122   H     0.55187   0.68077   0.35532   0.00000  Uiso   1.00
H123   H     0.58476   0.65618   0.24163   0.00000  Uiso   1.00
H124   H     0.64443   0.67720   0.34498   0.00000  Uiso   1.00
H125   H     0.55873   0.60069   0.37182   0.00000  Uiso   1.00
H126   H     0.54725   0.69550   0.04802   0.00000  Uiso   1.00
H127   H     0.71666   0.69281   0.39668   0.00000  Uiso   1.00
H128   H     0.53595   0.53149   0.45324   0.00000  Uiso   1.00
H129   H     0.51175   0.73142   0.77045   0.00000  Uiso   1.00
O130   O     0.77682   0.68024   0.24838   0.00000  Uiso   1.00
O131   O     0.53973   0.46860   0.32257   0.00000  Uiso   1.00
O132   O     0.50799   0.73089   0.42677   0.00000  Uiso   1.00
N133   N     0.73915   0.65121   0.06505   0.00000  Uiso   1.00
N134   N     0.57020   0.50039   0.11795   0.00000  Uiso   1.00
N135   N     0.54757   0.68729   0.47959   0.00000  Uiso   1.00
N136   N     0.71756   0.67846   0.28842   0.00000  Uiso   1.00
N137   N     0.54861   0.52764   0.34133   0.00000  Uiso   1.00
N138   N     0.52598   0.71454   0.70297   0.00000  Uiso   1.00
C139   C     0.12088   0.11058   0.36785   0.00000  Uiso   1.00
C140   C     0.14820   0.12844   0.47677   0.00000  Uiso   1.00
C141   C     0.18320   0.12828   0.44393   0.00000  Uiso   1.00
C142   C     0.20394   0.14615   0.55897   0.00000  Uiso   1.00
C143   C     0.24845   0.17123   0.70644   0.00000  Uiso   1.00
C144   C     0.10164   0.08687   0.49137   0.00000  Uiso   1.00
C145   C     0.09749   0.05175   0.47079   0.00000  Uiso   1.00
C146   C     0.07903   0.03464   0.59811   0.00000  Uiso   1.00
C147   C     0.05124   0.99518   0.76818   0.00000  Uiso   1.00
C148   C     0.09541   0.13838   0.31544   0.00000  Uiso   1.00
C149   C     0.08601   0.14658   0.14694   0.00000  Uiso   1.00
C150   C     0.06230   0.17283   0.12614   0.00000  Uiso   1.00
C151   C     0.02484   0.21335   0.02305   0.00000  Uiso   1.00
C152   C     0.09549   0.14262   0.63054   0.00000  Uiso   1.00
C153   C     0.13441   0.14585   0.61945   0.00000  Uiso   1.00
C154   C     0.15511   0.16373   0.73457   0.00000  Uiso   1.00
C155   C     0.19012   0.16359   0.70191   0.00000  Uiso   1.00
C156   C     0.08785   0.10427   0.63405   0.00000  Uiso   1.00
C157   C     0.06940   0.08721   0.76142   0.00000  Uiso   1.00
C158   C     0.06522   0.05208   0.74105   0.00000  Uiso   1.00
C159   C     0.08162   0.15579   0.45812   0.00000  Uiso   1.00
C160   C     0.05792   0.18203   0.43758   0.00000  Uiso   1.00
C161   C     0.04849   0.19026   0.26908   0.00000  Uiso   1.00
H162   H     0.13162   0.09703   0.25677   0.00000  Uiso   1.00
H163   H     0.19386   0.11480   0.33351   0.00000  Uiso   1.00
H164   H     0.10816   0.03829   0.36035   0.00000  Uiso   1.00
H165   H     0.09669   0.13310   0.03655   0.00000  Uiso   1.00
H166   H     0.25678   0.14217   0.48155   0.00000  Uiso   1.00
H167   H     0.07607   0.98085   0.53812   0.00000  Uiso   1.00
H168   H     0.05187   0.18077   0.85532   0.00000  Uiso   1.00
H169   H     0.08476   0.15618   0.74163   0.00000  Uiso   1.00
H170   H     0.14443   0.17720   0.84498   0.00000  Uiso   1.00
H171   H     0.05873   0.10069   0.87182   0.00000  Uiso   1.00
H172   H     0.04725   0.19550   0.54802   0.00000  Uiso   1.00
H173   H     0.21666   0.19281   0.89668   0.00000  Uiso   1.00
H174   H     0.03595   0.03149   0.95324   0.00000  Uiso   1.00
H175   H     0.01175   0.23142   0.27045   0.00000  Uiso   1.00
O176   O     0.27682   0.18024   0.74838   0.00000  Uiso   1.00
O177   O     0.03973   0.96860   0.82257   0.00000  Uiso   1.00
O178   O     0.00799   0.23089   0.92677   0.00000  Uiso   1.00
N179   N     0.23915   0.15121   0.56505   0.00000  Uiso   1.00
N180   N     0.07020   0.00039   0.61795   0.00000  Uiso   1.00
N181   N     0.04757   0.18729   0.97959   0.00000  Uiso   1.00
N182   N     0.21756   0.17846   0.78842   0.00000  Uiso   1.00
N183   N     0.04861   0.02764   0.84133   0.00000  Uiso   1.00
N184   N     0.02598   0.21454   0.20297   0.00000  Uiso   1.00
C185   C     0.11058   0.37912   0.61785   0.00000  Uiso   1.00
C186   C     0.12844   0.35180   0.72677   0.00000  Uiso   1.00
C187   C     0.12828   0.31680   0.69393   0.00000  Uiso   1.00
C188   C     0.14615   0.29606   0.80897   0.00000  Uiso   1.00
C189   C     0.17123   0.25155   0.95644   0.00000  Uiso   1.00
C190   C     0.08687   0.39836   0.74137   0.00000  Uiso   1.00
C191   C     0.05175   0.40251   0.72079   0.00000  Uiso   1.00
C192   C     0.03464   0.42097   0.84811   0.00000  Uiso   1.00
C193   C     0.99518   0.44876   0.01818   0.00000  Uiso   1.00
C194   C     0.13838   0.40459   0.56544   0.00000  Uiso   1.00
C195   C     0.14658   0.41399   0.39694   0.00000  Uiso   1.00
C196   C     0.17283   0.43770   0.37614   0.00000  Uiso   1.00
C197   C     0.21335   0.47516   0.27305   0.00000  Uiso   1.00
C198   C     0.14262   0.40451   0.88054   0.00000  Uiso   1.00
C199   C     0.14585   0.36559   0.86945   0.00000  Uiso   1.00
C200   C     0.16373   0.34489   0.98457   0.00000  Uiso   1.00
C201   C     0.16359   0.30988   0.95191   0.00000  Uiso   1.00
C202   C     0.10427   0.41215   0.88405   0.00000  Uiso   1.00
C203   C     0.08721   0.43060   0.01142   0.00000  Uiso   1.00
C204   C     0.05208   0.43478   0.99105   0.00000  Uiso   1.00
C205   C     0.15579   0.41838   0.70812   0.00000  Uiso   1.00
C206   C     0.18203   0.44208   0.68758   0.00000  Uiso   1.00
C207   C     0.19026   0.45151   0.51908   0.00000  Uiso   1.00
H208   H     0.09703   0.36838   0.50677   0.00000  Uiso   1.00
H209   H     0.11480   0.30614   0.58351   0.00000  Uiso   1.00
H210   H     0.03829   0.39184   0.61035   0.00000  Uiso   1.00
H211   H     0.13310   0.40331   0.28655   0.00000  Uiso   1.00
H212   H     0.14217   0.24322   0.73155   0.00000  Uiso   1.00
H213   H     0.98085   0.42393   0.78812   0.00000  Uiso   1.00
H214   H     0.18077   0.44813   0.10532   0.00000  Uiso   1.00
H215   H     0.15618   0.41524   0.99163   0.00000  Uiso   1.00
H216   H     0.17720   0.35557   0.09498   0.00000  Uiso   1.00
H217   H     0.10069   0.44127   0.12182   0.00000  Uiso   1.00
H218   H     0.19550   0.45275   0.79802   0.00000  Uiso   1.00
H219   H     0.19281   0.28334   0.14668   0.00000  Uiso   1.00
H220   H     0.03149   0.46405   0.20324   0.00000  Uiso   1.00
H221   H     0.23142   0.48825   0.52045   0.00000  Uiso   1.00
O222   O     0.18024   0.22318   0.99838   0.00000  Uiso   1.00
O223   O     0.96860   0.46027   0.07257   0.00000  Uiso   1.00
O224   O     0.23089   0.49201   0.17677   0.00000  Uiso   1.00
N225   N     0.15121   0.26085   0.81505   0.00000  Uiso   1.00
N226   N     0.00039   0.42980   0.86795   0.00000  Uiso   1.00
N227   N     0.18729   0.45243   0.22959   0.00000  Uiso   1.00
N228   N     0.17846   0.28244   0.03842   0.00000  Uiso   1.00
N229   N     0.02764   0.45139   0.09133   0.00000  Uiso   1.00
N230   N     0.21454   0.47402   0.45297   0.00000  Uiso   1.00
C231   C     0.61058   0.87912   0.11785   0.00000  Uiso   1.00
C232   C     0.62844   0.85180   0.22677   0.00000  Uiso   1.00
C233   C     0.62828   0.81680   0.19393   0.00000  Uiso   1.00
C234   C     0.64615   0.79606   0.30897   0.00000  Uiso   1.00
C235   C     0.67123   0.75155   0.45644   0.00000  Uiso   1.00
C236   C     0.58687   0.89836   0.24137   0.00000  Uiso   1.00
C237   C     0.55175   0.90251   0.22079   0.00000  Uiso   1.00
C238   C     0.53464   0.92097   0.34811   0.00000  Uiso   1.00
C239   C     0.49518   0.94876   0.51818   0.00000  Uiso   1.00
C240   C     0.63838   0.90459   0.06544   0.00000  Uiso   1.00
C241   C     0.64658   0.91399   0.89694   0.00000  Uiso   1.00
C242   C     0.67283   0.93770   0.87614   0.00000  Uiso   1.00
C243   C     0.71335   0.97516   0.77305   0.00000  Uiso   1.00
C244   C     0.64262   0.90451   0.38054   0.00000  Uiso   1.00
C245   C     0.64585   0.86559   0.36945   0.00000  Uiso   1.00
C246   C     0.66373   0.84489   0.48457   0.00000  Uiso   1.00
C247   C     0.66359   0.80988   0.45191   0.00000  Uiso   1.00
C248   C     0.60427   0.91215   0.38405   0.00000  Uiso   1.00
C249   C     0.58721   0.93060   0.51142   0.00000  Uiso   1.00
C250   C     0.55208   0.93478   0.49105   0.00000  Uiso   1.00
C251   C     0.65579   0.91838   0.20812   0.00000  Uiso   1.00
C252   C     0.68203   0.94208   0.18758   0.00000  Uiso   1.00
C253   C     0.69026   0.95151   0.01908   0.00000  Uiso   1.00
H254   H     0.59703   0.86838   0.00677   0.00000  Uiso   1.00
H255   H     0.61480   0.80614   0.08351   0.00000  Uiso   1.00
H256   H     0.53829   0.89184   0.11035   0.00000  Uiso   1.00
H257   H     0.63310   0.90331   0.78655   0.00000  Uiso   1.00
H258   H     0.64217   0.74322   0.23155   0.00000  Uiso   1.00
H259   H     0.48085   0.92393   0.28812   0.00000  Uiso   1.00
H260   H     0.68077   0.94813   0.60532   0.00000  Uiso   1.00
H261   H     0.65618   0.91524   0.49163   0.00000  Uiso   1.00
H262   H     0.67720   0.85557   0.59498   0.00000  Uiso   1.00
H263   H     0.60069   0.94127   0.62182   0.00000  Uiso   1.00
H264   H     0.69550   0.95275   0.29802   0.00000  Uiso   1.00
H265   H     0.69281   0.78334   0.64668   0.00000  Uiso   1.00
H266   H     0.53149   0.96405   0.70324   0.00000  Uiso   1.00
H267   H     0.73142   0.98825   0.02045   0.00000  Uiso   1.00
O268   O     0.68024   0.72318   0.49838   0.00000  Uiso   1.00
O269   O     0.46860   0.96027   0.57257   0.00000  Uiso   1.00
O270   O     0.73089   0.99201   0.67677   0.00000  Uiso   1.00
N271   N     0.65121   0.76085   0.31505   0.00000  Uiso   1.00
N272   N     0.50039   0.92980   0.36795   0.00000  Uiso   1.00
N273   N     0.68729   0.95243   0.72959   0.00000  Uiso   1.00
N274   N     0.67846   0.78244   0.53842   0.00000  Uiso   1.00
N275   N     0.52764   0.95139   0.59133   0.00000  Uiso   1.00
N276   N     0.71454   0.97402   0.95297   0.00000  Uiso   1.00
C277   C     0.38942   0.12088   0.11785   0.00000  Uiso   1.00
C278   C     0.37156   0.14820   0.22677   0.00000  Uiso   1.00
C279   C     0.37172   0.18320   0.19393   0.00000  Uiso   1.00
C280   C     0.35385   0.20394   0.30897   0.00000  Uiso   1.00
C281   C     0.32877   0.24845   0.45644   0.00000  Uiso   1.00
C282   C     0.41313   0.10164   0.24137   0.00000  Uiso   1.00
C283   C     0.44825   0.09749   0.22079   0.00000  Uiso   1.00
C284   C     0.46536   0.07903   0.34811   0.00000  Uiso   1.00
C285   C     0.50482   0.05124   0.51818   0.00000  Uiso   1.00
C286   C     0.36162   0.09541   0.06544   0.00000  Uiso   1.00
C287   C     0.35342   0.08601   0.89694   0.00000  Uiso   1.00
C288   C     0.32717   0.06230   0.87614   0.00000  Uiso   1.00
C289   C     0.28665   0.02484   0.77305   0.00000  Uiso   1.00
C290   C     0.35738   0.09549   0.38054   0.00000  Uiso   1.00
C291   C     0.35415   0.13441   0.36945   0.00000  Uiso   1.00
C292   C     0.33627   0.15511   0.48457   0.00000  Uiso   1.00
C293   C     0.33641   0.19012   0.45191   0.00000  Uiso   1.00
C294   C     0.39573   0.08785   0.38405   0.00000  Uiso   1.00
C295   C     0.41279   0.06940   0.51142   0.00000  Uiso   1.00
C296   C     0.44792   0.06522   0.49105   0.00000  Uiso   1.00
C297   C     0.34421   0.08162   0.20812   0.00000  Uiso   1.00
C298   C     0.31797   0.05792   0.18758   0.00000  Uiso   1.00
C299   C     0.30974   0.04849   0.01908   0.00000  Uiso   1.00
H300   H     0.40297   0.13162   0.00677   0.00000  Uiso   1.00
H301   H     0.38520   0.19386   0.08351   0.00000  Uiso   1.00
H302   H     0.46171   0.10816   0.11035   0.00000  Uiso   1.00
H303   H     0.36690   0.09669   0.78655   0.00000  Uiso   1.00
H304   H     0.35783   0.25678   0.23155   0.00000  Uiso   1.00
H305   H     0.51915   0.07607   0.28812   0.00000  Uiso   1.00
H306   H     0.31923   0.05187   0.60532   0.00000  Uiso   1.00
H307   H     0.34382   0.08476   0.49163   0.00000  Uiso   1.00
H308   H     0.32280   0.14443   0.59498   0.00000  Uiso   1.00
H309   H     0.39931   0.05873   0.62182   0.00000  Uiso   1.00
H310   H     0.30450   0.04725   0.29802   0.00000  Uiso   1.00
H311   H     0.30719   0.21666   0.64668   0.00000  Uiso   1.00
H312   H     0.46851   0.03595   0.70324   0.00000  Uiso   1.00
H313   H     0.26858   0.01175   0.02045   0.00000  Uiso   1.00
O314   O     0.31976   0.27682   0.49838   0.00000  Uiso   1.00
O315   O     0.53140   0.03973   0.57257   0.00000  Uiso   1.00
O316   O     0.26911   0.00799   0.67677   0.00000  Uiso   1.00
N317   N     0.34879   0.23915   0.31505   0.00000  Uiso   1.00
N318   N     0.49961   0.07020   0.36795   0.00000  Uiso   1.00
N319   N     0.31271   0.04757   0.72959   0.00000  Uiso   1.00
N320   N     0.32154   0.21756   0.53842   0.00000  Uiso   1.00
N321   N     0.47236   0.04861   0.59133   0.00000  Uiso   1.00
N322   N     0.28546   0.02598   0.95297   0.00000  Uiso   1.00
C323   C     0.88942   0.62088   0.61785   0.00000  Uiso   1.00
C324   C     0.87156   0.64820   0.72677   0.00000  Uiso   1.00
C325   C     0.87172   0.68320   0.69393   0.00000  Uiso   1.00
C326   C     0.85385   0.70394   0.80897   0.00000  Uiso   1.00
C327   C     0.82877   0.74845   0.95644   0.00000  Uiso   1.00
C328   C     0.91313   0.60164   0.74137   0.00000  Uiso   1.00
C329   C     0.94825   0.59749   0.72079   0.00000  Uiso   1.00
C330   C     0.96536   0.57903   0.84811   0.00000  Uiso   1.00
C331   C     0.00482   0.55124   0.01818   0.00000  Uiso   1.00
C332   C     0.86162   0.59541   0.56544   0.00000  Uiso   1.00
C333   C     0.85342   0.58601   0.39694   0.00000  Uiso   1.00
C334   C     0.82717   0.56230   0.37614   0.00000  Uiso   1.00
C335   C     0.78665   0.52484   0.27305   0.00000  Uiso   1.00
C336   C     0.85738   0.59549   0.88054   0.00000  Uiso   1.00
C337   C     0.85415   0.63441   0.86945   0.00000  Uiso   1.00
C338   C     0.83627   0.65511   0.98457   0.00000  Uiso   1.00
C339   C     0.83641   0.69012   0.95191   0.00000  Uiso   1.00
C340   C     0.89573   0.58785   0.88405   0.00000  Uiso   1.00
C341   C     0.91279   0.56940   0.01142   0.00000  Uiso   1.00
C342   C     0.94792   0.56522   0.99105   0.00000  Uiso   1.00
C343   C     0.84421   0.58162   0.70812   0.00000  Uiso   1.00
C344   C     0.81797   0.55792   0.68758   0.00000  Uiso   1.00
C345   C     0.80974   0.54849   0.51908   0.00000  Uiso   1.00
H346   H     0.90297   0.63162   0.50677   0.00000  Uiso   1.00
H347   H     0.88520   0.69386   0.58351   0.00000  Uiso   1.00
H348   H     0.96171   0.60816   0.61035   0.00000  Uiso   1.00
H349   H     0.86690   0.59669   0.28655   0.00000  Uiso   1.00
H350   H     0.85783   0.75678   0.73155   0.00000  Uiso   1.00
H351   H     0.01915   0.57607   0.78812   0.00000  Uiso   1.00
H352   H     0.81923   0.55187   0.10532   0.00000  Uiso   1.00
H353   H     0.84382   0.58476   0.99163   0.00000  Uiso   1.00
H354   H     0.82280   0.64443   0.09498   0.00000  Uiso   1.00
H355   H     0.89931   0.55873   0.12182   0.00000  Uiso   1.00
H356   H     0.80450   0.54725   0.79802   0.00000  Uiso   1.00
H357   H     0.80719   0.71666   0.14668   0.00000  Uiso   1.00
H358   H     0.96851   0.53595   0.20324   0.00000  Uiso   1.00
H359   H     0.76858   0.51175   0.52045   0.00000  Uiso   1.00
O360   O     0.81976   0.77682   0.99838   0.00000  Uiso   1.00
O361   O     0.03140   0.53973   0.07257   0.00000  Uiso   1.00
O362   O     0.76911   0.50799   0.17677   0.00000  Uiso   1.00
N363   N     0.84879   0.73915   0.81505   0.00000  Uiso   1.00
N364   N     0.99961   0.57020   0.86795   0.00000  Uiso   1.00
N365   N     0.81271   0.54757   0.22959   0.00000  Uiso   1.00
N366   N     0.82154   0.71756   0.03842   0.00000  Uiso   1.00
N367   N     0.97236   0.54861   0.09133   0.00000  Uiso   1.00
N368   N     0.78546   0.52598   0.45297   0.00000  Uiso   1.00
C369   C     0.12088   0.61058   0.88215   0.00000  Uiso   1.00
C370   C     0.14820   0.62844   0.77323   0.00000  Uiso   1.00
C371   C     0.18320   0.62828   0.80607   0.00000  Uiso   1.00
C372   C     0.20394   0.64615   0.69103   0.00000  Uiso   1.00
C373   C     0.24845   0.67123   0.54356   0.00000  Uiso   1.00
C374   C     0.10164   0.58687   0.75863   0.00000  Uiso   1.00
C375   C     0.09749   0.55175   0.77921   0.00000  Uiso   1.00
C376   C     0.07903   0.53464   0.65189   0.00000  Uiso   1.00
C377   C     0.05124   0.49518   0.48182   0.00000  Uiso   1.00
C378   C     0.09541   0.63838   0.93456   0.00000  Uiso   1.00
C379   C     0.08601   0.64658   0.10306   0.00000  Uiso   1.00
C380   C     0.06230   0.67283   0.12386   0.00000  Uiso   1.00
C381   C     0.02484   0.71335   0.22695   0.00000  Uiso   1.00
C382   C     0.09549   0.64262   0.61946   0.00000  Uiso   1.00
C383   C     0.13441   0.64585   0.63055   0.00000  Uiso   1.00
C384   C     0.15511   0.66373   0.51543   0.00000  Uiso   1.00
C385   C     0.19012   0.66359   0.54809   0.00000  Uiso   1.00
C386   C     0.08785   0.60427   0.61595   0.00000  Uiso   1.00
C387   C     0.06940   0.58721   0.48858   0.00000  Uiso   1.00
C388   C     0.06522   0.55208   0.50895   0.00000  Uiso   1.00
C389   C     0.08162   0.65579   0.79188   0.00000  Uiso   1.00
C390   C     0.05792   0.68203   0.81242   0.00000  Uiso   1.00
C391   C     0.04849   0.69026   0.98092   0.00000  Uiso   1.00
H392   H     0.13162   0.59703   0.99323   0.00000  Uiso   1.00
H393   H     0.19386   0.61480   0.91649   0.00000  Uiso   1.00
H394   H     0.10816   0.53829   0.88965   0.00000  Uiso   1.00
H395   H     0.09669   0.63310   0.21345   0.00000  Uiso   1.00
H396   H     0.25678   0.64217   0.76845   0.00000  Uiso   1.00
H397   H     0.07607   0.48085   0.71188   0.00000  Uiso   1.00
H398   H     0.05187   0.68077   0.39468   0.00000  Uiso   1.00
H399   H     0.08476   0.65618   0.50837   0.00000  Uiso   1.00
H400   H     0.14443   0.67720   0.40502   0.00000  Uiso   1.00
H401   H     0.05873   0.60069   0.37818   0.00000  Uiso   1.00
H402   H     0.04725   0.69550   0.70198   0.00000  Uiso   1.00
H403   H     0.21666   0.69281   0.35332   0.00000  Uiso   1.00
H404   H     0.03595   0.53149   0.29676   0.00000  Uiso   1.00
H405   H     0.01175   0.73142   0.97955   0.00000  Uiso   1.00
O406   O     0.27682   0.68024   0.50162   0.00000  Uiso   1.00
O407   O     0.03973   0.46860   0.42743   0.00000  Uiso   1.00
O408   O     0.00799   0.73089   0.32323   0.00000  Uiso   1.00
N409   N     0.23915   0.65121   0.68495   0.00000  Uiso   1.00
N410   N     0.07020   0.50039   0.63205   0.00000  Uiso   1.00
N411   N     0.04757   0.68729   0.27041   0.00000  Uiso   1.00
N412   N     0.21756   0.67846   0.46158   0.00000  Uiso   1.00
N413   N     0.04861   0.52764   0.40867   0.00000  Uiso   1.00
N414   N     0.02598   0.71454   0.04703   0.00000  Uiso   1.00
C415   C     0.62088   0.11058   0.38215   0.00000  Uiso   1.00
C416   C     0.64820   0.12844   0.27323   0.00000  Uiso   1.00
C417   C     0.68320   0.12828   0.30607   0.00000  Uiso   1.00
C418   C     0.70394   0.14615   0.19103   0.00000  Uiso   1.00
C419   C     0.74845   0.17123   0.04356   0.00000  Uiso   1.00
C420   C     0.60164   0.08687   0.25863   0.00000  Uiso   1.00
C421   C     0.59749   0.05175   0.27921   0.00000  Uiso   1.00
C422   C     0.57903   0.03464   0.15189   0.00000  Uiso   1.00
C423   C     0.55124   0.99518   0.98182   0.00000  Uiso   1.00
C424   C     0.59541   0.13838   0.43456   0.00000  Uiso   1.00
C425   C     0.58601   0.14658   0.60306   0.00000  Uiso   1.00
C426   C     0.56230   0.17283   0.62386   0.00000  Uiso   1.00
C427   C     0.52484   0.21335   0.72695   0.00000  Uiso   1.00
C428   C     0.59549   0.14262   0.11946   0.00000  Uiso   1.00
C429   C     0.63441   0.14585   0.13055   0.00000  Uiso   1.00
C430   C     0.65511   0.16373   0.01543   0.00000  Uiso   1.00
C431   C     0.69012   0.16359   0.04809   0.00000  Uiso   1.00
C432   C     0.58785   0.10427   0.11595   0.00000  Uiso   1.00
C433   C     0.56940   0.08721   0.98858   0.00000  Uiso   1.00
C434   C     0.56522   0.05208   0.00895   0.00000  Uiso   1.00
C435   C     0.58162   0.15579   0.29188   0.00000  Uiso   1.00
C436   C     0.55792   0.18203   0.31242   0.00000  Uiso   1.00
C437   C     0.54849   0.19026   0.48092   0.00000  Uiso   1.00
H438   H     0.63162   0.09703   0.49323   0.00000  Uiso   1.00
H439   H     0.69386   0.11480   0.41649   0.00000  Uiso   1.00
H440   H     0.60816   0.03829   0.38965   0.00000  Uiso   1.00
H441   H     0.59669   0.13310   0.71345   0.00000  Uiso   1.00
H442   H     0.75678   0.14217   0.26845   0.00000  Uiso   1.00
H443   H     0.57607   0.98085   0.21188   0.00000  Uiso   1.00
H444   H     0.55187   0.18077   0.89468   0.00000  Uiso   1.00
H445   H     0.58476   0.15618   0.00837   0.00000  Uiso   1.00
H446   H     0.64443   0.17720   0.90502   0.00000  Uiso   1.00
H447   H     0.55873   0.10069   0.87818   0.00000  Uiso   1.00
H448   H     0.54725   0.19550   0.20198   0.00000  Uiso   1.00
H449   H     0.71666   0.19281   0.85332   0.00000  Uiso   1.00
H450   H     0.53595   0.03149   0.79676   0.00000  Uiso   1.00
H451   H     0.51175   0.23142   0.47955   0.00000  Uiso   1.00
O452   O     0.77682   0.18024   0.00162   0.00000  Uiso   1.00
O453   O     0.53973   0.96860   0.92743   0.00000  Uiso   1.00
O454   O     0.50799   0.23089   0.82323   0.00000  Uiso   1.00
N455   N     0.73915   0.15121   0.18495   0.00000  Uiso   1.00
N456   N     0.57020   0.00039   0.13205   0.00000  Uiso   1.00
N457   N     0.54757   0.18729   0.77041   0.00000  Uiso   1.00
N458   N     0.71756   0.17846   0.96158   0.00000  Uiso   1.00
N459   N     0.54861   0.02764   0.90867   0.00000  Uiso   1.00
N460   N     0.52598   0.21454   0.54703   0.00000  Uiso   1.00
C461   C     0.37912   0.88942   0.38215   0.00000  Uiso   1.00
C462   C     0.35180   0.87156   0.27323   0.00000  Uiso   1.00
C463   C     0.31680   0.87172   0.30607   0.00000  Uiso   1.00
C464   C     0.29606   0.85385   0.19103   0.00000  Uiso   1.00
C465   C     0.25155   0.82877   0.04356   0.00000  Uiso   1.00
C466   C     0.39836   0.91313   0.25863   0.00000  Uiso   1.00
C467   C     0.40251   0.94825   0.27921   0.00000  Uiso   1.00
C468   C     0.42097   0.96536   0.15189   0.00000  Uiso   1.00
C469   C     0.44876   0.00482   0.98182   0.00000  Uiso   1.00
C470   C     0.40459   0.86162   0.43456   0.00000  Uiso   1.00
C471   C     0.41399   0.85342   0.60306   0.00000  Uiso   1.00
C472   C     0.43770   0.82717   0.62386   0.00000  Uiso   1.00
C473   C     0.47516   0.78665   0.72695   0.00000  Uiso   1.00
C474   C     0.40451   0.85738   0.11946   0.00000  Uiso   1.00
C475   C     0.36559   0.85415   0.13055   0.00000  Uiso   1.00
C476   C     0.34489   0.83627   0.01543   0.00000  Uiso   1.00
C477   C     0.30988   0.83641   0.04809   0.00000  Uiso   1.00
C478   C     0.41215   0.89573   0.11595   0.00000  Uiso   1.00
C479   C     0.43060   0.91279   0.98858   0.00000  Uiso   1.00
C480   C     0.43478   0.94792   0.00895   0.00000  Uiso   1.00
C481   C     0.41838   0.84421   0.29188   0.00000  Uiso   1.00
C482   C     0.44208   0.81797   0.31242   0.00000  Uiso   1.00
C483   C     0.45151   0.80974   0.48092   0.00000  Uiso   1.00
H484   H     0.36838   0.90297   0.49323   0.00000  Uiso   1.00
H485   H     0.30614   0.88520   0.41649   0.00000  Uiso   1.00
H486   H     0.39184   0.96171   0.38965   0.00000  Uiso   1.00
H487   H     0.40331   0.86690   0.71345   0.00000  Uiso   1.00
H488   H     0.24322   0.85783   0.26845   0.00000  Uiso   1.00
H489   H     0.42393   0.01915   0.21188   0.00000  Uiso   1.00
H490   H     0.44813   0.81923   0.89468   0.00000  Uiso   1.00
H491   H     0.41524   0.84382   0.00837   0.00000  Uiso   1.00
H492   H     0.35557   0.82280   0.90502   0.00000  Uiso   1.00
H493   H     0.44127   0.89931   0.87818   0.00000  Uiso   1.00
H494   H     0.45275   0.80450   0.20198   0.00000  Uiso   1.00
H495   H     0.28334   0.80719   0.85332   0.00000  Uiso   1.00
H496   H     0.46405   0.96851   0.79676   0.00000  Uiso   1.00
H497   H     0.48825   0.76858   0.47955   0.00000  Uiso   1.00
O498   O     0.22318   0.81976   0.00162   0.00000  Uiso   1.00
O499   O     0.46027   0.03140   0.92743   0.00000  Uiso   1.00
O500   O     0.49201   0.76911   0.82323   0.00000  Uiso   1.00
N501   N     0.26085   0.84879   0.18495   0.00000  Uiso   1.00
N502   N     0.42980   0.99961   0.13205   0.00000  Uiso   1.00
N503   N     0.45243   0.81271   0.77041   0.00000  Uiso   1.00
N504   N     0.28244   0.82154   0.96158   0.00000  Uiso   1.00
N505   N     0.45139   0.97236   0.90867   0.00000  Uiso   1.00
N506   N     0.47402   0.78546   0.54703   0.00000  Uiso   1.00
C507   C     0.87912   0.38942   0.88215   0.00000  Uiso   1.00
C508   C     0.85180   0.37156   0.77323   0.00000  Uiso   1.00
C509   C     0.81680   0.37172   0.80607   0.00000  Uiso   1.00
C510   C     0.79606   0.35385   0.69103   0.00000  Uiso   1.00
C511   C     0.75155   0.32877   0.54356   0.00000  Uiso   1.00
C512   C     0.89836   0.41313   0.75863   0.00000  Uiso   1.00
C513   C     0.90251   0.44825   0.77921   0.00000  Uiso   1.00
C514   C     0.92097   0.46536   0.65189   0.00000  Uiso   1.00
C515   C     0.94876   0.50482   0.48182   0.00000  Uiso   1.00
C516   C     0.90459   0.36162   0.93456   0.00000  Uiso   1.00
C517   C     0.91399   0.35342   0.10306   0.00000  Uiso   1.00
C518   C     0.93770   0.32717   0.12386   0.00000  Uiso   1.00
C519   C     0.97516   0.28665   0.22695   0.00000  Uiso   1.00
C520   C     0.90451   0.35738   0.61946   0.00000  Uiso   1.00
C521   C     0.86559   0.35415   0.63055   0.00000  Uiso   1.00
C522   C     0.84489   0.33627   0.51543   0.00000  Uiso   1.00
C523   C     0.80988   0.33641   0.54809   0.00000  Uiso   1.00
C524   C     0.91215   0.39573   0.61595   0.00000  Uiso   1.00
C525   C     0.93060   0.41279   0.48858   0.00000  Uiso   1.00
C526   C     0.93478   0.44792   0.50895   0.00000  Uiso   1.00
C527   C     0.91838   0.34421   0.79188   0.00000  Uiso   1.00
C528   C     0.94208   0.31797   0.81242   0.00000  Uiso   1.00
C529   C     0.95151   0.30974   0.98092   0.00000  Uiso   1.00
H530   H     0.86838   0.40297   0.99323   0.00000  Uiso   1.00
H531   H     0.80614   0.38520   0.91649   0.00000  Uiso   1.00
H532   H     0.89184   0.46171   0.88965   0.00000  Uiso   1.00
H533   H     0.90331   0.36690   0.21345   0.00000  Uiso   1.00
H534   H     0.74322   0.35783   0.76845   0.00000  Uiso   1.00
H535   H     0.92393   0.51915   0.71188   0.00000  Uiso   1.00
H536   H     0.94813   0.31923   0.39468   0.00000  Uiso   1.00
H537   H     0.91524   0.34382   0.50837   0.00000  Uiso   1.00
H538   H     0.85557   0.32280   0.40502   0.00000  Uiso   1.00
H539   H     0.94127   0.39931   0.37818   0.00000  Uiso   1.00
H540   H     0.95275   0.30450   0.70198   0.00000  Uiso   1.00
H541   H     0.78334   0.30719   0.35332   0.00000  Uiso   1.00
H542   H     0.96405   0.46851   0.29676   0.00000  Uiso   1.00
H543   H     0.98825   0.26858   0.97955   0.00000  Uiso   1.00
O544   O     0.72318   0.31976   0.50162   0.00000  Uiso   1.00
O545   O     0.96027   0.53140   0.42743   0.00000  Uiso   1.00
O546   O     0.99201   0.26911   0.32323   0.00000  Uiso   1.00
N547   N     0.76085   0.34879   0.68495   0.00000  Uiso   1.00
N548   N     0.92980   0.49961   0.63205   0.00000  Uiso   1.00
N549   N     0.95243   0.31271   0.27041   0.00000  Uiso   1.00
N550   N     0.78244   0.32154   0.46158   0.00000  Uiso   1.00
N551   N     0.95139   0.47236   0.40867   0.00000  Uiso   1.00
N552   N     0.97402   0.28546   0.04703   0.00000  Uiso   1.00
C553   C     0.88942   0.12088   0.63215   0.00000  Uiso   1.00
C554   C     0.87156   0.14820   0.52323   0.00000  Uiso   1.00
C555   C     0.87172   0.18320   0.55607   0.00000  Uiso   1.00
C556   C     0.85385   0.20394   0.44103   0.00000  Uiso   1.00
C557   C     0.82877   0.24845   0.29356   0.00000  Uiso   1.00
C558   C     0.91313   0.10164   0.50863   0.00000  Uiso   1.00
C559   C     0.94825   0.09749   0.52921   0.00000  Uiso   1.00
C560   C     0.96536   0.07903   0.40189   0.00000  Uiso   1.00
C561   C     0.00482   0.05124   0.23182   0.00000  Uiso   1.00
C562   C     0.86162   0.09541   0.68456   0.00000  Uiso   1.00
C563   C     0.85342   0.08601   0.85306   0.00000  Uiso   1.00
C564   C     0.82717   0.06230   0.87386   0.00000  Uiso   1.00
C565   C     0.78665   0.02484   0.97695   0.00000  Uiso   1.00
C566   C     0.85738   0.09549   0.36946   0.00000  Uiso   1.00
C567   C     0.85415   0.13441   0.38055   0.00000  Uiso   1.00
C568   C     0.83627   0.15511   0.26543   0.00000  Uiso   1.00
C569   C     0.83641   0.19012   0.29809   0.00000  Uiso   1.00
C570   C     0.89573   0.08785   0.36595   0.00000  Uiso   1.00
C571   C     0.91279   0.06940   0.23858   0.00000  Uiso   1.00
C572   C     0.94792   0.06522   0.25895   0.00000  Uiso   1.00
C573   C     0.84421   0.08162   0.54188   0.00000  Uiso   1.00
C574   C     0.81797   0.05792   0.56242   0.00000  Uiso   1.00
C575   C     0.80974   0.04849   0.73092   0.00000  Uiso   1.00
H576   H     0.90297   0.13162   0.74323   0.00000  Uiso   1.00
H577   H     0.88520   0.19386   0.66649   0.00000  Uiso   1.00
H578   H     0.96171   0.10816   0.63965   0.00000  Uiso   1.00
H579   H     0.86690   0.09669   0.96345   0.00000  Uiso   1.00
H580   H     0.85783   0.25678   0.51845   0.00000  Uiso   1.00
H581   H     0.01915   0.07607   0.46188   0.00000  Uiso   1.00
H582   H     0.81923   0.05187   0.14468   0.00000  Uiso   1.00
H583   H     0.84382   0.08476   0.25837   0.00000  Uiso   1.00
H584   H     0.82280   0.14443   0.15502   0.00000  Uiso   1.00
H585   H     0.89931   0.05873   0.12818   0.00000  Uiso   1.00
H586   H     0.80450   0.04725   0.45198   0.00000  Uiso   1.00
H587   H     0.80719   0.21666   0.10332   0.00000  Uiso   1.00
H588   H     0.96851   0.03595   0.04676   0.00000  Uiso   1.00
H589   H     0.76858   0.01175   0.72955   0.00000  Uiso   1.00
O590   O     0.81976   0.27682   0.25162   0.00000  Uiso   1.00
O591   O     0.03140   0.03973   0.17743   0.00000  Uiso   1.00
O592   O     0.76911   0.00799   0.07323   0.00000  Uiso   1.00
N593   N     0.84879   0.23915   0.43495   0.00000  Uiso   1.00
N594   N     0.99961   0.07020   0.38205   0.00000  Uiso   1.00
N595   N     0.81271   0.04757   0.02041   0.00000  Uiso   1.00
N596   N     0.82154   0.21756   0.21158   0.00000  Uiso   1.00
N597   N     0.97236   0.04861   0.15867   0.00000  Uiso   1.00
N598   N     0.78546   0.02598   0.79703   0.00000  Uiso   1.00
C599   C     0.38942   0.62088   0.13215   0.00000  Uiso   1.00
C600   C     0.37156   0.64820   0.02323   0.00000  Uiso   1.00
C601   C     0.37172   0.68320   0.05607   0.00000  Uiso   1.00
C602   C     0.35385   0.70394   0.94103   0.00000  Uiso   1.00
C603   C     0.32877   0.74845   0.79356   0.00000  Uiso   1.00
C604   C     0.41313   0.60164   0.00863   0.00000  Uiso   1.00
C605   C     0.44825   0.59749   0.02921   0.00000  Uiso   1.00
C606   C     0.46536   0.57903   0.90189   0.00000  Uiso   1.00
C607   C     0.50482   0.55124   0.73182   0.00000  Uiso   1.00
C608   C     0.36162   0.59541   0.18456   0.00000  Uiso   1.00
C609   C     0.35342   0.58601   0.35306   0.00000  Uiso   1.00
C610   C     0.32717   0.56230   0.37386   0.00000  Uiso   1.00
C611   C     0.28665   0.52484   0.47695   0.00000  Uiso   1.00
C612   C     0.35738   0.59549   0.86946   0.00000  Uiso   1.00
C613   C     0.35415   0.63441   0.88055   0.00000  Uiso   1.00
C614   C     0.33627   0.65511   0.76543   0.00000  Uiso   1.00
C615   C     0.33641   0.69012   0.79809   0.00000  Uiso   1.00
C616   C     0.39573   0.58785   0.86595   0.00000  Uiso   1.00
C617   C     0.41279   0.56940   0.73858   0.00000  Uiso   1.00
C618   C     0.44792   0.56522   0.75895   0.00000  Uiso   1.00
C619   C     0.34421   0.58162   0.04188   0.00000  Uiso   1.00
C620   C     0.31797   0.55792   0.06242   0.00000  Uiso   1.00
C621   C     0.30974   0.54849   0.23092   0.00000  Uiso   1.00
H622   H     0.40297   0.63162   0.24323   0.00000  Uiso   1.00
H623   H     0.38520   0.69386   0.16649   0.00000  Uiso   1.00
H624   H     0.46171   0.60816   0.13965   0.00000  Uiso   1.00
H625   H     0.36690   0.59669   0.46345   0.00000  Uiso   1.00
H626   H     0.35783   0.75678   0.01845   0.00000  Uiso   1.00
H627   H     0.51915   0.57607   0.96188   0.00000  Uiso   1.00
H628   H     0.31923   0.55187   0.64468   0.00000  Uiso   1.00
H629   H     0.34382   0.58476   0.75837   0.00000  Uiso   1.00
H630   H     0.32280   0.64443   0.65502   0.00000  Uiso   1.00
H631   H     0.39931   0.55873   0.62818   0.00000  Uiso   1.00
H632   H     0.30450   0.54725   0.95198   0.00000  Uiso   1.00
H633   H     0.30719   0.71666   0.60332   0.00000  Uiso   1.00
H634   H     0.46851   0.53595   0.54676   0.00000  Uiso   1.00
H635   H     0.26858   0.51175   0.22955   0.00000  Uiso   1.00
O636   O     0.31976   0.77682   0.75162   0.00000  Uiso   1.00
O637   O     0.53140   0.53973   0.67743   0.00000  Uiso   1.00
O638   O     0.26911   0.50799   0.57323   0.00000  Uiso   1.00
N639   N     0.34879   0.73915   0.93495   0.00000  Uiso   1.00
N640   N     0.49961   0.57020   0.88205   0.00000  Uiso   1.00
N641   N     0.31271   0.54757   0.52041   0.00000  Uiso   1.00
N642   N     0.32154   0.71756   0.71158   0.00000  Uiso   1.00
N643   N     0.47236   0.54861   0.65867   0.00000  Uiso   1.00
N644   N     0.28546   0.52598   0.29703   0.00000  Uiso   1.00
C645   C     0.61058   0.37912   0.13215   0.00000  Uiso   1.00
C646   C     0.62844   0.35180   0.02323   0.00000  Uiso   1.00
C647   C     0.62828   0.31680   0.05607   0.00000  Uiso   1.00
C648   C     0.64615   0.29606   0.94103   0.00000  Uiso   1.00
C649   C     0.67123   0.25155   0.79356   0.00000  Uiso   1.00
C650   C     0.58687   0.39836   0.00863   0.00000  Uiso   1.00
C651   C     0.55175   0.40251   0.02921   0.00000  Uiso   1.00
C652   C     0.53464   0.42097   0.90189   0.00000  Uiso   1.00
C653   C     0.49518   0.44876   0.73182   0.00000  Uiso   1.00
C654   C     0.63838   0.40459   0.18456   0.00000  Uiso   1.00
C655   C     0.64658   0.41399   0.35306   0.00000  Uiso   1.00
C656   C     0.67283   0.43770   0.37386   0.00000  Uiso   1.00
C657   C     0.71335   0.47516   0.47695   0.00000  Uiso   1.00
C658   C     0.64262   0.40451   0.86946   0.00000  Uiso   1.00
C659   C     0.64585   0.36559   0.88055   0.00000  Uiso   1.00
C660   C     0.66373   0.34489   0.76543   0.00000  Uiso   1.00
C661   C     0.66359   0.30988   0.79809   0.00000  Uiso   1.00
C662   C     0.60427   0.41215   0.86595   0.00000  Uiso   1.00
C663   C     0.58721   0.43060   0.73858   0.00000  Uiso   1.00
C664   C     0.55208   0.43478   0.75895   0.00000  Uiso   1.00
C665   C     0.65579   0.41838   0.04188   0.00000  Uiso   1.00
C666   C     0.68203   0.44208   0.06242   0.00000  Uiso   1.00
C667   C     0.69026   0.45151   0.23092   0.00000  Uiso   1.00
H668   H     0.59703   0.36838   0.24323   0.00000  Uiso   1.00
H669   H     0.61480   0.30614   0.16649   0.00000  Uiso   1.00
H670   H     0.53829   0.39184   0.13965   0.00000  Uiso   1.00
H671   H     0.63310   0.40331   0.46345   0.00000  Uiso   1.00
H672   H     0.64217   0.24322   0.01845   0.00000  Uiso   1.00
H673   H     0.48085   0.42393   0.96188   0.00000  Uiso   1.00
H674   H     0.68077   0.44813   0.64468   0.00000  Uiso   1.00
H675   H     0.65618   0.41524   0.75837   0.00000  Uiso   1.00
H676   H     0.67720   0.35557   0.65502   0.00000  Uiso   1.00
H677   H     0.60069   0.44127   0.62818   0.00000  Uiso   1.00
H678   H     0.69550   0.45275   0.95198   0.00000  Uiso   1.00
H679   H     0.69281   0.28334   0.60332   0.00000  Uiso   1.00
H680   H     0.53149   0.46405   0.54676   0.00000  Uiso   1.00
H681   H     0.73142   0.48825   0.22955   0.00000  Uiso   1.00
O682   O     0.68024   0.22318   0.75162   0.00000  Uiso   1.00
O683   O     0.46860   0.46027   0.67743   0.00000  Uiso   1.00
O684   O     0.73089   0.49201   0.57323   0.00000  Uiso   1.00
N685   N     0.65121   0.26085   0.93495   0.00000  Uiso   1.00
N686   N     0.50039   0.42980   0.88205   0.00000  Uiso   1.00
N687   N     0.68729   0.45243   0.52041   0.00000  Uiso   1.00
N688   N     0.67846   0.28244   0.71158   0.00000  Uiso   1.00
N689   N     0.52764   0.45139   0.65867   0.00000  Uiso   1.00
N690   N     0.71454   0.47402   0.29703   0.00000  Uiso   1.00
C691   C     0.11058   0.87912   0.63215   0.00000  Uiso   1.00
C692   C     0.12844   0.85180   0.52323   0.00000  Uiso   1.00
C693   C     0.12828   0.81680   0.55607   0.00000  Uiso   1.00
C694   C     0.14615   0.79606   0.44103   0.00000  Uiso   1.00
C695   C     0.17123   0.75155   0.29356   0.00000  Uiso   1.00
C696   C     0.08687   0.89836   0.50863   0.00000  Uiso   1.00
C697   C     0.05175   0.90251   0.52921   0.00000  Uiso   1.00
C698   C     0.03464   0.92097   0.40189   0.00000  Uiso   1.00
C699   C     0.99518   0.94876   0.23182   0.00000  Uiso   1.00
C700   C     0.13838   0.90459   0.68456   0.00000  Uiso   1.00
C701   C     0.14658   0.91399   0.85306   0.00000  Uiso   1.00
C702   C     0.17283   0.93770   0.87386   0.00000  Uiso   1.00
C703   C     0.21335   0.97516   0.97695   0.00000  Uiso   1.00
C704   C     0.14262   0.90451   0.36946   0.00000  Uiso   1.00
C705   C     0.14585   0.86559   0.38055   0.00000  Uiso   1.00
C706   C     0.16373   0.84489   0.26543   0.00000  Uiso   1.00
C707   C     0.16359   0.80988   0.29809   0.00000  Uiso   1.00
C708   C     0.10427   0.91215   0.36595   0.00000  Uiso   1.00
C709   C     0.08721   0.93060   0.23858   0.00000  Uiso   1.00
C710   C     0.05208   0.93478   0.25895   0.00000  Uiso   1.00
C711   C     0.15579   0.91838   0.54188   0.00000  Uiso   1.00
C712   C     0.18203   0.94208   0.56242   0.00000  Uiso   1.00
C713   C     0.19026   0.95151   0.73092   0.00000  Uiso   1.00
H714   H     0.09703   0.86838   0.74323   0.00000  Uiso   1.00
H715   H     0.11480   0.80614   0.66649   0.00000  Uiso   1.00
H716   H     0.03829   0.89184   0.63965   0.00000  Uiso   1.00
H717   H     0.13310   0.90331   0.96345   0.00000  Uiso   1.00
H718   H     0.14217   0.74322   0.51845   0.00000  Uiso   1.00
H719   H     0.98085   0.92393   0.46188   0.00000  Uiso   1.00
H720   H     0.18077   0.94813   0.14468   0.00000  Uiso   1.00
H721   H     0.15618   0.91524   0.25837   0.00000  Uiso   1.00
H722   H     0.17720   0.85557   0.15502   0.00000  Uiso   1.00
H723   H     0.10069   0.94127   0.12818   0.00000  Uiso   1.00
H724   H     0.19550   0.95275   0.45198   0.00000  Uiso   1.00
H725   H     0.19281   0.78334   0.10332   0.00000  Uiso   1.00
H726   H     0.03149   0.96405   0.04676   0.00000  Uiso   1.00
H727   H     0.23142   0.98825   0.72955   0.00000  Uiso   1.00
O728   O     0.18024   0.72318   0.25162   0.00000  Uiso   1.00
O729   O     0.96860   0.96027   0.17743   0.00000  Uiso   1.00
O730   O     0.23089   0.99201   0.07323   0.00000  Uiso   1.00
N731   N     0.15121   0.76085   0.43495   0.00000  Uiso   1.00
N732   N     0.00039   0.92980   0.38205   0.00000  Uiso   1.00
N733   N     0.18729   0.95243   0.02041   0.00000  Uiso   1.00
N734   N     0.17846   0.78244   0.21158   0.00000  Uiso   1.00
N735   N     0.02764   0.95139   0.15867   0.00000  Uiso   1.00
N736   N     0.21454   0.97402   0.79703   0.00000  Uiso   1.00
