data_job_02777
_audit_creation_date              2018-12-19
_audit_creation_method            'Materials Studio'
_symmetry_space_group_name_H-M    'P1'
_symmetry_Int_Tables_number       1
_symmetry_cell_setting            triclinic
loop_
_symmetry_equiv_pos_as_xyz
  x,y,z
_cell_length_a                    11.4444
_cell_length_b                    30.8852
_cell_length_c                    27.2334
_cell_angle_alpha                 90.0000
_cell_angle_beta                  90.0000
_cell_angle_gamma                 90.0000
loop_
_atom_site_label
_atom_site_type_symbol
_atom_site_fract_x
_atom_site_fract_y
_atom_site_fract_z
_atom_site_U_iso_or_equiv
_atom_site_adp_type
_atom_site_occupancy
C1     C     0.44322   0.85869   0.54099   0.00000  Uiso   1.00
C2     C     0.34516   0.86481   0.50372   0.00000  Uiso   1.00
C3     C     0.22985   0.87480   0.51469   0.00000  Uiso   1.00
C4     C     0.15346   0.87904   0.47538   0.00000  Uiso   1.00
C5     C     0.99546   0.88936   0.42488   0.00000  Uiso   1.00
C6     C     0.49310   0.81367   0.53155   0.00000  Uiso   1.00
C7     C     0.50219   0.78067   0.56592   0.00000  Uiso   1.00
C8     C     0.55034   0.74186   0.55004   0.00000  Uiso   1.00
C9     C     0.62209   0.67280   0.54276   0.00000  Uiso   1.00
C10    C     0.53894   0.89057   0.52650   0.00000  Uiso   1.00
C11    C     0.58659   0.92222   0.55663   0.00000  Uiso   1.00
C12    C     0.67336   0.94815   0.53650   0.00000  Uiso   1.00
C13    C     0.81628   0.99849   0.52138   0.00000  Uiso   1.00
C14    C     0.51260   0.84846   0.45167   0.00000  Uiso   1.00
C15    C     0.38285   0.85925   0.45520   0.00000  Uiso   1.00
C16    C     0.30661   0.86347   0.41587   0.00000  Uiso   1.00
C17    C     0.19121   0.87347   0.42678   0.00000  Uiso   1.00
C18    C     0.53078   0.80811   0.48304   0.00000  Uiso   1.00
C19    C     0.57894   0.76934   0.46710   0.00000  Uiso   1.00
C20    C     0.58809   0.73628   0.50143   0.00000  Uiso   1.00
C21    C     0.57662   0.88501   0.47798   0.00000  Uiso   1.00
C22    C     0.66334   0.91089   0.45781   0.00000  Uiso   1.00
C23    C     0.71111   0.94258   0.48790   0.00000  Uiso   1.00
H24    H     0.41388   0.86302   0.57877   0.00000  Uiso   1.00
H25    H     0.20072   0.87910   0.55224   0.00000  Uiso   1.00
H26    H     0.47303   0.78498   0.60346   0.00000  Uiso   1.00
H27    H     0.55741   0.92652   0.59417   0.00000  Uiso   1.00
H28    H     0.98100   0.89446   0.50144   0.00000  Uiso   1.00
H29    H     0.55520   0.69601   0.60945   0.00000  Uiso   1.00
H30    H     0.73315   0.99446   0.58986   0.00000  Uiso   1.00
H31    H     0.54194   0.84412   0.41390   0.00000  Uiso   1.00
H32    H     0.33580   0.85917   0.37833   0.00000  Uiso   1.00
H33    H     0.60810   0.76505   0.42955   0.00000  Uiso   1.00
H34    H     0.69248   0.90658   0.42026   0.00000  Uiso   1.00
H35    H     0.09063   0.87828   0.36028   0.00000  Uiso   1.00
H36    H     0.66484   0.67983   0.46830   0.00000  Uiso   1.00
H37    H     0.84278   0.97828   0.44870   0.00000  Uiso   1.00
O38    O     0.89790   0.89659   0.41044   0.00000  Uiso   1.00
O39    O     0.65124   0.63624   0.55215   0.00000  Uiso   1.00
O40    O     0.88469   0.02780   0.52644   0.00000  Uiso   1.00
N41    N     0.03510   0.88859   0.47310   0.00000  Uiso   1.00
N42    N     0.57193   0.70306   0.57408   0.00000  Uiso   1.00
N43    N     0.73831   0.98207   0.55577   0.00000  Uiso   1.00
N44    N     0.09409   0.87989   0.39714   0.00000  Uiso   1.00
N45    N     0.63092   0.69435   0.49813   0.00000  Uiso   1.00
N46    N     0.79730   0.97337   0.47982   0.00000  Uiso   1.00
C47    C     0.44322   0.35869   0.04099   0.00000  Uiso   1.00
C48    C     0.34516   0.36481   0.00372   0.00000  Uiso   1.00
C49    C     0.22985   0.37480   0.01469   0.00000  Uiso   1.00
C50    C     0.15346   0.37904   0.97538   0.00000  Uiso   1.00
C51    C     0.99546   0.38936   0.92488   0.00000  Uiso   1.00
C52    C     0.49310   0.31367   0.03155   0.00000  Uiso   1.00
C53    C     0.50219   0.28067   0.06592   0.00000  Uiso   1.00
C54    C     0.55034   0.24186   0.05004   0.00000  Uiso   1.00
C55    C     0.62209   0.17280   0.04276   0.00000  Uiso   1.00
C56    C     0.53894   0.39057   0.02650   0.00000  Uiso   1.00
C57    C     0.58659   0.42222   0.05663   0.00000  Uiso   1.00
C58    C     0.67336   0.44815   0.03650   0.00000  Uiso   1.00
C59    C     0.81628   0.49849   0.02138   0.00000  Uiso   1.00
C60    C     0.51260   0.34846   0.95167   0.00000  Uiso   1.00
C61    C     0.38285   0.35925   0.95520   0.00000  Uiso   1.00
C62    C     0.30661   0.36347   0.91587   0.00000  Uiso   1.00
C63    C     0.19121   0.37347   0.92678   0.00000  Uiso   1.00
C64    C     0.53078   0.30811   0.98304   0.00000  Uiso   1.00
C65    C     0.57894   0.26934   0.96710   0.00000  Uiso   1.00
C66    C     0.58809   0.23628   0.00143   0.00000  Uiso   1.00
C67    C     0.57662   0.38501   0.97798   0.00000  Uiso   1.00
C68    C     0.66334   0.41089   0.95781   0.00000  Uiso   1.00
C69    C     0.71111   0.44258   0.98790   0.00000  Uiso   1.00
H70    H     0.41388   0.36302   0.07877   0.00000  Uiso   1.00
H71    H     0.20072   0.37910   0.05224   0.00000  Uiso   1.00
H72    H     0.47303   0.28498   0.10346   0.00000  Uiso   1.00
H73    H     0.55741   0.42652   0.09417   0.00000  Uiso   1.00
H74    H     0.98100   0.39446   0.00144   0.00000  Uiso   1.00
H75    H     0.55520   0.19601   0.10945   0.00000  Uiso   1.00
H76    H     0.73315   0.49446   0.08986   0.00000  Uiso   1.00
H77    H     0.54194   0.34412   0.91390   0.00000  Uiso   1.00
H78    H     0.33580   0.35917   0.87833   0.00000  Uiso   1.00
H79    H     0.60810   0.26505   0.92955   0.00000  Uiso   1.00
H80    H     0.69248   0.40658   0.92026   0.00000  Uiso   1.00
H81    H     0.09063   0.37828   0.86028   0.00000  Uiso   1.00
H82    H     0.66484   0.17983   0.96830   0.00000  Uiso   1.00
H83    H     0.84278   0.47828   0.94870   0.00000  Uiso   1.00
O84    O     0.89790   0.39659   0.91044   0.00000  Uiso   1.00
O85    O     0.65124   0.13624   0.05215   0.00000  Uiso   1.00
O86    O     0.88469   0.52780   0.02644   0.00000  Uiso   1.00
N87    N     0.03510   0.38859   0.97310   0.00000  Uiso   1.00
N88    N     0.57193   0.20306   0.07408   0.00000  Uiso   1.00
N89    N     0.73831   0.48207   0.05577   0.00000  Uiso   1.00
N90    N     0.09409   0.37989   0.89714   0.00000  Uiso   1.00
N91    N     0.63092   0.19435   0.99813   0.00000  Uiso   1.00
N92    N     0.79730   0.47337   0.97982   0.00000  Uiso   1.00
C93    C     0.94322   0.85869   0.04099   0.00000  Uiso   1.00
C94    C     0.84516   0.86481   0.00372   0.00000  Uiso   1.00
C95    C     0.72985   0.87480   0.01469   0.00000  Uiso   1.00
C96    C     0.65346   0.87904   0.97538   0.00000  Uiso   1.00
C97    C     0.49546   0.88936   0.92488   0.00000  Uiso   1.00
C98    C     0.99310   0.81367   0.03155   0.00000  Uiso   1.00
C99    C     0.00219   0.78067   0.06592   0.00000  Uiso   1.00
C100   C     0.05034   0.74186   0.05004   0.00000  Uiso   1.00
C101   C     0.12209   0.67280   0.04276   0.00000  Uiso   1.00
C102   C     0.03894   0.89057   0.02650   0.00000  Uiso   1.00
C103   C     0.08659   0.92222   0.05663   0.00000  Uiso   1.00
C104   C     0.17336   0.94815   0.03650   0.00000  Uiso   1.00
C105   C     0.31628   0.99849   0.02138   0.00000  Uiso   1.00
C106   C     0.01260   0.84846   0.95167   0.00000  Uiso   1.00
C107   C     0.88285   0.85925   0.95520   0.00000  Uiso   1.00
C108   C     0.80661   0.86347   0.91587   0.00000  Uiso   1.00
C109   C     0.69121   0.87347   0.92678   0.00000  Uiso   1.00
C110   C     0.03078   0.80811   0.98304   0.00000  Uiso   1.00
C111   C     0.07894   0.76934   0.96710   0.00000  Uiso   1.00
C112   C     0.08809   0.73628   0.00143   0.00000  Uiso   1.00
C113   C     0.07662   0.88501   0.97798   0.00000  Uiso   1.00
C114   C     0.16334   0.91089   0.95781   0.00000  Uiso   1.00
C115   C     0.21111   0.94258   0.98790   0.00000  Uiso   1.00
H116   H     0.91388   0.86302   0.07877   0.00000  Uiso   1.00
H117   H     0.70072   0.87910   0.05224   0.00000  Uiso   1.00
H118   H     0.97303   0.78498   0.10346   0.00000  Uiso   1.00
H119   H     0.05741   0.92652   0.09417   0.00000  Uiso   1.00
H120   H     0.48100   0.89446   0.00144   0.00000  Uiso   1.00
H121   H     0.05520   0.69601   0.10945   0.00000  Uiso   1.00
H122   H     0.23315   0.99446   0.08986   0.00000  Uiso   1.00
H123   H     0.04194   0.84412   0.91390   0.00000  Uiso   1.00
H124   H     0.83580   0.85917   0.87833   0.00000  Uiso   1.00
H125   H     0.10810   0.76505   0.92955   0.00000  Uiso   1.00
H126   H     0.19248   0.90658   0.92026   0.00000  Uiso   1.00
H127   H     0.59063   0.87828   0.86028   0.00000  Uiso   1.00
H128   H     0.16484   0.67983   0.96830   0.00000  Uiso   1.00
H129   H     0.34278   0.97828   0.94870   0.00000  Uiso   1.00
O130   O     0.39790   0.89659   0.91044   0.00000  Uiso   1.00
O131   O     0.15124   0.63624   0.05215   0.00000  Uiso   1.00
O132   O     0.38469   0.02780   0.02644   0.00000  Uiso   1.00
N133   N     0.53510   0.88859   0.97310   0.00000  Uiso   1.00
N134   N     0.07193   0.70306   0.07408   0.00000  Uiso   1.00
N135   N     0.23831   0.98207   0.05577   0.00000  Uiso   1.00
N136   N     0.59409   0.87989   0.89714   0.00000  Uiso   1.00
N137   N     0.13092   0.69435   0.99813   0.00000  Uiso   1.00
N138   N     0.29730   0.97337   0.97982   0.00000  Uiso   1.00
C139   C     0.94322   0.35869   0.54099   0.00000  Uiso   1.00
C140   C     0.84516   0.36481   0.50372   0.00000  Uiso   1.00
C141   C     0.72985   0.37480   0.51469   0.00000  Uiso   1.00
C142   C     0.65346   0.37904   0.47538   0.00000  Uiso   1.00
C143   C     0.49546   0.38936   0.42488   0.00000  Uiso   1.00
C144   C     0.99310   0.31367   0.53155   0.00000  Uiso   1.00
C145   C     0.00219   0.28067   0.56592   0.00000  Uiso   1.00
C146   C     0.05034   0.24186   0.55004   0.00000  Uiso   1.00
C147   C     0.12209   0.17280   0.54276   0.00000  Uiso   1.00
C148   C     0.03894   0.39057   0.52650   0.00000  Uiso   1.00
C149   C     0.08659   0.42222   0.55663   0.00000  Uiso   1.00
C150   C     0.17336   0.44815   0.53650   0.00000  Uiso   1.00
C151   C     0.31628   0.49849   0.52138   0.00000  Uiso   1.00
C152   C     0.01260   0.34846   0.45167   0.00000  Uiso   1.00
C153   C     0.88285   0.35925   0.45520   0.00000  Uiso   1.00
C154   C     0.80661   0.36347   0.41587   0.00000  Uiso   1.00
C155   C     0.69121   0.37347   0.42678   0.00000  Uiso   1.00
C156   C     0.03078   0.30811   0.48304   0.00000  Uiso   1.00
C157   C     0.07894   0.26934   0.46710   0.00000  Uiso   1.00
C158   C     0.08809   0.23628   0.50143   0.00000  Uiso   1.00
C159   C     0.07662   0.38501   0.47798   0.00000  Uiso   1.00
C160   C     0.16334   0.41089   0.45781   0.00000  Uiso   1.00
C161   C     0.21111   0.44258   0.48790   0.00000  Uiso   1.00
H162   H     0.91388   0.36302   0.57877   0.00000  Uiso   1.00
H163   H     0.70072   0.37910   0.55224   0.00000  Uiso   1.00
H164   H     0.97303   0.28498   0.60346   0.00000  Uiso   1.00
H165   H     0.05741   0.42652   0.59417   0.00000  Uiso   1.00
H166   H     0.48100   0.39446   0.50144   0.00000  Uiso   1.00
H167   H     0.05520   0.19601   0.60945   0.00000  Uiso   1.00
H168   H     0.23315   0.49446   0.58986   0.00000  Uiso   1.00
H169   H     0.04194   0.34412   0.41390   0.00000  Uiso   1.00
H170   H     0.83580   0.35917   0.37833   0.00000  Uiso   1.00
H171   H     0.10810   0.26505   0.42955   0.00000  Uiso   1.00
H172   H     0.19248   0.40658   0.42026   0.00000  Uiso   1.00
H173   H     0.59063   0.37828   0.36028   0.00000  Uiso   1.00
H174   H     0.16484   0.17983   0.46830   0.00000  Uiso   1.00
H175   H     0.34278   0.47828   0.44870   0.00000  Uiso   1.00
O176   O     0.39790   0.39659   0.41044   0.00000  Uiso   1.00
O177   O     0.15124   0.13624   0.55215   0.00000  Uiso   1.00
O178   O     0.38469   0.52780   0.52644   0.00000  Uiso   1.00
N179   N     0.53510   0.38859   0.47310   0.00000  Uiso   1.00
N180   N     0.07193   0.20306   0.57408   0.00000  Uiso   1.00
N181   N     0.23831   0.48207   0.55577   0.00000  Uiso   1.00
N182   N     0.59409   0.37989   0.39714   0.00000  Uiso   1.00
N183   N     0.13092   0.19435   0.49813   0.00000  Uiso   1.00
N184   N     0.29730   0.47337   0.47982   0.00000  Uiso   1.00
C185   C     0.55678   0.14131   0.54099   0.00000  Uiso   1.00
C186   C     0.65484   0.13519   0.50372   0.00000  Uiso   1.00
C187   C     0.77015   0.12520   0.51469   0.00000  Uiso   1.00
C188   C     0.84654   0.12096   0.47538   0.00000  Uiso   1.00
C189   C     0.00454   0.11064   0.42488   0.00000  Uiso   1.00
C190   C     0.50690   0.18633   0.53155   0.00000  Uiso   1.00
C191   C     0.49781   0.21933   0.56592   0.00000  Uiso   1.00
C192   C     0.44966   0.25814   0.55004   0.00000  Uiso   1.00
C193   C     0.37791   0.32720   0.54276   0.00000  Uiso   1.00
C194   C     0.46106   0.10943   0.52650   0.00000  Uiso   1.00
C195   C     0.41341   0.07778   0.55663   0.00000  Uiso   1.00
C196   C     0.32664   0.05185   0.53650   0.00000  Uiso   1.00
C197   C     0.18372   0.00151   0.52138   0.00000  Uiso   1.00
C198   C     0.48740   0.15154   0.45167   0.00000  Uiso   1.00
C199   C     0.61715   0.14075   0.45520   0.00000  Uiso   1.00
C200   C     0.69339   0.13653   0.41587   0.00000  Uiso   1.00
C201   C     0.80879   0.12653   0.42678   0.00000  Uiso   1.00
C202   C     0.46922   0.19189   0.48304   0.00000  Uiso   1.00
C203   C     0.42106   0.23066   0.46710   0.00000  Uiso   1.00
C204   C     0.41191   0.26372   0.50143   0.00000  Uiso   1.00
C205   C     0.42338   0.11499   0.47798   0.00000  Uiso   1.00
C206   C     0.33666   0.08911   0.45781   0.00000  Uiso   1.00
C207   C     0.28889   0.05742   0.48790   0.00000  Uiso   1.00
H208   H     0.58612   0.13698   0.57877   0.00000  Uiso   1.00
H209   H     0.79928   0.12090   0.55224   0.00000  Uiso   1.00
H210   H     0.52697   0.21502   0.60346   0.00000  Uiso   1.00
H211   H     0.44259   0.07348   0.59417   0.00000  Uiso   1.00
H212   H     0.01900   0.10554   0.50144   0.00000  Uiso   1.00
H213   H     0.44480   0.30399   0.60945   0.00000  Uiso   1.00
H214   H     0.26685   0.00554   0.58986   0.00000  Uiso   1.00
H215   H     0.45806   0.15588   0.41390   0.00000  Uiso   1.00
H216   H     0.66420   0.14083   0.37833   0.00000  Uiso   1.00
H217   H     0.39190   0.23495   0.42955   0.00000  Uiso   1.00
H218   H     0.30752   0.09342   0.42026   0.00000  Uiso   1.00
H219   H     0.90937   0.12172   0.36028   0.00000  Uiso   1.00
H220   H     0.33516   0.32017   0.46830   0.00000  Uiso   1.00
H221   H     0.15722   0.02172   0.44870   0.00000  Uiso   1.00
O222   O     0.10210   0.10341   0.41044   0.00000  Uiso   1.00
O223   O     0.34876   0.36376   0.55215   0.00000  Uiso   1.00
O224   O     0.11531   0.97220   0.52644   0.00000  Uiso   1.00
N225   N     0.96490   0.11141   0.47310   0.00000  Uiso   1.00
N226   N     0.42807   0.29694   0.57408   0.00000  Uiso   1.00
N227   N     0.26169   0.01793   0.55577   0.00000  Uiso   1.00
N228   N     0.90591   0.12011   0.39714   0.00000  Uiso   1.00
N229   N     0.36908   0.30565   0.49813   0.00000  Uiso   1.00
N230   N     0.20270   0.02663   0.47982   0.00000  Uiso   1.00
C231   C     0.55678   0.64131   0.04099   0.00000  Uiso   1.00
C232   C     0.65484   0.63519   0.00372   0.00000  Uiso   1.00
C233   C     0.77015   0.62520   0.01469   0.00000  Uiso   1.00
C234   C     0.84654   0.62096   0.97538   0.00000  Uiso   1.00
C235   C     0.00454   0.61064   0.92488   0.00000  Uiso   1.00
C236   C     0.50690   0.68633   0.03155   0.00000  Uiso   1.00
C237   C     0.49781   0.71933   0.06592   0.00000  Uiso   1.00
C238   C     0.44966   0.75814   0.05004   0.00000  Uiso   1.00
C239   C     0.37791   0.82720   0.04276   0.00000  Uiso   1.00
C240   C     0.46106   0.60943   0.02650   0.00000  Uiso   1.00
C241   C     0.41341   0.57778   0.05663   0.00000  Uiso   1.00
C242   C     0.32664   0.55185   0.03650   0.00000  Uiso   1.00
C243   C     0.18372   0.50151   0.02138   0.00000  Uiso   1.00
C244   C     0.48740   0.65154   0.95167   0.00000  Uiso   1.00
C245   C     0.61715   0.64075   0.95520   0.00000  Uiso   1.00
C246   C     0.69339   0.63653   0.91587   0.00000  Uiso   1.00
C247   C     0.80879   0.62653   0.92678   0.00000  Uiso   1.00
C248   C     0.46922   0.69189   0.98304   0.00000  Uiso   1.00
C249   C     0.42106   0.73066   0.96710   0.00000  Uiso   1.00
C250   C     0.41191   0.76372   0.00143   0.00000  Uiso   1.00
C251   C     0.42338   0.61499   0.97798   0.00000  Uiso   1.00
C252   C     0.33666   0.58911   0.95781   0.00000  Uiso   1.00
C253   C     0.28889   0.55742   0.98790   0.00000  Uiso   1.00
H254   H     0.58612   0.63698   0.07877   0.00000  Uiso   1.00
H255   H     0.79928   0.62090   0.05224   0.00000  Uiso   1.00
H256   H     0.52697   0.71502   0.10346   0.00000  Uiso   1.00
H257   H     0.44259   0.57348   0.09417   0.00000  Uiso   1.00
H258   H     0.01900   0.60554   0.00144   0.00000  Uiso   1.00
H259   H     0.44480   0.80399   0.10945   0.00000  Uiso   1.00
H260   H     0.26685   0.50554   0.08986   0.00000  Uiso   1.00
H261   H     0.45806   0.65588   0.91390   0.00000  Uiso   1.00
H262   H     0.66420   0.64083   0.87833   0.00000  Uiso   1.00
H263   H     0.39190   0.73495   0.92955   0.00000  Uiso   1.00
H264   H     0.30752   0.59342   0.92026   0.00000  Uiso   1.00
H265   H     0.90937   0.62172   0.86028   0.00000  Uiso   1.00
H266   H     0.33516   0.82017   0.96830   0.00000  Uiso   1.00
H267   H     0.15722   0.52172   0.94870   0.00000  Uiso   1.00
O268   O     0.10210   0.60341   0.91044   0.00000  Uiso   1.00
O269   O     0.34876   0.86376   0.05215   0.00000  Uiso   1.00
O270   O     0.11531   0.47220   0.02644   0.00000  Uiso   1.00
N271   N     0.96490   0.61141   0.97310   0.00000  Uiso   1.00
N272   N     0.42807   0.79694   0.07408   0.00000  Uiso   1.00
N273   N     0.26169   0.51793   0.05577   0.00000  Uiso   1.00
N274   N     0.90591   0.62011   0.89714   0.00000  Uiso   1.00
N275   N     0.36908   0.80565   0.99813   0.00000  Uiso   1.00
N276   N     0.20270   0.52663   0.97982   0.00000  Uiso   1.00
C277   C     0.05678   0.14131   0.04099   0.00000  Uiso   1.00
C278   C     0.15484   0.13519   0.00372   0.00000  Uiso   1.00
C279   C     0.27015   0.12520   0.01469   0.00000  Uiso   1.00
C280   C     0.34654   0.12096   0.97538   0.00000  Uiso   1.00
C281   C     0.50454   0.11064   0.92488   0.00000  Uiso   1.00
C282   C     0.00690   0.18633   0.03155   0.00000  Uiso   1.00
C283   C     0.99781   0.21933   0.06592   0.00000  Uiso   1.00
C284   C     0.94966   0.25814   0.05004   0.00000  Uiso   1.00
C285   C     0.87791   0.32720   0.04276   0.00000  Uiso   1.00
C286   C     0.96106   0.10943   0.02650   0.00000  Uiso   1.00
C287   C     0.91341   0.07778   0.05663   0.00000  Uiso   1.00
C288   C     0.82664   0.05185   0.03650   0.00000  Uiso   1.00
C289   C     0.68372   0.00151   0.02138   0.00000  Uiso   1.00
C290   C     0.98740   0.15154   0.95167   0.00000  Uiso   1.00
C291   C     0.11715   0.14075   0.95520   0.00000  Uiso   1.00
C292   C     0.19339   0.13653   0.91587   0.00000  Uiso   1.00
C293   C     0.30879   0.12653   0.92678   0.00000  Uiso   1.00
C294   C     0.96922   0.19189   0.98304   0.00000  Uiso   1.00
C295   C     0.92106   0.23066   0.96710   0.00000  Uiso   1.00
C296   C     0.91191   0.26372   0.00143   0.00000  Uiso   1.00
C297   C     0.92338   0.11499   0.97798   0.00000  Uiso   1.00
C298   C     0.83666   0.08911   0.95781   0.00000  Uiso   1.00
C299   C     0.78889   0.05742   0.98790   0.00000  Uiso   1.00
H300   H     0.08612   0.13698   0.07877   0.00000  Uiso   1.00
H301   H     0.29928   0.12090   0.05224   0.00000  Uiso   1.00
H302   H     0.02697   0.21502   0.10346   0.00000  Uiso   1.00
H303   H     0.94259   0.07348   0.09417   0.00000  Uiso   1.00
H304   H     0.51900   0.10554   0.00144   0.00000  Uiso   1.00
H305   H     0.94480   0.30399   0.10945   0.00000  Uiso   1.00
H306   H     0.76685   0.00554   0.08986   0.00000  Uiso   1.00
H307   H     0.95806   0.15588   0.91390   0.00000  Uiso   1.00
H308   H     0.16420   0.14083   0.87833   0.00000  Uiso   1.00
H309   H     0.89190   0.23495   0.92955   0.00000  Uiso   1.00
H310   H     0.80752   0.09342   0.92026   0.00000  Uiso   1.00
H311   H     0.40937   0.12172   0.86028   0.00000  Uiso   1.00
H312   H     0.83516   0.32017   0.96830   0.00000  Uiso   1.00
H313   H     0.65722   0.02172   0.94870   0.00000  Uiso   1.00
O314   O     0.60210   0.10341   0.91044   0.00000  Uiso   1.00
O315   O     0.84876   0.36376   0.05215   0.00000  Uiso   1.00
O316   O     0.61531   0.97220   0.02644   0.00000  Uiso   1.00
N317   N     0.46490   0.11141   0.97310   0.00000  Uiso   1.00
N318   N     0.92807   0.29694   0.07408   0.00000  Uiso   1.00
N319   N     0.76169   0.01793   0.05577   0.00000  Uiso   1.00
N320   N     0.40591   0.12011   0.89714   0.00000  Uiso   1.00
N321   N     0.86908   0.30565   0.99813   0.00000  Uiso   1.00
N322   N     0.70270   0.02663   0.97982   0.00000  Uiso   1.00
C323   C     0.05678   0.64131   0.54099   0.00000  Uiso   1.00
C324   C     0.15484   0.63519   0.50372   0.00000  Uiso   1.00
C325   C     0.27015   0.62520   0.51469   0.00000  Uiso   1.00
C326   C     0.34654   0.62096   0.47538   0.00000  Uiso   1.00
C327   C     0.50454   0.61064   0.42488   0.00000  Uiso   1.00
C328   C     0.00690   0.68633   0.53155   0.00000  Uiso   1.00
C329   C     0.99781   0.71933   0.56592   0.00000  Uiso   1.00
C330   C     0.94966   0.75814   0.55004   0.00000  Uiso   1.00
C331   C     0.87791   0.82720   0.54276   0.00000  Uiso   1.00
C332   C     0.96106   0.60943   0.52650   0.00000  Uiso   1.00
C333   C     0.91341   0.57778   0.55663   0.00000  Uiso   1.00
C334   C     0.82664   0.55185   0.53650   0.00000  Uiso   1.00
C335   C     0.68372   0.50151   0.52138   0.00000  Uiso   1.00
C336   C     0.98740   0.65154   0.45167   0.00000  Uiso   1.00
C337   C     0.11715   0.64075   0.45520   0.00000  Uiso   1.00
C338   C     0.19339   0.63653   0.41587   0.00000  Uiso   1.00
C339   C     0.30879   0.62653   0.42678   0.00000  Uiso   1.00
C340   C     0.96922   0.69189   0.48304   0.00000  Uiso   1.00
C341   C     0.92106   0.73066   0.46710   0.00000  Uiso   1.00
C342   C     0.91191   0.76372   0.50143   0.00000  Uiso   1.00
C343   C     0.92338   0.61499   0.47798   0.00000  Uiso   1.00
C344   C     0.83666   0.58911   0.45781   0.00000  Uiso   1.00
C345   C     0.78889   0.55742   0.48790   0.00000  Uiso   1.00
H346   H     0.08612   0.63698   0.57877   0.00000  Uiso   1.00
H347   H     0.29928   0.62090   0.55224   0.00000  Uiso   1.00
H348   H     0.02697   0.71502   0.60346   0.00000  Uiso   1.00
H349   H     0.94259   0.57348   0.59417   0.00000  Uiso   1.00
H350   H     0.51900   0.60554   0.50144   0.00000  Uiso   1.00
H351   H     0.94480   0.80399   0.60945   0.00000  Uiso   1.00
H352   H     0.76685   0.50554   0.58986   0.00000  Uiso   1.00
H353   H     0.95806   0.65588   0.41390   0.00000  Uiso   1.00
H354   H     0.16420   0.64083   0.37833   0.00000  Uiso   1.00
H355   H     0.89190   0.73495   0.42955   0.00000  Uiso   1.00
H356   H     0.80752   0.59342   0.42026   0.00000  Uiso   1.00
H357   H     0.40937   0.62172   0.36028   0.00000  Uiso   1.00
H358   H     0.83516   0.82017   0.46830   0.00000  Uiso   1.00
H359   H     0.65722   0.52172   0.44870   0.00000  Uiso   1.00
O360   O     0.60210   0.60341   0.41044   0.00000  Uiso   1.00
O361   O     0.84876   0.86376   0.55215   0.00000  Uiso   1.00
O362   O     0.61531   0.47220   0.52644   0.00000  Uiso   1.00
N363   N     0.46490   0.61141   0.47310   0.00000  Uiso   1.00
N364   N     0.92807   0.79694   0.57408   0.00000  Uiso   1.00
N365   N     0.76169   0.51793   0.55577   0.00000  Uiso   1.00
N366   N     0.40591   0.62011   0.39714   0.00000  Uiso   1.00
N367   N     0.86908   0.80565   0.49813   0.00000  Uiso   1.00
N368   N     0.70270   0.52663   0.47982   0.00000  Uiso   1.00
C369   C     0.69322   0.39131   0.79099   0.00000  Uiso   1.00
C370   C     0.59516   0.38519   0.75372   0.00000  Uiso   1.00
C371   C     0.47985   0.37520   0.76469   0.00000  Uiso   1.00
C372   C     0.40346   0.37096   0.72538   0.00000  Uiso   1.00
C373   C     0.24546   0.36064   0.67488   0.00000  Uiso   1.00
C374   C     0.74310   0.43633   0.78155   0.00000  Uiso   1.00
C375   C     0.75219   0.46933   0.81592   0.00000  Uiso   1.00
C376   C     0.80034   0.50814   0.80004   0.00000  Uiso   1.00
C377   C     0.87209   0.57720   0.79276   0.00000  Uiso   1.00
C378   C     0.78894   0.35943   0.77650   0.00000  Uiso   1.00
C379   C     0.83659   0.32778   0.80663   0.00000  Uiso   1.00
C380   C     0.92336   0.30185   0.78650   0.00000  Uiso   1.00
C381   C     0.06628   0.25151   0.77138   0.00000  Uiso   1.00
C382   C     0.76260   0.40154   0.70167   0.00000  Uiso   1.00
C383   C     0.63285   0.39075   0.70520   0.00000  Uiso   1.00
C384   C     0.55661   0.38653   0.66587   0.00000  Uiso   1.00
C385   C     0.44121   0.37653   0.67678   0.00000  Uiso   1.00
C386   C     0.78078   0.44189   0.73304   0.00000  Uiso   1.00
C387   C     0.82894   0.48066   0.71710   0.00000  Uiso   1.00
C388   C     0.83809   0.51372   0.75143   0.00000  Uiso   1.00
C389   C     0.82662   0.36499   0.72798   0.00000  Uiso   1.00
C390   C     0.91334   0.33911   0.70781   0.00000  Uiso   1.00
C391   C     0.96111   0.30742   0.73790   0.00000  Uiso   1.00
H392   H     0.66388   0.38698   0.82877   0.00000  Uiso   1.00
H393   H     0.45072   0.37090   0.80224   0.00000  Uiso   1.00
H394   H     0.72303   0.46502   0.85346   0.00000  Uiso   1.00
H395   H     0.80741   0.32348   0.84417   0.00000  Uiso   1.00
H396   H     0.23100   0.35554   0.75144   0.00000  Uiso   1.00
H397   H     0.80520   0.55399   0.85945   0.00000  Uiso   1.00
H398   H     0.98315   0.25554   0.83986   0.00000  Uiso   1.00
H399   H     0.79194   0.40588   0.66390   0.00000  Uiso   1.00
H400   H     0.58580   0.39083   0.62833   0.00000  Uiso   1.00
H401   H     0.85810   0.48495   0.67955   0.00000  Uiso   1.00
H402   H     0.94248   0.34342   0.67026   0.00000  Uiso   1.00
H403   H     0.34063   0.37172   0.61028   0.00000  Uiso   1.00
H404   H     0.91484   0.57017   0.71830   0.00000  Uiso   1.00
H405   H     0.09278   0.27172   0.69870   0.00000  Uiso   1.00
O406   O     0.14790   0.35341   0.66044   0.00000  Uiso   1.00
O407   O     0.90124   0.61376   0.80215   0.00000  Uiso   1.00
O408   O     0.13469   0.22220   0.77644   0.00000  Uiso   1.00
N409   N     0.28510   0.36141   0.72310   0.00000  Uiso   1.00
N410   N     0.82193   0.54694   0.82408   0.00000  Uiso   1.00
N411   N     0.98831   0.26793   0.80577   0.00000  Uiso   1.00
N412   N     0.34409   0.37011   0.64714   0.00000  Uiso   1.00
N413   N     0.88092   0.55565   0.74813   0.00000  Uiso   1.00
N414   N     0.04730   0.27663   0.72982   0.00000  Uiso   1.00
C415   C     0.69322   0.89131   0.29099   0.00000  Uiso   1.00
C416   C     0.59516   0.88519   0.25372   0.00000  Uiso   1.00
C417   C     0.47985   0.87520   0.26469   0.00000  Uiso   1.00
C418   C     0.40346   0.87096   0.22538   0.00000  Uiso   1.00
C419   C     0.24546   0.86064   0.17488   0.00000  Uiso   1.00
C420   C     0.74310   0.93633   0.28155   0.00000  Uiso   1.00
C421   C     0.75219   0.96933   0.31592   0.00000  Uiso   1.00
C422   C     0.80034   0.00814   0.30004   0.00000  Uiso   1.00
C423   C     0.87209   0.07720   0.29276   0.00000  Uiso   1.00
C424   C     0.78894   0.85943   0.27650   0.00000  Uiso   1.00
C425   C     0.83659   0.82778   0.30663   0.00000  Uiso   1.00
C426   C     0.92336   0.80185   0.28650   0.00000  Uiso   1.00
C427   C     0.06628   0.75151   0.27138   0.00000  Uiso   1.00
C428   C     0.76260   0.90154   0.20167   0.00000  Uiso   1.00
C429   C     0.63285   0.89075   0.20520   0.00000  Uiso   1.00
C430   C     0.55661   0.88653   0.16587   0.00000  Uiso   1.00
C431   C     0.44121   0.87653   0.17678   0.00000  Uiso   1.00
C432   C     0.78078   0.94189   0.23304   0.00000  Uiso   1.00
C433   C     0.82894   0.98066   0.21710   0.00000  Uiso   1.00
C434   C     0.83809   0.01372   0.25143   0.00000  Uiso   1.00
C435   C     0.82662   0.86499   0.22798   0.00000  Uiso   1.00
C436   C     0.91334   0.83911   0.20781   0.00000  Uiso   1.00
C437   C     0.96111   0.80742   0.23790   0.00000  Uiso   1.00
H438   H     0.66388   0.88698   0.32877   0.00000  Uiso   1.00
H439   H     0.45072   0.87090   0.30224   0.00000  Uiso   1.00
H440   H     0.72303   0.96502   0.35346   0.00000  Uiso   1.00
H441   H     0.80741   0.82348   0.34417   0.00000  Uiso   1.00
H442   H     0.23100   0.85554   0.25144   0.00000  Uiso   1.00
H443   H     0.80520   0.05399   0.35945   0.00000  Uiso   1.00
H444   H     0.98315   0.75554   0.33986   0.00000  Uiso   1.00
H445   H     0.79194   0.90588   0.16390   0.00000  Uiso   1.00
H446   H     0.58580   0.89083   0.12833   0.00000  Uiso   1.00
H447   H     0.85810   0.98495   0.17955   0.00000  Uiso   1.00
H448   H     0.94248   0.84342   0.17026   0.00000  Uiso   1.00
H449   H     0.34063   0.87172   0.11028   0.00000  Uiso   1.00
H450   H     0.91484   0.07017   0.21830   0.00000  Uiso   1.00
H451   H     0.09278   0.77172   0.19870   0.00000  Uiso   1.00
O452   O     0.14790   0.85341   0.16044   0.00000  Uiso   1.00
O453   O     0.90124   0.11376   0.30215   0.00000  Uiso   1.00
O454   O     0.13469   0.72220   0.27644   0.00000  Uiso   1.00
N455   N     0.28510   0.86141   0.22310   0.00000  Uiso   1.00
N456   N     0.82193   0.04694   0.32408   0.00000  Uiso   1.00
N457   N     0.98831   0.76793   0.30577   0.00000  Uiso   1.00
N458   N     0.34409   0.87011   0.14714   0.00000  Uiso   1.00
N459   N     0.88092   0.05565   0.24813   0.00000  Uiso   1.00
N460   N     0.04730   0.77663   0.22982   0.00000  Uiso   1.00
C461   C     0.19322   0.39131   0.29099   0.00000  Uiso   1.00
C462   C     0.09516   0.38519   0.25372   0.00000  Uiso   1.00
C463   C     0.97985   0.37520   0.26469   0.00000  Uiso   1.00
C464   C     0.90346   0.37096   0.22538   0.00000  Uiso   1.00
C465   C     0.74546   0.36064   0.17488   0.00000  Uiso   1.00
C466   C     0.24310   0.43633   0.28155   0.00000  Uiso   1.00
C467   C     0.25219   0.46933   0.31592   0.00000  Uiso   1.00
C468   C     0.30034   0.50814   0.30004   0.00000  Uiso   1.00
C469   C     0.37209   0.57720   0.29276   0.00000  Uiso   1.00
C470   C     0.28894   0.35943   0.27650   0.00000  Uiso   1.00
C471   C     0.33659   0.32778   0.30663   0.00000  Uiso   1.00
C472   C     0.42336   0.30185   0.28650   0.00000  Uiso   1.00
C473   C     0.56628   0.25151   0.27138   0.00000  Uiso   1.00
C474   C     0.26260   0.40154   0.20167   0.00000  Uiso   1.00
C475   C     0.13285   0.39075   0.20520   0.00000  Uiso   1.00
C476   C     0.05661   0.38653   0.16587   0.00000  Uiso   1.00
C477   C     0.94121   0.37653   0.17678   0.00000  Uiso   1.00
C478   C     0.28078   0.44189   0.23304   0.00000  Uiso   1.00
C479   C     0.32894   0.48066   0.21710   0.00000  Uiso   1.00
C480   C     0.33809   0.51372   0.25143   0.00000  Uiso   1.00
C481   C     0.32662   0.36499   0.22798   0.00000  Uiso   1.00
C482   C     0.41334   0.33911   0.20781   0.00000  Uiso   1.00
C483   C     0.46111   0.30742   0.23790   0.00000  Uiso   1.00
H484   H     0.16388   0.38698   0.32877   0.00000  Uiso   1.00
H485   H     0.95072   0.37090   0.30224   0.00000  Uiso   1.00
H486   H     0.22303   0.46502   0.35346   0.00000  Uiso   1.00
H487   H     0.30741   0.32348   0.34417   0.00000  Uiso   1.00
H488   H     0.73100   0.35554   0.25144   0.00000  Uiso   1.00
H489   H     0.30520   0.55399   0.35945   0.00000  Uiso   1.00
H490   H     0.48315   0.25554   0.33986   0.00000  Uiso   1.00
H491   H     0.29194   0.40588   0.16390   0.00000  Uiso   1.00
H492   H     0.08580   0.39083   0.12833   0.00000  Uiso   1.00
H493   H     0.35810   0.48495   0.17955   0.00000  Uiso   1.00
H494   H     0.44248   0.34342   0.17026   0.00000  Uiso   1.00
H495   H     0.84063   0.37172   0.11028   0.00000  Uiso   1.00
H496   H     0.41484   0.57017   0.21830   0.00000  Uiso   1.00
H497   H     0.59278   0.27172   0.19870   0.00000  Uiso   1.00
O498   O     0.64790   0.35341   0.16044   0.00000  Uiso   1.00
O499   O     0.40124   0.61376   0.30215   0.00000  Uiso   1.00
O500   O     0.63469   0.22220   0.27644   0.00000  Uiso   1.00
N501   N     0.78510   0.36141   0.22310   0.00000  Uiso   1.00
N502   N     0.32193   0.54694   0.32408   0.00000  Uiso   1.00
N503   N     0.48831   0.26793   0.30577   0.00000  Uiso   1.00
N504   N     0.84409   0.37011   0.14714   0.00000  Uiso   1.00
N505   N     0.38092   0.55565   0.24813   0.00000  Uiso   1.00
N506   N     0.54730   0.27663   0.22982   0.00000  Uiso   1.00
C507   C     0.19322   0.89131   0.79099   0.00000  Uiso   1.00
C508   C     0.09516   0.88519   0.75372   0.00000  Uiso   1.00
C509   C     0.97985   0.87520   0.76469   0.00000  Uiso   1.00
C510   C     0.90346   0.87096   0.72538   0.00000  Uiso   1.00
C511   C     0.74546   0.86064   0.67488   0.00000  Uiso   1.00
C512   C     0.24310   0.93633   0.78155   0.00000  Uiso   1.00
C513   C     0.25219   0.96933   0.81592   0.00000  Uiso   1.00
C514   C     0.30034   0.00814   0.80004   0.00000  Uiso   1.00
C515   C     0.37209   0.07720   0.79276   0.00000  Uiso   1.00
C516   C     0.28894   0.85943   0.77650   0.00000  Uiso   1.00
C517   C     0.33659   0.82778   0.80663   0.00000  Uiso   1.00
C518   C     0.42336   0.80185   0.78650   0.00000  Uiso   1.00
C519   C     0.56628   0.75151   0.77138   0.00000  Uiso   1.00
C520   C     0.26260   0.90154   0.70167   0.00000  Uiso   1.00
C521   C     0.13285   0.89075   0.70520   0.00000  Uiso   1.00
C522   C     0.05661   0.88653   0.66587   0.00000  Uiso   1.00
C523   C     0.94121   0.87653   0.67678   0.00000  Uiso   1.00
C524   C     0.28078   0.94189   0.73304   0.00000  Uiso   1.00
C525   C     0.32894   0.98066   0.71710   0.00000  Uiso   1.00
C526   C     0.33809   0.01372   0.75143   0.00000  Uiso   1.00
C527   C     0.32662   0.86499   0.72798   0.00000  Uiso   1.00
C528   C     0.41334   0.83911   0.70781   0.00000  Uiso   1.00
C529   C     0.46111   0.80742   0.73790   0.00000  Uiso   1.00
H530   H     0.16388   0.88698   0.82877   0.00000  Uiso   1.00
H531   H     0.95072   0.87090   0.80224   0.00000  Uiso   1.00
H532   H     0.22303   0.96502   0.85346   0.00000  Uiso   1.00
H533   H     0.30741   0.82348   0.84417   0.00000  Uiso   1.00
H534   H     0.73100   0.85554   0.75144   0.00000  Uiso   1.00
H535   H     0.30520   0.05399   0.85945   0.00000  Uiso   1.00
H536   H     0.48315   0.75554   0.83986   0.00000  Uiso   1.00
H537   H     0.29194   0.90588   0.66390   0.00000  Uiso   1.00
H538   H     0.08580   0.89083   0.62833   0.00000  Uiso   1.00
H539   H     0.35810   0.98495   0.67955   0.00000  Uiso   1.00
H540   H     0.44248   0.84342   0.67026   0.00000  Uiso   1.00
H541   H     0.84063   0.87172   0.61028   0.00000  Uiso   1.00
H542   H     0.41484   0.07017   0.71830   0.00000  Uiso   1.00
H543   H     0.59278   0.77172   0.69870   0.00000  Uiso   1.00
O544   O     0.64790   0.85341   0.66044   0.00000  Uiso   1.00
O545   O     0.40124   0.11376   0.80215   0.00000  Uiso   1.00
O546   O     0.63469   0.72220   0.77644   0.00000  Uiso   1.00
N547   N     0.78510   0.86141   0.72310   0.00000  Uiso   1.00
N548   N     0.32193   0.04694   0.82408   0.00000  Uiso   1.00
N549   N     0.48831   0.76793   0.80577   0.00000  Uiso   1.00
N550   N     0.84409   0.87011   0.64714   0.00000  Uiso   1.00
N551   N     0.38092   0.05565   0.74813   0.00000  Uiso   1.00
N552   N     0.54730   0.77663   0.72982   0.00000  Uiso   1.00
C553   C     0.80678   0.10869   0.79099   0.00000  Uiso   1.00
C554   C     0.90484   0.11481   0.75372   0.00000  Uiso   1.00
C555   C     0.02015   0.12480   0.76469   0.00000  Uiso   1.00
C556   C     0.09654   0.12904   0.72538   0.00000  Uiso   1.00
C557   C     0.25454   0.13936   0.67488   0.00000  Uiso   1.00
C558   C     0.75690   0.06367   0.78155   0.00000  Uiso   1.00
C559   C     0.74781   0.03067   0.81592   0.00000  Uiso   1.00
C560   C     0.69966   0.99186   0.80004   0.00000  Uiso   1.00
C561   C     0.62791   0.92280   0.79276   0.00000  Uiso   1.00
C562   C     0.71106   0.14057   0.77650   0.00000  Uiso   1.00
C563   C     0.66341   0.17222   0.80663   0.00000  Uiso   1.00
C564   C     0.57664   0.19815   0.78650   0.00000  Uiso   1.00
C565   C     0.43372   0.24849   0.77138   0.00000  Uiso   1.00
C566   C     0.73740   0.09846   0.70167   0.00000  Uiso   1.00
C567   C     0.86715   0.10925   0.70520   0.00000  Uiso   1.00
C568   C     0.94339   0.11347   0.66587   0.00000  Uiso   1.00
C569   C     0.05879   0.12347   0.67678   0.00000  Uiso   1.00
C570   C     0.71922   0.05811   0.73304   0.00000  Uiso   1.00
C571   C     0.67106   0.01934   0.71710   0.00000  Uiso   1.00
C572   C     0.66191   0.98628   0.75143   0.00000  Uiso   1.00
C573   C     0.67338   0.13501   0.72798   0.00000  Uiso   1.00
C574   C     0.58666   0.16089   0.70781   0.00000  Uiso   1.00
C575   C     0.53889   0.19258   0.73790   0.00000  Uiso   1.00
H576   H     0.83612   0.11302   0.82877   0.00000  Uiso   1.00
H577   H     0.04928   0.12910   0.80224   0.00000  Uiso   1.00
H578   H     0.77697   0.03498   0.85346   0.00000  Uiso   1.00
H579   H     0.69259   0.17652   0.84417   0.00000  Uiso   1.00
H580   H     0.26900   0.14446   0.75144   0.00000  Uiso   1.00
H581   H     0.69480   0.94601   0.85945   0.00000  Uiso   1.00
H582   H     0.51685   0.24446   0.83986   0.00000  Uiso   1.00
H583   H     0.70806   0.09412   0.66390   0.00000  Uiso   1.00
H584   H     0.91420   0.10917   0.62833   0.00000  Uiso   1.00
H585   H     0.64190   0.01505   0.67955   0.00000  Uiso   1.00
H586   H     0.55752   0.15658   0.67026   0.00000  Uiso   1.00
H587   H     0.15937   0.12828   0.61028   0.00000  Uiso   1.00
H588   H     0.58516   0.92983   0.71830   0.00000  Uiso   1.00
H589   H     0.40722   0.22828   0.69870   0.00000  Uiso   1.00
O590   O     0.35210   0.14659   0.66044   0.00000  Uiso   1.00
O591   O     0.59876   0.88624   0.80215   0.00000  Uiso   1.00
O592   O     0.36531   0.27780   0.77644   0.00000  Uiso   1.00
N593   N     0.21490   0.13859   0.72310   0.00000  Uiso   1.00
N594   N     0.67807   0.95306   0.82408   0.00000  Uiso   1.00
N595   N     0.51169   0.23207   0.80577   0.00000  Uiso   1.00
N596   N     0.15591   0.12989   0.64714   0.00000  Uiso   1.00
N597   N     0.61908   0.94435   0.74813   0.00000  Uiso   1.00
N598   N     0.45270   0.22337   0.72982   0.00000  Uiso   1.00
C599   C     0.80678   0.60869   0.29099   0.00000  Uiso   1.00
C600   C     0.90484   0.61481   0.25372   0.00000  Uiso   1.00
C601   C     0.02015   0.62480   0.26469   0.00000  Uiso   1.00
C602   C     0.09654   0.62904   0.22538   0.00000  Uiso   1.00
C603   C     0.25454   0.63936   0.17488   0.00000  Uiso   1.00
C604   C     0.75690   0.56367   0.28155   0.00000  Uiso   1.00
C605   C     0.74781   0.53067   0.31592   0.00000  Uiso   1.00
C606   C     0.69966   0.49186   0.30004   0.00000  Uiso   1.00
C607   C     0.62791   0.42280   0.29276   0.00000  Uiso   1.00
C608   C     0.71106   0.64057   0.27650   0.00000  Uiso   1.00
C609   C     0.66341   0.67222   0.30663   0.00000  Uiso   1.00
C610   C     0.57664   0.69815   0.28650   0.00000  Uiso   1.00
C611   C     0.43372   0.74849   0.27138   0.00000  Uiso   1.00
C612   C     0.73740   0.59846   0.20167   0.00000  Uiso   1.00
C613   C     0.86715   0.60925   0.20520   0.00000  Uiso   1.00
C614   C     0.94339   0.61347   0.16587   0.00000  Uiso   1.00
C615   C     0.05879   0.62347   0.17678   0.00000  Uiso   1.00
C616   C     0.71922   0.55811   0.23304   0.00000  Uiso   1.00
C617   C     0.67106   0.51934   0.21710   0.00000  Uiso   1.00
C618   C     0.66191   0.48628   0.25143   0.00000  Uiso   1.00
C619   C     0.67338   0.63501   0.22798   0.00000  Uiso   1.00
C620   C     0.58666   0.66089   0.20781   0.00000  Uiso   1.00
C621   C     0.53889   0.69258   0.23790   0.00000  Uiso   1.00
H622   H     0.83612   0.61302   0.32877   0.00000  Uiso   1.00
H623   H     0.04928   0.62910   0.30224   0.00000  Uiso   1.00
H624   H     0.77697   0.53498   0.35346   0.00000  Uiso   1.00
H625   H     0.69259   0.67652   0.34417   0.00000  Uiso   1.00
H626   H     0.26900   0.64446   0.25144   0.00000  Uiso   1.00
H627   H     0.69480   0.44601   0.35945   0.00000  Uiso   1.00
H628   H     0.51685   0.74446   0.33986   0.00000  Uiso   1.00
H629   H     0.70806   0.59412   0.16390   0.00000  Uiso   1.00
H630   H     0.91420   0.60917   0.12833   0.00000  Uiso   1.00
H631   H     0.64190   0.51505   0.17955   0.00000  Uiso   1.00
H632   H     0.55752   0.65658   0.17026   0.00000  Uiso   1.00
H633   H     0.15937   0.62828   0.11028   0.00000  Uiso   1.00
H634   H     0.58516   0.42983   0.21830   0.00000  Uiso   1.00
H635   H     0.40722   0.72828   0.19870   0.00000  Uiso   1.00
O636   O     0.35210   0.64659   0.16044   0.00000  Uiso   1.00
O637   O     0.59876   0.38624   0.30215   0.00000  Uiso   1.00
O638   O     0.36531   0.77780   0.27644   0.00000  Uiso   1.00
N639   N     0.21490   0.63859   0.22310   0.00000  Uiso   1.00
N640   N     0.67807   0.45306   0.32408   0.00000  Uiso   1.00
N641   N     0.51169   0.73207   0.30577   0.00000  Uiso   1.00
N642   N     0.15591   0.62989   0.14714   0.00000  Uiso   1.00
N643   N     0.61908   0.44435   0.24813   0.00000  Uiso   1.00
N644   N     0.45270   0.72337   0.22982   0.00000  Uiso   1.00
C645   C     0.30678   0.10869   0.29099   0.00000  Uiso   1.00
C646   C     0.40484   0.11481   0.25372   0.00000  Uiso   1.00
C647   C     0.52015   0.12480   0.26469   0.00000  Uiso   1.00
C648   C     0.59654   0.12904   0.22538   0.00000  Uiso   1.00
C649   C     0.75454   0.13936   0.17488   0.00000  Uiso   1.00
C650   C     0.25690   0.06367   0.28155   0.00000  Uiso   1.00
C651   C     0.24781   0.03067   0.31592   0.00000  Uiso   1.00
C652   C     0.19966   0.99186   0.30004   0.00000  Uiso   1.00
C653   C     0.12791   0.92280   0.29276   0.00000  Uiso   1.00
C654   C     0.21106   0.14057   0.27650   0.00000  Uiso   1.00
C655   C     0.16341   0.17222   0.30663   0.00000  Uiso   1.00
C656   C     0.07664   0.19815   0.28650   0.00000  Uiso   1.00
C657   C     0.93372   0.24849   0.27138   0.00000  Uiso   1.00
C658   C     0.23740   0.09846   0.20167   0.00000  Uiso   1.00
C659   C     0.36715   0.10925   0.20520   0.00000  Uiso   1.00
C660   C     0.44339   0.11347   0.16587   0.00000  Uiso   1.00
C661   C     0.55879   0.12347   0.17678   0.00000  Uiso   1.00
C662   C     0.21922   0.05811   0.23304   0.00000  Uiso   1.00
C663   C     0.17106   0.01934   0.21710   0.00000  Uiso   1.00
C664   C     0.16191   0.98628   0.25143   0.00000  Uiso   1.00
C665   C     0.17338   0.13501   0.22798   0.00000  Uiso   1.00
C666   C     0.08666   0.16089   0.20781   0.00000  Uiso   1.00
C667   C     0.03889   0.19258   0.23790   0.00000  Uiso   1.00
H668   H     0.33612   0.11302   0.32877   0.00000  Uiso   1.00
H669   H     0.54928   0.12910   0.30224   0.00000  Uiso   1.00
H670   H     0.27697   0.03498   0.35346   0.00000  Uiso   1.00
H671   H     0.19259   0.17652   0.34417   0.00000  Uiso   1.00
H672   H     0.76900   0.14446   0.25144   0.00000  Uiso   1.00
H673   H     0.19480   0.94601   0.35945   0.00000  Uiso   1.00
H674   H     0.01685   0.24446   0.33986   0.00000  Uiso   1.00
H675   H     0.20806   0.09412   0.16390   0.00000  Uiso   1.00
H676   H     0.41420   0.10917   0.12833   0.00000  Uiso   1.00
H677   H     0.14190   0.01505   0.17955   0.00000  Uiso   1.00
H678   H     0.05752   0.15658   0.17026   0.00000  Uiso   1.00
H679   H     0.65937   0.12828   0.11028   0.00000  Uiso   1.00
H680   H     0.08516   0.92983   0.21830   0.00000  Uiso   1.00
H681   H     0.90722   0.22828   0.19870   0.00000  Uiso   1.00
O682   O     0.85210   0.14659   0.16044   0.00000  Uiso   1.00
O683   O     0.09876   0.88624   0.30215   0.00000  Uiso   1.00
O684   O     0.86531   0.27780   0.27644   0.00000  Uiso   1.00
N685   N     0.71490   0.13859   0.22310   0.00000  Uiso   1.00
N686   N     0.17807   0.95306   0.32408   0.00000  Uiso   1.00
N687   N     0.01169   0.23207   0.30577   0.00000  Uiso   1.00
N688   N     0.65591   0.12989   0.14714   0.00000  Uiso   1.00
N689   N     0.11908   0.94435   0.24813   0.00000  Uiso   1.00
N690   N     0.95270   0.22337   0.22982   0.00000  Uiso   1.00
C691   C     0.30678   0.60869   0.79099   0.00000  Uiso   1.00
C692   C     0.40484   0.61481   0.75372   0.00000  Uiso   1.00
C693   C     0.52015   0.62480   0.76469   0.00000  Uiso   1.00
C694   C     0.59654   0.62904   0.72538   0.00000  Uiso   1.00
C695   C     0.75454   0.63936   0.67488   0.00000  Uiso   1.00
C696   C     0.25690   0.56367   0.78155   0.00000  Uiso   1.00
C697   C     0.24781   0.53067   0.81592   0.00000  Uiso   1.00
C698   C     0.19966   0.49186   0.80004   0.00000  Uiso   1.00
C699   C     0.12791   0.42280   0.79276   0.00000  Uiso   1.00
C700   C     0.21106   0.64057   0.77650   0.00000  Uiso   1.00
C701   C     0.16341   0.67222   0.80663   0.00000  Uiso   1.00
C702   C     0.07664   0.69815   0.78650   0.00000  Uiso   1.00
C703   C     0.93372   0.74849   0.77138   0.00000  Uiso   1.00
C704   C     0.23740   0.59846   0.70167   0.00000  Uiso   1.00
C705   C     0.36715   0.60925   0.70520   0.00000  Uiso   1.00
C706   C     0.44339   0.61347   0.66587   0.00000  Uiso   1.00
C707   C     0.55879   0.62347   0.67678   0.00000  Uiso   1.00
C708   C     0.21922   0.55811   0.73304   0.00000  Uiso   1.00
C709   C     0.17106   0.51934   0.71710   0.00000  Uiso   1.00
C710   C     0.16191   0.48628   0.75143   0.00000  Uiso   1.00
C711   C     0.17338   0.63501   0.72798   0.00000  Uiso   1.00
C712   C     0.08666   0.66089   0.70781   0.00000  Uiso   1.00
C713   C     0.03889   0.69258   0.73790   0.00000  Uiso   1.00
H714   H     0.33612   0.61302   0.82877   0.00000  Uiso   1.00
H715   H     0.54928   0.62910   0.80224   0.00000  Uiso   1.00
H716   H     0.27697   0.53498   0.85346   0.00000  Uiso   1.00
H717   H     0.19259   0.67652   0.84417   0.00000  Uiso   1.00
H718   H     0.76900   0.64446   0.75144   0.00000  Uiso   1.00
H719   H     0.19480   0.44601   0.85945   0.00000  Uiso   1.00
H720   H     0.01685   0.74446   0.83986   0.00000  Uiso   1.00
H721   H     0.20806   0.59412   0.66390   0.00000  Uiso   1.00
H722   H     0.41420   0.60917   0.62833   0.00000  Uiso   1.00
H723   H     0.14190   0.51505   0.67955   0.00000  Uiso   1.00
H724   H     0.05752   0.65658   0.67026   0.00000  Uiso   1.00
H725   H     0.65937   0.62828   0.61028   0.00000  Uiso   1.00
H726   H     0.08516   0.42983   0.71830   0.00000  Uiso   1.00
H727   H     0.90722   0.72828   0.69870   0.00000  Uiso   1.00
O728   O     0.85210   0.64659   0.66044   0.00000  Uiso   1.00
O729   O     0.09876   0.38624   0.80215   0.00000  Uiso   1.00
O730   O     0.86531   0.77780   0.77644   0.00000  Uiso   1.00
N731   N     0.71490   0.63859   0.72310   0.00000  Uiso   1.00
N732   N     0.17807   0.45306   0.82408   0.00000  Uiso   1.00
N733   N     0.01169   0.73207   0.80577   0.00000  Uiso   1.00
N734   N     0.65591   0.62989   0.64714   0.00000  Uiso   1.00
N735   N     0.11908   0.44435   0.74813   0.00000  Uiso   1.00
N736   N     0.95270   0.72337   0.72982   0.00000  Uiso   1.00
