data_job_04889
_audit_creation_date              2018-12-19
_audit_creation_method            'Materials Studio'
_symmetry_space_group_name_H-M    'P1'
_symmetry_Int_Tables_number       1
_symmetry_cell_setting            triclinic
loop_
_symmetry_equiv_pos_as_xyz
  x,y,z
_cell_length_a                    29.7280
_cell_length_b                    29.7280
_cell_length_c                    11.4398
_cell_angle_alpha                 90.0000
_cell_angle_beta                  90.0000
_cell_angle_gamma                 90.0000
loop_
_atom_site_label
_atom_site_type_symbol
_atom_site_fract_x
_atom_site_fract_y
_atom_site_fract_z
_atom_site_U_iso_or_equiv
_atom_site_adp_type
_atom_site_occupancy
C1     C     0.08352   0.32072   0.95277   0.00000  Uiso   1.00
C2     C     0.06872   0.27206   0.93549   0.00000  Uiso   1.00
C3     C     0.07196   0.23800   0.01801   0.00000  Uiso   1.00
C4     C     0.05656   0.19575   0.98526   0.00000  Uiso   1.00
C5     C     0.03633   0.12138   0.97535   0.00000  Uiso   1.00
C6     C     0.11694   0.33064   0.85496   0.00000  Uiso   1.00
C7     C     0.16071   0.34583   0.86978   0.00000  Uiso   1.00
C8     C     0.18590   0.35289   0.76923   0.00000  Uiso   1.00
C9     C     0.24052   0.36949   0.63429   0.00000  Uiso   1.00
C10    C     0.04224   0.34956   0.92743   0.00000  Uiso   1.00
C11    C     0.02321   0.38067   0.00317   0.00000  Uiso   1.00
C12    C     0.98552   0.40367   0.96363   0.00000  Uiso   1.00
C13    C     0.92415   0.44965   0.94121   0.00000  Uiso   1.00
C14    C     0.05043   0.30626   0.74786   0.00000  Uiso   1.00
C15    C     0.05074   0.26421   0.82419   0.00000  Uiso   1.00
C16    C     0.03534   0.22200   0.79131   0.00000  Uiso   1.00
C17    C     0.03855   0.18788   0.87377   0.00000  Uiso   1.00
C18    C     0.09896   0.32278   0.74367   0.00000  Uiso   1.00
C19    C     0.12409   0.32982   0.64308   0.00000  Uiso   1.00
C20    C     0.16789   0.34502   0.65774   0.00000  Uiso   1.00
C21    C     0.02426   0.34170   0.81614   0.00000  Uiso   1.00
C22    C     0.98659   0.36466   0.77647   0.00000  Uiso   1.00
C23    C     0.96751   0.39580   0.85213   0.00000  Uiso   1.00
H24    H     0.09752   0.32684   0.03941   0.00000  Uiso   1.00
H25    H     0.08588   0.24409   0.10413   0.00000  Uiso   1.00
H26    H     0.17461   0.35191   0.95591   0.00000  Uiso   1.00
H27    H     0.03713   0.38674   0.08929   0.00000  Uiso   1.00
H28    H     0.06505   0.14888   0.12678   0.00000  Uiso   1.00
H29    H     0.25215   0.37623   0.81427   0.00000  Uiso   1.00
H30    H     0.96225   0.44969   0.09551   0.00000  Uiso   1.00
H31    H     0.03643   0.30014   0.66121   0.00000  Uiso   1.00
H32    H     0.02142   0.21593   0.70518   0.00000  Uiso   1.00
H33    H     0.11017   0.32374   0.55697   0.00000  Uiso   1.00
H34    H     0.97268   0.35857   0.69034   0.00000  Uiso   1.00
H35    H     0.01274   0.12602   0.80298   0.00000  Uiso   1.00
H36    H     0.19985   0.35337   0.49046   0.00000  Uiso   1.00
H37    H     0.90994   0.42682   0.77171   0.00000  Uiso   1.00
O38    O     0.03014   0.08253   0.00061   0.00000  Uiso   1.00
O39    O     0.27561   0.38081   0.59061   0.00000  Uiso   1.00
O40    O     0.89526   0.47718   0.95959   0.00000  Uiso   1.00
N41    N     0.05479   0.15506   0.04455   0.00000  Uiso   1.00
N42    N     0.22972   0.36761   0.75237   0.00000  Uiso   1.00
N43    N     0.95869   0.43629   0.01529   0.00000  Uiso   1.00
N44    N     0.02664   0.14276   0.87032   0.00000  Uiso   1.00
N45    N     0.20158   0.35531   0.57813   0.00000  Uiso   1.00
N46    N     0.93055   0.42399   0.84106   0.00000  Uiso   1.00
C47    C     0.58352   0.82072   0.45277   0.00000  Uiso   1.00
C48    C     0.56872   0.77206   0.43549   0.00000  Uiso   1.00
C49    C     0.57196   0.73800   0.51801   0.00000  Uiso   1.00
C50    C     0.55656   0.69575   0.48526   0.00000  Uiso   1.00
C51    C     0.53633   0.62138   0.47535   0.00000  Uiso   1.00
C52    C     0.61694   0.83064   0.35496   0.00000  Uiso   1.00
C53    C     0.66071   0.84583   0.36978   0.00000  Uiso   1.00
C54    C     0.68590   0.85289   0.26923   0.00000  Uiso   1.00
C55    C     0.74052   0.86949   0.13429   0.00000  Uiso   1.00
C56    C     0.54224   0.84956   0.42743   0.00000  Uiso   1.00
C57    C     0.52321   0.88067   0.50317   0.00000  Uiso   1.00
C58    C     0.48552   0.90367   0.46363   0.00000  Uiso   1.00
C59    C     0.42415   0.94965   0.44121   0.00000  Uiso   1.00
C60    C     0.55043   0.80626   0.24786   0.00000  Uiso   1.00
C61    C     0.55074   0.76421   0.32419   0.00000  Uiso   1.00
C62    C     0.53534   0.72200   0.29131   0.00000  Uiso   1.00
C63    C     0.53855   0.68788   0.37377   0.00000  Uiso   1.00
C64    C     0.59896   0.82278   0.24367   0.00000  Uiso   1.00
C65    C     0.62409   0.82982   0.14308   0.00000  Uiso   1.00
C66    C     0.66789   0.84502   0.15774   0.00000  Uiso   1.00
C67    C     0.52426   0.84170   0.31614   0.00000  Uiso   1.00
C68    C     0.48659   0.86466   0.27647   0.00000  Uiso   1.00
C69    C     0.46751   0.89580   0.35213   0.00000  Uiso   1.00
H70    H     0.59752   0.82684   0.53941   0.00000  Uiso   1.00
H71    H     0.58588   0.74409   0.60413   0.00000  Uiso   1.00
H72    H     0.67461   0.85191   0.45591   0.00000  Uiso   1.00
H73    H     0.53713   0.88674   0.58929   0.00000  Uiso   1.00
H74    H     0.56505   0.64888   0.62678   0.00000  Uiso   1.00
H75    H     0.75215   0.87623   0.31427   0.00000  Uiso   1.00
H76    H     0.46225   0.94969   0.59551   0.00000  Uiso   1.00
H77    H     0.53643   0.80014   0.16121   0.00000  Uiso   1.00
H78    H     0.52142   0.71593   0.20518   0.00000  Uiso   1.00
H79    H     0.61017   0.82374   0.05697   0.00000  Uiso   1.00
H80    H     0.47268   0.85857   0.19034   0.00000  Uiso   1.00
H81    H     0.51274   0.62602   0.30298   0.00000  Uiso   1.00
H82    H     0.69985   0.85337   0.99046   0.00000  Uiso   1.00
H83    H     0.40994   0.92682   0.27171   0.00000  Uiso   1.00
O84    O     0.53014   0.58253   0.50061   0.00000  Uiso   1.00
O85    O     0.77561   0.88081   0.09061   0.00000  Uiso   1.00
O86    O     0.39526   0.97718   0.45959   0.00000  Uiso   1.00
N87    N     0.55479   0.65506   0.54455   0.00000  Uiso   1.00
N88    N     0.72972   0.86761   0.25237   0.00000  Uiso   1.00
N89    N     0.45869   0.93629   0.51529   0.00000  Uiso   1.00
N90    N     0.52664   0.64276   0.37032   0.00000  Uiso   1.00
N91    N     0.70158   0.85531   0.07813   0.00000  Uiso   1.00
N92    N     0.43055   0.92399   0.34106   0.00000  Uiso   1.00
C93    C     0.41648   0.17928   0.45277   0.00000  Uiso   1.00
C94    C     0.43128   0.22794   0.43549   0.00000  Uiso   1.00
C95    C     0.42804   0.26200   0.51801   0.00000  Uiso   1.00
C96    C     0.44344   0.30425   0.48526   0.00000  Uiso   1.00
C97    C     0.46367   0.37862   0.47535   0.00000  Uiso   1.00
C98    C     0.38306   0.16936   0.35496   0.00000  Uiso   1.00
C99    C     0.33929   0.15417   0.36978   0.00000  Uiso   1.00
C100   C     0.31410   0.14711   0.26923   0.00000  Uiso   1.00
C101   C     0.25948   0.13051   0.13429   0.00000  Uiso   1.00
C102   C     0.45776   0.15044   0.42743   0.00000  Uiso   1.00
C103   C     0.47679   0.11933   0.50317   0.00000  Uiso   1.00
C104   C     0.51448   0.09633   0.46363   0.00000  Uiso   1.00
C105   C     0.57585   0.05035   0.44121   0.00000  Uiso   1.00
C106   C     0.44957   0.19374   0.24786   0.00000  Uiso   1.00
C107   C     0.44926   0.23579   0.32419   0.00000  Uiso   1.00
C108   C     0.46466   0.27800   0.29131   0.00000  Uiso   1.00
C109   C     0.46145   0.31212   0.37377   0.00000  Uiso   1.00
C110   C     0.40104   0.17722   0.24367   0.00000  Uiso   1.00
C111   C     0.37591   0.17018   0.14308   0.00000  Uiso   1.00
C112   C     0.33211   0.15498   0.15774   0.00000  Uiso   1.00
C113   C     0.47574   0.15830   0.31614   0.00000  Uiso   1.00
C114   C     0.51341   0.13534   0.27647   0.00000  Uiso   1.00
C115   C     0.53249   0.10420   0.35213   0.00000  Uiso   1.00
H116   H     0.40248   0.17316   0.53941   0.00000  Uiso   1.00
H117   H     0.41412   0.25591   0.60413   0.00000  Uiso   1.00
H118   H     0.32539   0.14809   0.45591   0.00000  Uiso   1.00
H119   H     0.46287   0.11326   0.58929   0.00000  Uiso   1.00
H120   H     0.43495   0.35112   0.62678   0.00000  Uiso   1.00
H121   H     0.24785   0.12377   0.31427   0.00000  Uiso   1.00
H122   H     0.53775   0.05031   0.59551   0.00000  Uiso   1.00
H123   H     0.46357   0.19986   0.16121   0.00000  Uiso   1.00
H124   H     0.47858   0.28407   0.20518   0.00000  Uiso   1.00
H125   H     0.38983   0.17626   0.05697   0.00000  Uiso   1.00
H126   H     0.52732   0.14143   0.19034   0.00000  Uiso   1.00
H127   H     0.48726   0.37398   0.30298   0.00000  Uiso   1.00
H128   H     0.30015   0.14663   0.99046   0.00000  Uiso   1.00
H129   H     0.59006   0.07318   0.27171   0.00000  Uiso   1.00
O130   O     0.46986   0.41747   0.50061   0.00000  Uiso   1.00
O131   O     0.22439   0.11919   0.09061   0.00000  Uiso   1.00
O132   O     0.60474   0.02282   0.45959   0.00000  Uiso   1.00
N133   N     0.44521   0.34494   0.54455   0.00000  Uiso   1.00
N134   N     0.27028   0.13239   0.25237   0.00000  Uiso   1.00
N135   N     0.54131   0.06371   0.51529   0.00000  Uiso   1.00
N136   N     0.47336   0.35724   0.37032   0.00000  Uiso   1.00
N137   N     0.29842   0.14469   0.07813   0.00000  Uiso   1.00
N138   N     0.56945   0.07601   0.34106   0.00000  Uiso   1.00
C139   C     0.91648   0.67928   0.95277   0.00000  Uiso   1.00
C140   C     0.93128   0.72794   0.93549   0.00000  Uiso   1.00
C141   C     0.92804   0.76200   0.01801   0.00000  Uiso   1.00
C142   C     0.94344   0.80425   0.98526   0.00000  Uiso   1.00
C143   C     0.96367   0.87862   0.97535   0.00000  Uiso   1.00
C144   C     0.88306   0.66936   0.85496   0.00000  Uiso   1.00
C145   C     0.83929   0.65417   0.86978   0.00000  Uiso   1.00
C146   C     0.81410   0.64711   0.76923   0.00000  Uiso   1.00
C147   C     0.75948   0.63051   0.63429   0.00000  Uiso   1.00
C148   C     0.95776   0.65044   0.92743   0.00000  Uiso   1.00
C149   C     0.97679   0.61933   0.00317   0.00000  Uiso   1.00
C150   C     0.01448   0.59633   0.96363   0.00000  Uiso   1.00
C151   C     0.07585   0.55035   0.94121   0.00000  Uiso   1.00
C152   C     0.94957   0.69374   0.74786   0.00000  Uiso   1.00
C153   C     0.94926   0.73579   0.82419   0.00000  Uiso   1.00
C154   C     0.96466   0.77800   0.79131   0.00000  Uiso   1.00
C155   C     0.96145   0.81212   0.87377   0.00000  Uiso   1.00
C156   C     0.90104   0.67722   0.74367   0.00000  Uiso   1.00
C157   C     0.87591   0.67018   0.64308   0.00000  Uiso   1.00
C158   C     0.83211   0.65498   0.65774   0.00000  Uiso   1.00
C159   C     0.97574   0.65830   0.81614   0.00000  Uiso   1.00
C160   C     0.01341   0.63534   0.77647   0.00000  Uiso   1.00
C161   C     0.03249   0.60420   0.85213   0.00000  Uiso   1.00
H162   H     0.90248   0.67316   0.03941   0.00000  Uiso   1.00
H163   H     0.91412   0.75591   0.10413   0.00000  Uiso   1.00
H164   H     0.82539   0.64809   0.95591   0.00000  Uiso   1.00
H165   H     0.96287   0.61326   0.08929   0.00000  Uiso   1.00
H166   H     0.93495   0.85112   0.12678   0.00000  Uiso   1.00
H167   H     0.74785   0.62377   0.81427   0.00000  Uiso   1.00
H168   H     0.03775   0.55031   0.09551   0.00000  Uiso   1.00
H169   H     0.96357   0.69986   0.66121   0.00000  Uiso   1.00
H170   H     0.97858   0.78407   0.70518   0.00000  Uiso   1.00
H171   H     0.88983   0.67626   0.55697   0.00000  Uiso   1.00
H172   H     0.02732   0.64143   0.69034   0.00000  Uiso   1.00
H173   H     0.98726   0.87398   0.80298   0.00000  Uiso   1.00
H174   H     0.80015   0.64663   0.49046   0.00000  Uiso   1.00
H175   H     0.09006   0.57318   0.77171   0.00000  Uiso   1.00
O176   O     0.96986   0.91747   0.00061   0.00000  Uiso   1.00
O177   O     0.72439   0.61919   0.59061   0.00000  Uiso   1.00
O178   O     0.10474   0.52282   0.95959   0.00000  Uiso   1.00
N179   N     0.94521   0.84494   0.04455   0.00000  Uiso   1.00
N180   N     0.77028   0.63239   0.75237   0.00000  Uiso   1.00
N181   N     0.04131   0.56371   0.01529   0.00000  Uiso   1.00
N182   N     0.97336   0.85724   0.87032   0.00000  Uiso   1.00
N183   N     0.79842   0.64469   0.57813   0.00000  Uiso   1.00
N184   N     0.06945   0.57601   0.84106   0.00000  Uiso   1.00
C185   C     0.67928   0.58352   0.20277   0.00000  Uiso   1.00
C186   C     0.72794   0.56872   0.18549   0.00000  Uiso   1.00
C187   C     0.76200   0.57196   0.26801   0.00000  Uiso   1.00
C188   C     0.80425   0.55656   0.23526   0.00000  Uiso   1.00
C189   C     0.87862   0.53633   0.22535   0.00000  Uiso   1.00
C190   C     0.66936   0.61694   0.10496   0.00000  Uiso   1.00
C191   C     0.65417   0.66071   0.11978   0.00000  Uiso   1.00
C192   C     0.64711   0.68590   0.01923   0.00000  Uiso   1.00
C193   C     0.63051   0.74052   0.88429   0.00000  Uiso   1.00
C194   C     0.65044   0.54224   0.17743   0.00000  Uiso   1.00
C195   C     0.61933   0.52321   0.25317   0.00000  Uiso   1.00
C196   C     0.59633   0.48552   0.21363   0.00000  Uiso   1.00
C197   C     0.55035   0.42415   0.19121   0.00000  Uiso   1.00
C198   C     0.69374   0.55043   0.99786   0.00000  Uiso   1.00
C199   C     0.73579   0.55074   0.07419   0.00000  Uiso   1.00
C200   C     0.77800   0.53534   0.04131   0.00000  Uiso   1.00
C201   C     0.81212   0.53855   0.12377   0.00000  Uiso   1.00
C202   C     0.67722   0.59896   0.99367   0.00000  Uiso   1.00
C203   C     0.67018   0.62409   0.89308   0.00000  Uiso   1.00
C204   C     0.65498   0.66789   0.90774   0.00000  Uiso   1.00
C205   C     0.65830   0.52426   0.06614   0.00000  Uiso   1.00
C206   C     0.63534   0.48659   0.02647   0.00000  Uiso   1.00
C207   C     0.60420   0.46751   0.10213   0.00000  Uiso   1.00
H208   H     0.67316   0.59752   0.28941   0.00000  Uiso   1.00
H209   H     0.75591   0.58588   0.35413   0.00000  Uiso   1.00
H210   H     0.64809   0.67461   0.20591   0.00000  Uiso   1.00
H211   H     0.61326   0.53713   0.33929   0.00000  Uiso   1.00
H212   H     0.85112   0.56505   0.37678   0.00000  Uiso   1.00
H213   H     0.62377   0.75215   0.06427   0.00000  Uiso   1.00
H214   H     0.55031   0.46225   0.34551   0.00000  Uiso   1.00
H215   H     0.69986   0.53643   0.91121   0.00000  Uiso   1.00
H216   H     0.78407   0.52142   0.95518   0.00000  Uiso   1.00
H217   H     0.67626   0.61017   0.80697   0.00000  Uiso   1.00
H218   H     0.64143   0.47268   0.94034   0.00000  Uiso   1.00
H219   H     0.87398   0.51274   0.05298   0.00000  Uiso   1.00
H220   H     0.64663   0.69985   0.74046   0.00000  Uiso   1.00
H221   H     0.57318   0.40994   0.02171   0.00000  Uiso   1.00
O222   O     0.91747   0.53014   0.25061   0.00000  Uiso   1.00
O223   O     0.61919   0.77561   0.84061   0.00000  Uiso   1.00
O224   O     0.52282   0.39526   0.20959   0.00000  Uiso   1.00
N225   N     0.84494   0.55479   0.29455   0.00000  Uiso   1.00
N226   N     0.63239   0.72972   0.00237   0.00000  Uiso   1.00
N227   N     0.56371   0.45869   0.26529   0.00000  Uiso   1.00
N228   N     0.85724   0.52664   0.12032   0.00000  Uiso   1.00
N229   N     0.64469   0.70158   0.82813   0.00000  Uiso   1.00
N230   N     0.57601   0.43055   0.09106   0.00000  Uiso   1.00
C231   C     0.17928   0.08352   0.70277   0.00000  Uiso   1.00
C232   C     0.22794   0.06872   0.68549   0.00000  Uiso   1.00
C233   C     0.26200   0.07196   0.76801   0.00000  Uiso   1.00
C234   C     0.30425   0.05656   0.73526   0.00000  Uiso   1.00
C235   C     0.37862   0.03633   0.72535   0.00000  Uiso   1.00
C236   C     0.16936   0.11694   0.60496   0.00000  Uiso   1.00
C237   C     0.15417   0.16071   0.61978   0.00000  Uiso   1.00
C238   C     0.14711   0.18590   0.51923   0.00000  Uiso   1.00
C239   C     0.13051   0.24052   0.38429   0.00000  Uiso   1.00
C240   C     0.15044   0.04224   0.67743   0.00000  Uiso   1.00
C241   C     0.11933   0.02321   0.75317   0.00000  Uiso   1.00
C242   C     0.09633   0.98552   0.71363   0.00000  Uiso   1.00
C243   C     0.05035   0.92415   0.69121   0.00000  Uiso   1.00
C244   C     0.19374   0.05043   0.49786   0.00000  Uiso   1.00
C245   C     0.23579   0.05074   0.57419   0.00000  Uiso   1.00
C246   C     0.27800   0.03534   0.54131   0.00000  Uiso   1.00
C247   C     0.31212   0.03855   0.62377   0.00000  Uiso   1.00
C248   C     0.17722   0.09896   0.49367   0.00000  Uiso   1.00
C249   C     0.17018   0.12409   0.39308   0.00000  Uiso   1.00
C250   C     0.15498   0.16789   0.40774   0.00000  Uiso   1.00
C251   C     0.15830   0.02426   0.56614   0.00000  Uiso   1.00
C252   C     0.13534   0.98659   0.52647   0.00000  Uiso   1.00
C253   C     0.10420   0.96751   0.60213   0.00000  Uiso   1.00
H254   H     0.17316   0.09752   0.78941   0.00000  Uiso   1.00
H255   H     0.25591   0.08588   0.85413   0.00000  Uiso   1.00
H256   H     0.14809   0.17461   0.70591   0.00000  Uiso   1.00
H257   H     0.11326   0.03713   0.83929   0.00000  Uiso   1.00
H258   H     0.35112   0.06505   0.87678   0.00000  Uiso   1.00
H259   H     0.12377   0.25215   0.56427   0.00000  Uiso   1.00
H260   H     0.05031   0.96225   0.84551   0.00000  Uiso   1.00
H261   H     0.19986   0.03643   0.41121   0.00000  Uiso   1.00
H262   H     0.28407   0.02142   0.45518   0.00000  Uiso   1.00
H263   H     0.17626   0.11017   0.30697   0.00000  Uiso   1.00
H264   H     0.14143   0.97268   0.44034   0.00000  Uiso   1.00
H265   H     0.37398   0.01274   0.55298   0.00000  Uiso   1.00
H266   H     0.14663   0.19985   0.24046   0.00000  Uiso   1.00
H267   H     0.07318   0.90994   0.52171   0.00000  Uiso   1.00
O268   O     0.41747   0.03014   0.75061   0.00000  Uiso   1.00
O269   O     0.11919   0.27561   0.34061   0.00000  Uiso   1.00
O270   O     0.02282   0.89526   0.70959   0.00000  Uiso   1.00
N271   N     0.34494   0.05479   0.79455   0.00000  Uiso   1.00
N272   N     0.13239   0.22972   0.50237   0.00000  Uiso   1.00
N273   N     0.06371   0.95869   0.76529   0.00000  Uiso   1.00
N274   N     0.35724   0.02664   0.62032   0.00000  Uiso   1.00
N275   N     0.14469   0.20158   0.32813   0.00000  Uiso   1.00
N276   N     0.07601   0.93055   0.59106   0.00000  Uiso   1.00
C277   C     0.82072   0.91648   0.70277   0.00000  Uiso   1.00
C278   C     0.77206   0.93128   0.68549   0.00000  Uiso   1.00
C279   C     0.73800   0.92804   0.76801   0.00000  Uiso   1.00
C280   C     0.69575   0.94344   0.73526   0.00000  Uiso   1.00
C281   C     0.62138   0.96367   0.72535   0.00000  Uiso   1.00
C282   C     0.83064   0.88306   0.60496   0.00000  Uiso   1.00
C283   C     0.84583   0.83929   0.61978   0.00000  Uiso   1.00
C284   C     0.85289   0.81410   0.51923   0.00000  Uiso   1.00
C285   C     0.86949   0.75948   0.38429   0.00000  Uiso   1.00
C286   C     0.84956   0.95776   0.67743   0.00000  Uiso   1.00
C287   C     0.88067   0.97679   0.75317   0.00000  Uiso   1.00
C288   C     0.90367   0.01448   0.71363   0.00000  Uiso   1.00
C289   C     0.94965   0.07585   0.69121   0.00000  Uiso   1.00
C290   C     0.80626   0.94957   0.49786   0.00000  Uiso   1.00
C291   C     0.76421   0.94926   0.57419   0.00000  Uiso   1.00
C292   C     0.72200   0.96466   0.54131   0.00000  Uiso   1.00
C293   C     0.68788   0.96145   0.62377   0.00000  Uiso   1.00
C294   C     0.82278   0.90104   0.49367   0.00000  Uiso   1.00
C295   C     0.82982   0.87591   0.39308   0.00000  Uiso   1.00
C296   C     0.84502   0.83211   0.40774   0.00000  Uiso   1.00
C297   C     0.84170   0.97574   0.56614   0.00000  Uiso   1.00
C298   C     0.86466   0.01341   0.52647   0.00000  Uiso   1.00
C299   C     0.89580   0.03249   0.60213   0.00000  Uiso   1.00
H300   H     0.82684   0.90248   0.78941   0.00000  Uiso   1.00
H301   H     0.74409   0.91412   0.85413   0.00000  Uiso   1.00
H302   H     0.85191   0.82539   0.70591   0.00000  Uiso   1.00
H303   H     0.88674   0.96287   0.83929   0.00000  Uiso   1.00
H304   H     0.64888   0.93495   0.87678   0.00000  Uiso   1.00
H305   H     0.87623   0.74785   0.56427   0.00000  Uiso   1.00
H306   H     0.94969   0.03775   0.84551   0.00000  Uiso   1.00
H307   H     0.80014   0.96357   0.41121   0.00000  Uiso   1.00
H308   H     0.71593   0.97858   0.45518   0.00000  Uiso   1.00
H309   H     0.82374   0.88983   0.30697   0.00000  Uiso   1.00
H310   H     0.85857   0.02732   0.44034   0.00000  Uiso   1.00
H311   H     0.62602   0.98726   0.55298   0.00000  Uiso   1.00
H312   H     0.85337   0.80015   0.24046   0.00000  Uiso   1.00
H313   H     0.92682   0.09006   0.52171   0.00000  Uiso   1.00
O314   O     0.58253   0.96986   0.75061   0.00000  Uiso   1.00
O315   O     0.88081   0.72439   0.34061   0.00000  Uiso   1.00
O316   O     0.97718   0.10474   0.70959   0.00000  Uiso   1.00
N317   N     0.65506   0.94521   0.79455   0.00000  Uiso   1.00
N318   N     0.86761   0.77028   0.50237   0.00000  Uiso   1.00
N319   N     0.93629   0.04131   0.76529   0.00000  Uiso   1.00
N320   N     0.64276   0.97336   0.62032   0.00000  Uiso   1.00
N321   N     0.85531   0.79842   0.32813   0.00000  Uiso   1.00
N322   N     0.92399   0.06945   0.59106   0.00000  Uiso   1.00
C323   C     0.32072   0.41648   0.20277   0.00000  Uiso   1.00
C324   C     0.27206   0.43128   0.18549   0.00000  Uiso   1.00
C325   C     0.23800   0.42804   0.26801   0.00000  Uiso   1.00
C326   C     0.19575   0.44344   0.23526   0.00000  Uiso   1.00
C327   C     0.12138   0.46367   0.22535   0.00000  Uiso   1.00
C328   C     0.33064   0.38306   0.10496   0.00000  Uiso   1.00
C329   C     0.34583   0.33929   0.11978   0.00000  Uiso   1.00
C330   C     0.35289   0.31410   0.01923   0.00000  Uiso   1.00
C331   C     0.36949   0.25948   0.88429   0.00000  Uiso   1.00
C332   C     0.34956   0.45776   0.17743   0.00000  Uiso   1.00
C333   C     0.38067   0.47679   0.25317   0.00000  Uiso   1.00
C334   C     0.40367   0.51448   0.21363   0.00000  Uiso   1.00
C335   C     0.44965   0.57585   0.19121   0.00000  Uiso   1.00
C336   C     0.30626   0.44957   0.99786   0.00000  Uiso   1.00
C337   C     0.26421   0.44926   0.07419   0.00000  Uiso   1.00
C338   C     0.22200   0.46466   0.04131   0.00000  Uiso   1.00
C339   C     0.18788   0.46145   0.12377   0.00000  Uiso   1.00
C340   C     0.32278   0.40104   0.99367   0.00000  Uiso   1.00
C341   C     0.32982   0.37591   0.89308   0.00000  Uiso   1.00
C342   C     0.34502   0.33211   0.90774   0.00000  Uiso   1.00
C343   C     0.34170   0.47574   0.06614   0.00000  Uiso   1.00
C344   C     0.36466   0.51341   0.02647   0.00000  Uiso   1.00
C345   C     0.39580   0.53249   0.10213   0.00000  Uiso   1.00
H346   H     0.32684   0.40248   0.28941   0.00000  Uiso   1.00
H347   H     0.24409   0.41412   0.35413   0.00000  Uiso   1.00
H348   H     0.35191   0.32539   0.20591   0.00000  Uiso   1.00
H349   H     0.38674   0.46287   0.33929   0.00000  Uiso   1.00
H350   H     0.14888   0.43495   0.37678   0.00000  Uiso   1.00
H351   H     0.37623   0.24785   0.06427   0.00000  Uiso   1.00
H352   H     0.44969   0.53775   0.34551   0.00000  Uiso   1.00
H353   H     0.30014   0.46357   0.91121   0.00000  Uiso   1.00
H354   H     0.21593   0.47858   0.95518   0.00000  Uiso   1.00
H355   H     0.32374   0.38983   0.80697   0.00000  Uiso   1.00
H356   H     0.35857   0.52732   0.94034   0.00000  Uiso   1.00
H357   H     0.12602   0.48726   0.05298   0.00000  Uiso   1.00
H358   H     0.35337   0.30015   0.74046   0.00000  Uiso   1.00
H359   H     0.42682   0.59006   0.02171   0.00000  Uiso   1.00
O360   O     0.08253   0.46986   0.25061   0.00000  Uiso   1.00
O361   O     0.38081   0.22439   0.84061   0.00000  Uiso   1.00
O362   O     0.47718   0.60474   0.20959   0.00000  Uiso   1.00
N363   N     0.15506   0.44521   0.29455   0.00000  Uiso   1.00
N364   N     0.36761   0.27028   0.00237   0.00000  Uiso   1.00
N365   N     0.43629   0.54131   0.26529   0.00000  Uiso   1.00
N366   N     0.14276   0.47336   0.12032   0.00000  Uiso   1.00
N367   N     0.35531   0.29842   0.82813   0.00000  Uiso   1.00
N368   N     0.42399   0.56945   0.09106   0.00000  Uiso   1.00
C369   C     0.91648   0.17928   0.29723   0.00000  Uiso   1.00
C370   C     0.93128   0.22794   0.31451   0.00000  Uiso   1.00
C371   C     0.92804   0.26200   0.23199   0.00000  Uiso   1.00
C372   C     0.94344   0.30425   0.26474   0.00000  Uiso   1.00
C373   C     0.96367   0.37862   0.27465   0.00000  Uiso   1.00
C374   C     0.88306   0.16936   0.39504   0.00000  Uiso   1.00
C375   C     0.83929   0.15417   0.38022   0.00000  Uiso   1.00
C376   C     0.81410   0.14711   0.48077   0.00000  Uiso   1.00
C377   C     0.75948   0.13051   0.61571   0.00000  Uiso   1.00
C378   C     0.95776   0.15044   0.32257   0.00000  Uiso   1.00
C379   C     0.97679   0.11933   0.24683   0.00000  Uiso   1.00
C380   C     0.01448   0.09633   0.28637   0.00000  Uiso   1.00
C381   C     0.07585   0.05035   0.30879   0.00000  Uiso   1.00
C382   C     0.94957   0.19374   0.50214   0.00000  Uiso   1.00
C383   C     0.94926   0.23579   0.42581   0.00000  Uiso   1.00
C384   C     0.96466   0.27800   0.45869   0.00000  Uiso   1.00
C385   C     0.96145   0.31212   0.37623   0.00000  Uiso   1.00
C386   C     0.90104   0.17722   0.50633   0.00000  Uiso   1.00
C387   C     0.87591   0.17018   0.60692   0.00000  Uiso   1.00
C388   C     0.83211   0.15498   0.59226   0.00000  Uiso   1.00
C389   C     0.97574   0.15830   0.43386   0.00000  Uiso   1.00
C390   C     0.01341   0.13534   0.47353   0.00000  Uiso   1.00
C391   C     0.03249   0.10420   0.39787   0.00000  Uiso   1.00
H392   H     0.90248   0.17316   0.21059   0.00000  Uiso   1.00
H393   H     0.91412   0.25591   0.14587   0.00000  Uiso   1.00
H394   H     0.82539   0.14809   0.29409   0.00000  Uiso   1.00
H395   H     0.96287   0.11326   0.16071   0.00000  Uiso   1.00
H396   H     0.93495   0.35112   0.12322   0.00000  Uiso   1.00
H397   H     0.74785   0.12377   0.43573   0.00000  Uiso   1.00
H398   H     0.03775   0.05031   0.15449   0.00000  Uiso   1.00
H399   H     0.96357   0.19986   0.58879   0.00000  Uiso   1.00
H400   H     0.97858   0.28407   0.54482   0.00000  Uiso   1.00
H401   H     0.88983   0.17626   0.69303   0.00000  Uiso   1.00
H402   H     0.02732   0.14143   0.55966   0.00000  Uiso   1.00
H403   H     0.98726   0.37398   0.44702   0.00000  Uiso   1.00
H404   H     0.80015   0.14663   0.75954   0.00000  Uiso   1.00
H405   H     0.09006   0.07318   0.47829   0.00000  Uiso   1.00
O406   O     0.96986   0.41747   0.24939   0.00000  Uiso   1.00
O407   O     0.72439   0.11919   0.65939   0.00000  Uiso   1.00
O408   O     0.10474   0.02282   0.29041   0.00000  Uiso   1.00
N409   N     0.94521   0.34494   0.20545   0.00000  Uiso   1.00
N410   N     0.77028   0.13239   0.49763   0.00000  Uiso   1.00
N411   N     0.04131   0.06371   0.23471   0.00000  Uiso   1.00
N412   N     0.97336   0.35724   0.37968   0.00000  Uiso   1.00
N413   N     0.79842   0.14469   0.67187   0.00000  Uiso   1.00
N414   N     0.06945   0.07601   0.40894   0.00000  Uiso   1.00
C415   C     0.41648   0.67928   0.79723   0.00000  Uiso   1.00
C416   C     0.43128   0.72794   0.81451   0.00000  Uiso   1.00
C417   C     0.42804   0.76200   0.73199   0.00000  Uiso   1.00
C418   C     0.44344   0.80425   0.76474   0.00000  Uiso   1.00
C419   C     0.46367   0.87862   0.77465   0.00000  Uiso   1.00
C420   C     0.38306   0.66936   0.89504   0.00000  Uiso   1.00
C421   C     0.33929   0.65417   0.88022   0.00000  Uiso   1.00
C422   C     0.31410   0.64711   0.98077   0.00000  Uiso   1.00
C423   C     0.25948   0.63051   0.11571   0.00000  Uiso   1.00
C424   C     0.45776   0.65044   0.82257   0.00000  Uiso   1.00
C425   C     0.47679   0.61933   0.74683   0.00000  Uiso   1.00
C426   C     0.51448   0.59633   0.78637   0.00000  Uiso   1.00
C427   C     0.57585   0.55035   0.80879   0.00000  Uiso   1.00
C428   C     0.44957   0.69374   0.00214   0.00000  Uiso   1.00
C429   C     0.44926   0.73579   0.92581   0.00000  Uiso   1.00
C430   C     0.46466   0.77800   0.95869   0.00000  Uiso   1.00
C431   C     0.46145   0.81212   0.87623   0.00000  Uiso   1.00
C432   C     0.40104   0.67722   0.00633   0.00000  Uiso   1.00
C433   C     0.37591   0.67018   0.10692   0.00000  Uiso   1.00
C434   C     0.33211   0.65498   0.09226   0.00000  Uiso   1.00
C435   C     0.47574   0.65830   0.93386   0.00000  Uiso   1.00
C436   C     0.51341   0.63534   0.97353   0.00000  Uiso   1.00
C437   C     0.53249   0.60420   0.89787   0.00000  Uiso   1.00
H438   H     0.40248   0.67316   0.71059   0.00000  Uiso   1.00
H439   H     0.41412   0.75591   0.64587   0.00000  Uiso   1.00
H440   H     0.32539   0.64809   0.79409   0.00000  Uiso   1.00
H441   H     0.46287   0.61326   0.66071   0.00000  Uiso   1.00
H442   H     0.43495   0.85112   0.62322   0.00000  Uiso   1.00
H443   H     0.24785   0.62377   0.93573   0.00000  Uiso   1.00
H444   H     0.53775   0.55031   0.65449   0.00000  Uiso   1.00
H445   H     0.46357   0.69986   0.08879   0.00000  Uiso   1.00
H446   H     0.47858   0.78407   0.04482   0.00000  Uiso   1.00
H447   H     0.38983   0.67626   0.19303   0.00000  Uiso   1.00
H448   H     0.52732   0.64143   0.05966   0.00000  Uiso   1.00
H449   H     0.48726   0.87398   0.94702   0.00000  Uiso   1.00
H450   H     0.30015   0.64663   0.25954   0.00000  Uiso   1.00
H451   H     0.59006   0.57318   0.97829   0.00000  Uiso   1.00
O452   O     0.46986   0.91747   0.74939   0.00000  Uiso   1.00
O453   O     0.22439   0.61919   0.15939   0.00000  Uiso   1.00
O454   O     0.60474   0.52282   0.79041   0.00000  Uiso   1.00
N455   N     0.44521   0.84494   0.70545   0.00000  Uiso   1.00
N456   N     0.27028   0.63239   0.99763   0.00000  Uiso   1.00
N457   N     0.54131   0.56371   0.73471   0.00000  Uiso   1.00
N458   N     0.47336   0.85724   0.87968   0.00000  Uiso   1.00
N459   N     0.29842   0.64469   0.17187   0.00000  Uiso   1.00
N460   N     0.56945   0.57601   0.90894   0.00000  Uiso   1.00
C461   C     0.58352   0.32072   0.79723   0.00000  Uiso   1.00
C462   C     0.56872   0.27206   0.81451   0.00000  Uiso   1.00
C463   C     0.57196   0.23800   0.73199   0.00000  Uiso   1.00
C464   C     0.55656   0.19575   0.76474   0.00000  Uiso   1.00
C465   C     0.53633   0.12138   0.77465   0.00000  Uiso   1.00
C466   C     0.61694   0.33064   0.89504   0.00000  Uiso   1.00
C467   C     0.66071   0.34583   0.88022   0.00000  Uiso   1.00
C468   C     0.68590   0.35289   0.98077   0.00000  Uiso   1.00
C469   C     0.74052   0.36949   0.11571   0.00000  Uiso   1.00
C470   C     0.54224   0.34956   0.82257   0.00000  Uiso   1.00
C471   C     0.52321   0.38067   0.74683   0.00000  Uiso   1.00
C472   C     0.48552   0.40367   0.78637   0.00000  Uiso   1.00
C473   C     0.42415   0.44965   0.80879   0.00000  Uiso   1.00
C474   C     0.55043   0.30626   0.00214   0.00000  Uiso   1.00
C475   C     0.55074   0.26421   0.92581   0.00000  Uiso   1.00
C476   C     0.53534   0.22200   0.95869   0.00000  Uiso   1.00
C477   C     0.53855   0.18788   0.87623   0.00000  Uiso   1.00
C478   C     0.59896   0.32278   0.00633   0.00000  Uiso   1.00
C479   C     0.62409   0.32982   0.10692   0.00000  Uiso   1.00
C480   C     0.66789   0.34502   0.09226   0.00000  Uiso   1.00
C481   C     0.52426   0.34170   0.93386   0.00000  Uiso   1.00
C482   C     0.48659   0.36466   0.97353   0.00000  Uiso   1.00
C483   C     0.46751   0.39580   0.89787   0.00000  Uiso   1.00
H484   H     0.59752   0.32684   0.71059   0.00000  Uiso   1.00
H485   H     0.58588   0.24409   0.64587   0.00000  Uiso   1.00
H486   H     0.67461   0.35191   0.79409   0.00000  Uiso   1.00
H487   H     0.53713   0.38674   0.66071   0.00000  Uiso   1.00
H488   H     0.56505   0.14888   0.62322   0.00000  Uiso   1.00
H489   H     0.75215   0.37623   0.93573   0.00000  Uiso   1.00
H490   H     0.46225   0.44969   0.65449   0.00000  Uiso   1.00
H491   H     0.53643   0.30014   0.08879   0.00000  Uiso   1.00
H492   H     0.52142   0.21593   0.04482   0.00000  Uiso   1.00
H493   H     0.61017   0.32374   0.19303   0.00000  Uiso   1.00
H494   H     0.47268   0.35857   0.05966   0.00000  Uiso   1.00
H495   H     0.51274   0.12602   0.94702   0.00000  Uiso   1.00
H496   H     0.69985   0.35337   0.25954   0.00000  Uiso   1.00
H497   H     0.40994   0.42682   0.97829   0.00000  Uiso   1.00
O498   O     0.53014   0.08253   0.74939   0.00000  Uiso   1.00
O499   O     0.77561   0.38081   0.15939   0.00000  Uiso   1.00
O500   O     0.39526   0.47718   0.79041   0.00000  Uiso   1.00
N501   N     0.55479   0.15506   0.70545   0.00000  Uiso   1.00
N502   N     0.72972   0.36761   0.99763   0.00000  Uiso   1.00
N503   N     0.45869   0.43629   0.73471   0.00000  Uiso   1.00
N504   N     0.52664   0.14276   0.87968   0.00000  Uiso   1.00
N505   N     0.70158   0.35531   0.17187   0.00000  Uiso   1.00
N506   N     0.43055   0.42399   0.90894   0.00000  Uiso   1.00
C507   C     0.08352   0.82072   0.29723   0.00000  Uiso   1.00
C508   C     0.06872   0.77206   0.31451   0.00000  Uiso   1.00
C509   C     0.07196   0.73800   0.23199   0.00000  Uiso   1.00
C510   C     0.05656   0.69575   0.26474   0.00000  Uiso   1.00
C511   C     0.03633   0.62138   0.27465   0.00000  Uiso   1.00
C512   C     0.11694   0.83064   0.39504   0.00000  Uiso   1.00
C513   C     0.16071   0.84583   0.38022   0.00000  Uiso   1.00
C514   C     0.18590   0.85289   0.48077   0.00000  Uiso   1.00
C515   C     0.24052   0.86949   0.61571   0.00000  Uiso   1.00
C516   C     0.04224   0.84956   0.32257   0.00000  Uiso   1.00
C517   C     0.02321   0.88067   0.24683   0.00000  Uiso   1.00
C518   C     0.98552   0.90367   0.28637   0.00000  Uiso   1.00
C519   C     0.92415   0.94965   0.30879   0.00000  Uiso   1.00
C520   C     0.05043   0.80626   0.50214   0.00000  Uiso   1.00
C521   C     0.05074   0.76421   0.42581   0.00000  Uiso   1.00
C522   C     0.03534   0.72200   0.45869   0.00000  Uiso   1.00
C523   C     0.03855   0.68788   0.37623   0.00000  Uiso   1.00
C524   C     0.09896   0.82278   0.50633   0.00000  Uiso   1.00
C525   C     0.12409   0.82982   0.60692   0.00000  Uiso   1.00
C526   C     0.16789   0.84502   0.59226   0.00000  Uiso   1.00
C527   C     0.02426   0.84170   0.43386   0.00000  Uiso   1.00
C528   C     0.98659   0.86466   0.47353   0.00000  Uiso   1.00
C529   C     0.96751   0.89580   0.39787   0.00000  Uiso   1.00
H530   H     0.09752   0.82684   0.21059   0.00000  Uiso   1.00
H531   H     0.08588   0.74409   0.14587   0.00000  Uiso   1.00
H532   H     0.17461   0.85191   0.29409   0.00000  Uiso   1.00
H533   H     0.03713   0.88674   0.16071   0.00000  Uiso   1.00
H534   H     0.06505   0.64888   0.12322   0.00000  Uiso   1.00
H535   H     0.25215   0.87623   0.43573   0.00000  Uiso   1.00
H536   H     0.96225   0.94969   0.15449   0.00000  Uiso   1.00
H537   H     0.03643   0.80014   0.58879   0.00000  Uiso   1.00
H538   H     0.02142   0.71593   0.54482   0.00000  Uiso   1.00
H539   H     0.11017   0.82374   0.69303   0.00000  Uiso   1.00
H540   H     0.97268   0.85857   0.55966   0.00000  Uiso   1.00
H541   H     0.01274   0.62602   0.44702   0.00000  Uiso   1.00
H542   H     0.19985   0.85337   0.75954   0.00000  Uiso   1.00
H543   H     0.90994   0.92682   0.47829   0.00000  Uiso   1.00
O544   O     0.03014   0.58253   0.24939   0.00000  Uiso   1.00
O545   O     0.27561   0.88081   0.65939   0.00000  Uiso   1.00
O546   O     0.89526   0.97718   0.29041   0.00000  Uiso   1.00
N547   N     0.05479   0.65506   0.20545   0.00000  Uiso   1.00
N548   N     0.22972   0.86761   0.49763   0.00000  Uiso   1.00
N549   N     0.95869   0.93629   0.23471   0.00000  Uiso   1.00
N550   N     0.02664   0.64276   0.37968   0.00000  Uiso   1.00
N551   N     0.20158   0.85531   0.67187   0.00000  Uiso   1.00
N552   N     0.93055   0.92399   0.40894   0.00000  Uiso   1.00
C553   C     0.32072   0.91648   0.04723   0.00000  Uiso   1.00
C554   C     0.27206   0.93128   0.06451   0.00000  Uiso   1.00
C555   C     0.23800   0.92804   0.98199   0.00000  Uiso   1.00
C556   C     0.19575   0.94344   0.01474   0.00000  Uiso   1.00
C557   C     0.12138   0.96367   0.02465   0.00000  Uiso   1.00
C558   C     0.33064   0.88306   0.14504   0.00000  Uiso   1.00
C559   C     0.34583   0.83929   0.13022   0.00000  Uiso   1.00
C560   C     0.35289   0.81410   0.23077   0.00000  Uiso   1.00
C561   C     0.36949   0.75948   0.36571   0.00000  Uiso   1.00
C562   C     0.34956   0.95776   0.07257   0.00000  Uiso   1.00
C563   C     0.38067   0.97679   0.99683   0.00000  Uiso   1.00
C564   C     0.40367   0.01448   0.03637   0.00000  Uiso   1.00
C565   C     0.44965   0.07585   0.05879   0.00000  Uiso   1.00
C566   C     0.30626   0.94957   0.25214   0.00000  Uiso   1.00
C567   C     0.26421   0.94926   0.17581   0.00000  Uiso   1.00
C568   C     0.22200   0.96466   0.20869   0.00000  Uiso   1.00
C569   C     0.18788   0.96145   0.12623   0.00000  Uiso   1.00
C570   C     0.32278   0.90104   0.25633   0.00000  Uiso   1.00
C571   C     0.32982   0.87591   0.35692   0.00000  Uiso   1.00
C572   C     0.34502   0.83211   0.34226   0.00000  Uiso   1.00
C573   C     0.34170   0.97574   0.18386   0.00000  Uiso   1.00
C574   C     0.36466   0.01341   0.22353   0.00000  Uiso   1.00
C575   C     0.39580   0.03249   0.14787   0.00000  Uiso   1.00
H576   H     0.32684   0.90248   0.96059   0.00000  Uiso   1.00
H577   H     0.24409   0.91412   0.89587   0.00000  Uiso   1.00
H578   H     0.35191   0.82539   0.04409   0.00000  Uiso   1.00
H579   H     0.38674   0.96287   0.91071   0.00000  Uiso   1.00
H580   H     0.14888   0.93495   0.87322   0.00000  Uiso   1.00
H581   H     0.37623   0.74785   0.18573   0.00000  Uiso   1.00
H582   H     0.44969   0.03775   0.90449   0.00000  Uiso   1.00
H583   H     0.30014   0.96357   0.33879   0.00000  Uiso   1.00
H584   H     0.21593   0.97858   0.29482   0.00000  Uiso   1.00
H585   H     0.32374   0.88983   0.44303   0.00000  Uiso   1.00
H586   H     0.35857   0.02732   0.30966   0.00000  Uiso   1.00
H587   H     0.12602   0.98726   0.19702   0.00000  Uiso   1.00
H588   H     0.35337   0.80015   0.50954   0.00000  Uiso   1.00
H589   H     0.42682   0.09006   0.22829   0.00000  Uiso   1.00
O590   O     0.08253   0.96986   0.99939   0.00000  Uiso   1.00
O591   O     0.38081   0.72439   0.40939   0.00000  Uiso   1.00
O592   O     0.47718   0.10474   0.04041   0.00000  Uiso   1.00
N593   N     0.15506   0.94521   0.95545   0.00000  Uiso   1.00
N594   N     0.36761   0.77028   0.24763   0.00000  Uiso   1.00
N595   N     0.43629   0.04131   0.98471   0.00000  Uiso   1.00
N596   N     0.14276   0.97336   0.12968   0.00000  Uiso   1.00
N597   N     0.35531   0.79842   0.42187   0.00000  Uiso   1.00
N598   N     0.42399   0.06945   0.15894   0.00000  Uiso   1.00
C599   C     0.82072   0.41648   0.54723   0.00000  Uiso   1.00
C600   C     0.77206   0.43128   0.56451   0.00000  Uiso   1.00
C601   C     0.73800   0.42804   0.48199   0.00000  Uiso   1.00
C602   C     0.69575   0.44344   0.51474   0.00000  Uiso   1.00
C603   C     0.62138   0.46367   0.52465   0.00000  Uiso   1.00
C604   C     0.83064   0.38306   0.64504   0.00000  Uiso   1.00
C605   C     0.84583   0.33929   0.63022   0.00000  Uiso   1.00
C606   C     0.85289   0.31410   0.73077   0.00000  Uiso   1.00
C607   C     0.86949   0.25948   0.86571   0.00000  Uiso   1.00
C608   C     0.84956   0.45776   0.57257   0.00000  Uiso   1.00
C609   C     0.88067   0.47679   0.49683   0.00000  Uiso   1.00
C610   C     0.90367   0.51448   0.53637   0.00000  Uiso   1.00
C611   C     0.94965   0.57585   0.55879   0.00000  Uiso   1.00
C612   C     0.80626   0.44957   0.75214   0.00000  Uiso   1.00
C613   C     0.76421   0.44926   0.67581   0.00000  Uiso   1.00
C614   C     0.72200   0.46466   0.70869   0.00000  Uiso   1.00
C615   C     0.68788   0.46145   0.62623   0.00000  Uiso   1.00
C616   C     0.82278   0.40104   0.75633   0.00000  Uiso   1.00
C617   C     0.82982   0.37591   0.85692   0.00000  Uiso   1.00
C618   C     0.84502   0.33211   0.84226   0.00000  Uiso   1.00
C619   C     0.84170   0.47574   0.68386   0.00000  Uiso   1.00
C620   C     0.86466   0.51341   0.72353   0.00000  Uiso   1.00
C621   C     0.89580   0.53249   0.64787   0.00000  Uiso   1.00
H622   H     0.82684   0.40248   0.46059   0.00000  Uiso   1.00
H623   H     0.74409   0.41412   0.39587   0.00000  Uiso   1.00
H624   H     0.85191   0.32539   0.54409   0.00000  Uiso   1.00
H625   H     0.88674   0.46287   0.41071   0.00000  Uiso   1.00
H626   H     0.64888   0.43495   0.37322   0.00000  Uiso   1.00
H627   H     0.87623   0.24785   0.68573   0.00000  Uiso   1.00
H628   H     0.94969   0.53775   0.40449   0.00000  Uiso   1.00
H629   H     0.80014   0.46357   0.83879   0.00000  Uiso   1.00
H630   H     0.71593   0.47858   0.79482   0.00000  Uiso   1.00
H631   H     0.82374   0.38983   0.94303   0.00000  Uiso   1.00
H632   H     0.85857   0.52732   0.80966   0.00000  Uiso   1.00
H633   H     0.62602   0.48726   0.69702   0.00000  Uiso   1.00
H634   H     0.85337   0.30015   0.00954   0.00000  Uiso   1.00
H635   H     0.92682   0.59006   0.72829   0.00000  Uiso   1.00
O636   O     0.58253   0.46986   0.49939   0.00000  Uiso   1.00
O637   O     0.88081   0.22439   0.90939   0.00000  Uiso   1.00
O638   O     0.97718   0.60474   0.54041   0.00000  Uiso   1.00
N639   N     0.65506   0.44521   0.45545   0.00000  Uiso   1.00
N640   N     0.86761   0.27028   0.74763   0.00000  Uiso   1.00
N641   N     0.93629   0.54131   0.48471   0.00000  Uiso   1.00
N642   N     0.64276   0.47336   0.62968   0.00000  Uiso   1.00
N643   N     0.85531   0.29842   0.92187   0.00000  Uiso   1.00
N644   N     0.92399   0.56945   0.65894   0.00000  Uiso   1.00
C645   C     0.17928   0.58352   0.54723   0.00000  Uiso   1.00
C646   C     0.22794   0.56872   0.56451   0.00000  Uiso   1.00
C647   C     0.26200   0.57196   0.48199   0.00000  Uiso   1.00
C648   C     0.30425   0.55656   0.51474   0.00000  Uiso   1.00
C649   C     0.37862   0.53633   0.52465   0.00000  Uiso   1.00
C650   C     0.16936   0.61694   0.64504   0.00000  Uiso   1.00
C651   C     0.15417   0.66071   0.63022   0.00000  Uiso   1.00
C652   C     0.14711   0.68590   0.73077   0.00000  Uiso   1.00
C653   C     0.13051   0.74052   0.86571   0.00000  Uiso   1.00
C654   C     0.15044   0.54224   0.57257   0.00000  Uiso   1.00
C655   C     0.11933   0.52321   0.49683   0.00000  Uiso   1.00
C656   C     0.09633   0.48552   0.53637   0.00000  Uiso   1.00
C657   C     0.05035   0.42415   0.55879   0.00000  Uiso   1.00
C658   C     0.19374   0.55043   0.75214   0.00000  Uiso   1.00
C659   C     0.23579   0.55074   0.67581   0.00000  Uiso   1.00
C660   C     0.27800   0.53534   0.70869   0.00000  Uiso   1.00
C661   C     0.31212   0.53855   0.62623   0.00000  Uiso   1.00
C662   C     0.17722   0.59896   0.75633   0.00000  Uiso   1.00
C663   C     0.17018   0.62409   0.85692   0.00000  Uiso   1.00
C664   C     0.15498   0.66789   0.84226   0.00000  Uiso   1.00
C665   C     0.15830   0.52426   0.68386   0.00000  Uiso   1.00
C666   C     0.13534   0.48659   0.72353   0.00000  Uiso   1.00
C667   C     0.10420   0.46751   0.64787   0.00000  Uiso   1.00
H668   H     0.17316   0.59752   0.46059   0.00000  Uiso   1.00
H669   H     0.25591   0.58588   0.39587   0.00000  Uiso   1.00
H670   H     0.14809   0.67461   0.54409   0.00000  Uiso   1.00
H671   H     0.11326   0.53713   0.41071   0.00000  Uiso   1.00
H672   H     0.35112   0.56505   0.37322   0.00000  Uiso   1.00
H673   H     0.12377   0.75215   0.68573   0.00000  Uiso   1.00
H674   H     0.05031   0.46225   0.40449   0.00000  Uiso   1.00
H675   H     0.19986   0.53643   0.83879   0.00000  Uiso   1.00
H676   H     0.28407   0.52142   0.79482   0.00000  Uiso   1.00
H677   H     0.17626   0.61017   0.94303   0.00000  Uiso   1.00
H678   H     0.14143   0.47268   0.80966   0.00000  Uiso   1.00
H679   H     0.37398   0.51274   0.69702   0.00000  Uiso   1.00
H680   H     0.14663   0.69985   0.00954   0.00000  Uiso   1.00
H681   H     0.07318   0.40994   0.72829   0.00000  Uiso   1.00
O682   O     0.41747   0.53014   0.49939   0.00000  Uiso   1.00
O683   O     0.11919   0.77561   0.90939   0.00000  Uiso   1.00
O684   O     0.02282   0.39526   0.54041   0.00000  Uiso   1.00
N685   N     0.34494   0.55479   0.45545   0.00000  Uiso   1.00
N686   N     0.13239   0.72972   0.74763   0.00000  Uiso   1.00
N687   N     0.06371   0.45869   0.48471   0.00000  Uiso   1.00
N688   N     0.35724   0.52664   0.62968   0.00000  Uiso   1.00
N689   N     0.14469   0.70158   0.92187   0.00000  Uiso   1.00
N690   N     0.07601   0.43055   0.65894   0.00000  Uiso   1.00
C691   C     0.67928   0.08352   0.04723   0.00000  Uiso   1.00
C692   C     0.72794   0.06872   0.06451   0.00000  Uiso   1.00
C693   C     0.76200   0.07196   0.98199   0.00000  Uiso   1.00
C694   C     0.80425   0.05656   0.01474   0.00000  Uiso   1.00
C695   C     0.87862   0.03633   0.02465   0.00000  Uiso   1.00
C696   C     0.66936   0.11694   0.14504   0.00000  Uiso   1.00
C697   C     0.65417   0.16071   0.13022   0.00000  Uiso   1.00
C698   C     0.64711   0.18590   0.23077   0.00000  Uiso   1.00
C699   C     0.63051   0.24052   0.36571   0.00000  Uiso   1.00
C700   C     0.65044   0.04224   0.07257   0.00000  Uiso   1.00
C701   C     0.61933   0.02321   0.99683   0.00000  Uiso   1.00
C702   C     0.59633   0.98552   0.03637   0.00000  Uiso   1.00
C703   C     0.55035   0.92415   0.05879   0.00000  Uiso   1.00
C704   C     0.69374   0.05043   0.25214   0.00000  Uiso   1.00
C705   C     0.73579   0.05074   0.17581   0.00000  Uiso   1.00
C706   C     0.77800   0.03534   0.20869   0.00000  Uiso   1.00
C707   C     0.81212   0.03855   0.12623   0.00000  Uiso   1.00
C708   C     0.67722   0.09896   0.25633   0.00000  Uiso   1.00
C709   C     0.67018   0.12409   0.35692   0.00000  Uiso   1.00
C710   C     0.65498   0.16789   0.34226   0.00000  Uiso   1.00
C711   C     0.65830   0.02426   0.18386   0.00000  Uiso   1.00
C712   C     0.63534   0.98659   0.22353   0.00000  Uiso   1.00
C713   C     0.60420   0.96751   0.14787   0.00000  Uiso   1.00
H714   H     0.67316   0.09752   0.96059   0.00000  Uiso   1.00
H715   H     0.75591   0.08588   0.89587   0.00000  Uiso   1.00
H716   H     0.64809   0.17461   0.04409   0.00000  Uiso   1.00
H717   H     0.61326   0.03713   0.91071   0.00000  Uiso   1.00
H718   H     0.85112   0.06505   0.87322   0.00000  Uiso   1.00
H719   H     0.62377   0.25215   0.18573   0.00000  Uiso   1.00
H720   H     0.55031   0.96225   0.90449   0.00000  Uiso   1.00
H721   H     0.69986   0.03643   0.33879   0.00000  Uiso   1.00
H722   H     0.78407   0.02142   0.29482   0.00000  Uiso   1.00
H723   H     0.67626   0.11017   0.44303   0.00000  Uiso   1.00
H724   H     0.64143   0.97268   0.30966   0.00000  Uiso   1.00
H725   H     0.87398   0.01274   0.19702   0.00000  Uiso   1.00
H726   H     0.64663   0.19985   0.50954   0.00000  Uiso   1.00
H727   H     0.57318   0.90994   0.22829   0.00000  Uiso   1.00
O728   O     0.91747   0.03014   0.99939   0.00000  Uiso   1.00
O729   O     0.61919   0.27561   0.40939   0.00000  Uiso   1.00
O730   O     0.52282   0.89526   0.04041   0.00000  Uiso   1.00
N731   N     0.84494   0.05479   0.95545   0.00000  Uiso   1.00
N732   N     0.63239   0.22972   0.24763   0.00000  Uiso   1.00
N733   N     0.56371   0.95869   0.98471   0.00000  Uiso   1.00
N734   N     0.85724   0.02664   0.12968   0.00000  Uiso   1.00
N735   N     0.64469   0.20158   0.42187   0.00000  Uiso   1.00
N736   N     0.57601   0.93055   0.15894   0.00000  Uiso   1.00
