data_job_03255
_audit_creation_date              2018-12-19
_audit_creation_method            'Materials Studio'
_symmetry_space_group_name_H-M    'P1'
_symmetry_Int_Tables_number       1
_symmetry_cell_setting            triclinic
loop_
_symmetry_equiv_pos_as_xyz
  x,y,z
_cell_length_a                    23.1064
_cell_length_b                    23.1064
_cell_length_c                    29.7227
_cell_angle_alpha                 90.0000
_cell_angle_beta                  90.0000
_cell_angle_gamma                 90.0000
loop_
_atom_site_label
_atom_site_type_symbol
_atom_site_fract_x
_atom_site_fract_y
_atom_site_fract_z
_atom_site_U_iso_or_equiv
_atom_site_adp_type
_atom_site_occupancy
C1     C     0.88184   0.68559   0.54665   0.00000  Uiso   1.00
C2     C     0.93953   0.65701   0.55794   0.00000  Uiso   1.00
C3     C     0.95799   0.64116   0.60062   0.00000  Uiso   1.00
C4     C     0.01219   0.61558   0.60390   0.00000  Uiso   1.00
C5     C     0.09654   0.57265   0.62721   0.00000  Uiso   1.00
C6     C     0.89668   0.74149   0.52193   0.00000  Uiso   1.00
C7     C     0.87910   0.79665   0.53435   0.00000  Uiso   1.00
C8     C     0.89722   0.84218   0.50731   0.00000  Uiso   1.00
C9     C     0.91500   0.93040   0.47471   0.00000  Uiso   1.00
C10    C     0.85279   0.64646   0.51206   0.00000  Uiso   1.00
C11    C     0.79830   0.62175   0.51616   0.00000  Uiso   1.00
C12    C     0.77947   0.58728   0.48081   0.00000  Uiso   1.00
C13    C     0.72911   0.52796   0.43288   0.00000  Uiso   1.00
C14    C     0.94528   0.66835   0.47656   0.00000  Uiso   1.00
C15    C     0.97399   0.64765   0.51986   0.00000  Uiso   1.00
C16    C     0.02818   0.62208   0.52308   0.00000  Uiso   1.00
C17    C     0.04671   0.60619   0.56576   0.00000  Uiso   1.00
C18    C     0.93113   0.73212   0.48386   0.00000  Uiso   1.00
C19    C     0.94928   0.77757   0.45680   0.00000  Uiso   1.00
C20    C     0.93174   0.83280   0.46917   0.00000  Uiso   1.00
C21    C     0.88725   0.63709   0.47399   0.00000  Uiso   1.00
C22    C     0.86849   0.60267   0.43862   0.00000  Uiso   1.00
C23    C     0.81399   0.57790   0.44267   0.00000  Uiso   1.00
H24    H     0.85501   0.69289   0.57629   0.00000  Uiso   1.00
H25    H     0.93131   0.64842   0.63008   0.00000  Uiso   1.00
H26    H     0.85243   0.80389   0.56381   0.00000  Uiso   1.00
H27    H     0.77165   0.62901   0.54563   0.00000  Uiso   1.00
H28    H     0.03111   0.59501   0.67292   0.00000  Uiso   1.00
H29    H     0.86476   0.92282   0.53318   0.00000  Uiso   1.00
H30    H     0.69442   0.55405   0.49485   0.00000  Uiso   1.00
H31    H     0.97210   0.66105   0.44692   0.00000  Uiso   1.00
H32    H     0.05483   0.61484   0.49361   0.00000  Uiso   1.00
H33    H     0.97594   0.77031   0.42734   0.00000  Uiso   1.00
H34    H     0.89517   0.59543   0.40916   0.00000  Uiso   1.00
H35    H     0.13136   0.56775   0.56216   0.00000  Uiso   1.00
H36    H     0.96501   0.89557   0.42241   0.00000  Uiso   1.00
H37    H     0.79467   0.52680   0.38408   0.00000  Uiso   1.00
O38    O     0.13355   0.55157   0.65059   0.00000  Uiso   1.00
O39    O     0.91530   0.98165   0.46725   0.00000  Uiso   1.00
O40    O     0.69182   0.49783   0.41696   0.00000  Uiso   1.00
N41    N     0.04335   0.59493   0.64045   0.00000  Uiso   1.00
N42    N     0.88783   0.90141   0.50980   0.00000  Uiso   1.00
N43    N     0.72857   0.55666   0.47396   0.00000  Uiso   1.00
N44    N     0.09729   0.58026   0.58084   0.00000  Uiso   1.00
N45    N     0.94177   0.88675   0.45020   0.00000  Uiso   1.00
N46    N     0.78251   0.54199   0.41436   0.00000  Uiso   1.00
C47    C     0.38184   0.18559   0.04665   0.00000  Uiso   1.00
C48    C     0.43953   0.15701   0.05794   0.00000  Uiso   1.00
C49    C     0.45799   0.14116   0.10062   0.00000  Uiso   1.00
C50    C     0.51219   0.11558   0.10390   0.00000  Uiso   1.00
C51    C     0.59654   0.07265   0.12721   0.00000  Uiso   1.00
C52    C     0.39668   0.24149   0.02193   0.00000  Uiso   1.00
C53    C     0.37910   0.29665   0.03435   0.00000  Uiso   1.00
C54    C     0.39722   0.34218   0.00731   0.00000  Uiso   1.00
C55    C     0.41500   0.43040   0.97471   0.00000  Uiso   1.00
C56    C     0.35279   0.14646   0.01206   0.00000  Uiso   1.00
C57    C     0.29830   0.12175   0.01616   0.00000  Uiso   1.00
C58    C     0.27947   0.08728   0.98081   0.00000  Uiso   1.00
C59    C     0.22911   0.02796   0.93288   0.00000  Uiso   1.00
C60    C     0.44528   0.16835   0.97656   0.00000  Uiso   1.00
C61    C     0.47399   0.14765   0.01986   0.00000  Uiso   1.00
C62    C     0.52818   0.12208   0.02308   0.00000  Uiso   1.00
C63    C     0.54671   0.10619   0.06576   0.00000  Uiso   1.00
C64    C     0.43113   0.23212   0.98386   0.00000  Uiso   1.00
C65    C     0.44928   0.27757   0.95680   0.00000  Uiso   1.00
C66    C     0.43174   0.33280   0.96917   0.00000  Uiso   1.00
C67    C     0.38725   0.13709   0.97399   0.00000  Uiso   1.00
C68    C     0.36849   0.10267   0.93862   0.00000  Uiso   1.00
C69    C     0.31399   0.07790   0.94267   0.00000  Uiso   1.00
H70    H     0.35501   0.19289   0.07629   0.00000  Uiso   1.00
H71    H     0.43131   0.14842   0.13008   0.00000  Uiso   1.00
H72    H     0.35243   0.30389   0.06381   0.00000  Uiso   1.00
H73    H     0.27165   0.12901   0.04563   0.00000  Uiso   1.00
H74    H     0.53111   0.09501   0.17292   0.00000  Uiso   1.00
H75    H     0.36476   0.42282   0.03318   0.00000  Uiso   1.00
H76    H     0.19442   0.05405   0.99485   0.00000  Uiso   1.00
H77    H     0.47210   0.16105   0.94692   0.00000  Uiso   1.00
H78    H     0.55483   0.11484   0.99361   0.00000  Uiso   1.00
H79    H     0.47594   0.27031   0.92734   0.00000  Uiso   1.00
H80    H     0.39517   0.09543   0.90916   0.00000  Uiso   1.00
H81    H     0.63136   0.06775   0.06216   0.00000  Uiso   1.00
H82    H     0.46501   0.39557   0.92241   0.00000  Uiso   1.00
H83    H     0.29467   0.02680   0.88408   0.00000  Uiso   1.00
O84    O     0.63355   0.05157   0.15059   0.00000  Uiso   1.00
O85    O     0.41530   0.48165   0.96725   0.00000  Uiso   1.00
O86    O     0.19182   0.99783   0.91696   0.00000  Uiso   1.00
N87    N     0.54335   0.09493   0.14045   0.00000  Uiso   1.00
N88    N     0.38783   0.40141   0.00980   0.00000  Uiso   1.00
N89    N     0.22857   0.05666   0.97396   0.00000  Uiso   1.00
N90    N     0.59729   0.08026   0.08084   0.00000  Uiso   1.00
N91    N     0.44177   0.38675   0.95020   0.00000  Uiso   1.00
N92    N     0.28251   0.04199   0.91436   0.00000  Uiso   1.00
C93    C     0.61816   0.81441   0.04665   0.00000  Uiso   1.00
C94    C     0.56047   0.84299   0.05794   0.00000  Uiso   1.00
C95    C     0.54201   0.85884   0.10062   0.00000  Uiso   1.00
C96    C     0.48781   0.88442   0.10390   0.00000  Uiso   1.00
C97    C     0.40346   0.92735   0.12721   0.00000  Uiso   1.00
C98    C     0.60332   0.75851   0.02193   0.00000  Uiso   1.00
C99    C     0.62090   0.70335   0.03435   0.00000  Uiso   1.00
C100   C     0.60278   0.65782   0.00731   0.00000  Uiso   1.00
C101   C     0.58500   0.56960   0.97471   0.00000  Uiso   1.00
C102   C     0.64721   0.85354   0.01206   0.00000  Uiso   1.00
C103   C     0.70170   0.87825   0.01616   0.00000  Uiso   1.00
C104   C     0.72053   0.91272   0.98081   0.00000  Uiso   1.00
C105   C     0.77089   0.97204   0.93288   0.00000  Uiso   1.00
C106   C     0.55472   0.83165   0.97656   0.00000  Uiso   1.00
C107   C     0.52601   0.85235   0.01986   0.00000  Uiso   1.00
C108   C     0.47182   0.87792   0.02308   0.00000  Uiso   1.00
C109   C     0.45329   0.89381   0.06576   0.00000  Uiso   1.00
C110   C     0.56887   0.76788   0.98386   0.00000  Uiso   1.00
C111   C     0.55072   0.72243   0.95680   0.00000  Uiso   1.00
C112   C     0.56826   0.66720   0.96917   0.00000  Uiso   1.00
C113   C     0.61275   0.86291   0.97399   0.00000  Uiso   1.00
C114   C     0.63151   0.89733   0.93862   0.00000  Uiso   1.00
C115   C     0.68601   0.92210   0.94267   0.00000  Uiso   1.00
H116   H     0.64499   0.80711   0.07629   0.00000  Uiso   1.00
H117   H     0.56869   0.85158   0.13008   0.00000  Uiso   1.00
H118   H     0.64757   0.69611   0.06381   0.00000  Uiso   1.00
H119   H     0.72835   0.87099   0.04563   0.00000  Uiso   1.00
H120   H     0.46889   0.90499   0.17292   0.00000  Uiso   1.00
H121   H     0.63524   0.57718   0.03318   0.00000  Uiso   1.00
H122   H     0.80558   0.94595   0.99485   0.00000  Uiso   1.00
H123   H     0.52790   0.83895   0.94692   0.00000  Uiso   1.00
H124   H     0.44517   0.88516   0.99361   0.00000  Uiso   1.00
H125   H     0.52406   0.72969   0.92734   0.00000  Uiso   1.00
H126   H     0.60483   0.90457   0.90916   0.00000  Uiso   1.00
H127   H     0.36864   0.93225   0.06216   0.00000  Uiso   1.00
H128   H     0.53499   0.60443   0.92241   0.00000  Uiso   1.00
H129   H     0.70533   0.97320   0.88408   0.00000  Uiso   1.00
O130   O     0.36645   0.94843   0.15059   0.00000  Uiso   1.00
O131   O     0.58470   0.51835   0.96725   0.00000  Uiso   1.00
O132   O     0.80818   0.00217   0.91696   0.00000  Uiso   1.00
N133   N     0.45665   0.90507   0.14045   0.00000  Uiso   1.00
N134   N     0.61217   0.59859   0.00980   0.00000  Uiso   1.00
N135   N     0.77143   0.94334   0.97396   0.00000  Uiso   1.00
N136   N     0.40271   0.91974   0.08084   0.00000  Uiso   1.00
N137   N     0.55823   0.61325   0.95020   0.00000  Uiso   1.00
N138   N     0.71749   0.95801   0.91436   0.00000  Uiso   1.00
C139   C     0.11816   0.31441   0.54665   0.00000  Uiso   1.00
C140   C     0.06047   0.34299   0.55794   0.00000  Uiso   1.00
C141   C     0.04201   0.35884   0.60062   0.00000  Uiso   1.00
C142   C     0.98781   0.38442   0.60390   0.00000  Uiso   1.00
C143   C     0.90346   0.42735   0.62721   0.00000  Uiso   1.00
C144   C     0.10332   0.25851   0.52193   0.00000  Uiso   1.00
C145   C     0.12090   0.20335   0.53435   0.00000  Uiso   1.00
C146   C     0.10278   0.15782   0.50731   0.00000  Uiso   1.00
C147   C     0.08500   0.06960   0.47471   0.00000  Uiso   1.00
C148   C     0.14721   0.35354   0.51206   0.00000  Uiso   1.00
C149   C     0.20170   0.37825   0.51616   0.00000  Uiso   1.00
C150   C     0.22053   0.41272   0.48081   0.00000  Uiso   1.00
C151   C     0.27089   0.47204   0.43288   0.00000  Uiso   1.00
C152   C     0.05472   0.33165   0.47656   0.00000  Uiso   1.00
C153   C     0.02601   0.35235   0.51986   0.00000  Uiso   1.00
C154   C     0.97182   0.37792   0.52308   0.00000  Uiso   1.00
C155   C     0.95329   0.39381   0.56576   0.00000  Uiso   1.00
C156   C     0.06887   0.26788   0.48386   0.00000  Uiso   1.00
C157   C     0.05072   0.22243   0.45680   0.00000  Uiso   1.00
C158   C     0.06826   0.16720   0.46917   0.00000  Uiso   1.00
C159   C     0.11275   0.36291   0.47399   0.00000  Uiso   1.00
C160   C     0.13151   0.39733   0.43862   0.00000  Uiso   1.00
C161   C     0.18601   0.42210   0.44267   0.00000  Uiso   1.00
H162   H     0.14499   0.30711   0.57629   0.00000  Uiso   1.00
H163   H     0.06869   0.35158   0.63008   0.00000  Uiso   1.00
H164   H     0.14757   0.19611   0.56381   0.00000  Uiso   1.00
H165   H     0.22835   0.37099   0.54563   0.00000  Uiso   1.00
H166   H     0.96889   0.40499   0.67292   0.00000  Uiso   1.00
H167   H     0.13524   0.07718   0.53318   0.00000  Uiso   1.00
H168   H     0.30558   0.44595   0.49485   0.00000  Uiso   1.00
H169   H     0.02790   0.33895   0.44692   0.00000  Uiso   1.00
H170   H     0.94517   0.38516   0.49361   0.00000  Uiso   1.00
H171   H     0.02406   0.22969   0.42734   0.00000  Uiso   1.00
H172   H     0.10483   0.40457   0.40916   0.00000  Uiso   1.00
H173   H     0.86864   0.43225   0.56216   0.00000  Uiso   1.00
H174   H     0.03499   0.10443   0.42241   0.00000  Uiso   1.00
H175   H     0.20533   0.47320   0.38408   0.00000  Uiso   1.00
O176   O     0.86645   0.44843   0.65059   0.00000  Uiso   1.00
O177   O     0.08470   0.01835   0.46725   0.00000  Uiso   1.00
O178   O     0.30818   0.50217   0.41696   0.00000  Uiso   1.00
N179   N     0.95665   0.40507   0.64045   0.00000  Uiso   1.00
N180   N     0.11217   0.09859   0.50980   0.00000  Uiso   1.00
N181   N     0.27143   0.44334   0.47396   0.00000  Uiso   1.00
N182   N     0.90271   0.41974   0.58084   0.00000  Uiso   1.00
N183   N     0.05823   0.11325   0.45020   0.00000  Uiso   1.00
N184   N     0.21749   0.45801   0.41436   0.00000  Uiso   1.00
C185   C     0.31441   0.38184   0.79665   0.00000  Uiso   1.00
C186   C     0.34299   0.43953   0.80794   0.00000  Uiso   1.00
C187   C     0.35884   0.45799   0.85062   0.00000  Uiso   1.00
C188   C     0.38442   0.51219   0.85390   0.00000  Uiso   1.00
C189   C     0.42735   0.59654   0.87721   0.00000  Uiso   1.00
C190   C     0.25851   0.39668   0.77193   0.00000  Uiso   1.00
C191   C     0.20335   0.37910   0.78435   0.00000  Uiso   1.00
C192   C     0.15782   0.39722   0.75731   0.00000  Uiso   1.00
C193   C     0.06960   0.41500   0.72471   0.00000  Uiso   1.00
C194   C     0.35354   0.35279   0.76206   0.00000  Uiso   1.00
C195   C     0.37825   0.29830   0.76616   0.00000  Uiso   1.00
C196   C     0.41272   0.27947   0.73081   0.00000  Uiso   1.00
C197   C     0.47204   0.22911   0.68288   0.00000  Uiso   1.00
C198   C     0.33165   0.44528   0.72656   0.00000  Uiso   1.00
C199   C     0.35235   0.47399   0.76986   0.00000  Uiso   1.00
C200   C     0.37792   0.52818   0.77308   0.00000  Uiso   1.00
C201   C     0.39381   0.54671   0.81576   0.00000  Uiso   1.00
C202   C     0.26788   0.43113   0.73386   0.00000  Uiso   1.00
C203   C     0.22243   0.44928   0.70680   0.00000  Uiso   1.00
C204   C     0.16720   0.43174   0.71917   0.00000  Uiso   1.00
C205   C     0.36291   0.38725   0.72399   0.00000  Uiso   1.00
C206   C     0.39733   0.36849   0.68862   0.00000  Uiso   1.00
C207   C     0.42210   0.31399   0.69267   0.00000  Uiso   1.00
H208   H     0.30711   0.35501   0.82629   0.00000  Uiso   1.00
H209   H     0.35158   0.43131   0.88008   0.00000  Uiso   1.00
H210   H     0.19611   0.35243   0.81381   0.00000  Uiso   1.00
H211   H     0.37099   0.27165   0.79563   0.00000  Uiso   1.00
H212   H     0.40499   0.53111   0.92292   0.00000  Uiso   1.00
H213   H     0.07718   0.36476   0.78318   0.00000  Uiso   1.00
H214   H     0.44595   0.19442   0.74485   0.00000  Uiso   1.00
H215   H     0.33895   0.47210   0.69692   0.00000  Uiso   1.00
H216   H     0.38516   0.55483   0.74361   0.00000  Uiso   1.00
H217   H     0.22969   0.47594   0.67734   0.00000  Uiso   1.00
H218   H     0.40457   0.39517   0.65916   0.00000  Uiso   1.00
H219   H     0.43225   0.63136   0.81216   0.00000  Uiso   1.00
H220   H     0.10443   0.46501   0.67241   0.00000  Uiso   1.00
H221   H     0.47320   0.29467   0.63408   0.00000  Uiso   1.00
O222   O     0.44843   0.63355   0.90059   0.00000  Uiso   1.00
O223   O     0.01835   0.41530   0.71725   0.00000  Uiso   1.00
O224   O     0.50217   0.19182   0.66696   0.00000  Uiso   1.00
N225   N     0.40507   0.54335   0.89045   0.00000  Uiso   1.00
N226   N     0.09859   0.38783   0.75980   0.00000  Uiso   1.00
N227   N     0.44334   0.22857   0.72396   0.00000  Uiso   1.00
N228   N     0.41974   0.59729   0.83084   0.00000  Uiso   1.00
N229   N     0.11325   0.44177   0.70020   0.00000  Uiso   1.00
N230   N     0.45801   0.28251   0.66436   0.00000  Uiso   1.00
C231   C     0.81441   0.88184   0.29665   0.00000  Uiso   1.00
C232   C     0.84299   0.93953   0.30794   0.00000  Uiso   1.00
C233   C     0.85884   0.95799   0.35062   0.00000  Uiso   1.00
C234   C     0.88442   0.01219   0.35390   0.00000  Uiso   1.00
C235   C     0.92735   0.09654   0.37721   0.00000  Uiso   1.00
C236   C     0.75851   0.89668   0.27193   0.00000  Uiso   1.00
C237   C     0.70335   0.87910   0.28435   0.00000  Uiso   1.00
C238   C     0.65782   0.89722   0.25731   0.00000  Uiso   1.00
C239   C     0.56960   0.91500   0.22471   0.00000  Uiso   1.00
C240   C     0.85354   0.85279   0.26206   0.00000  Uiso   1.00
C241   C     0.87825   0.79830   0.26616   0.00000  Uiso   1.00
C242   C     0.91272   0.77947   0.23081   0.00000  Uiso   1.00
C243   C     0.97204   0.72911   0.18288   0.00000  Uiso   1.00
C244   C     0.83165   0.94528   0.22656   0.00000  Uiso   1.00
C245   C     0.85235   0.97399   0.26986   0.00000  Uiso   1.00
C246   C     0.87792   0.02818   0.27308   0.00000  Uiso   1.00
C247   C     0.89381   0.04671   0.31576   0.00000  Uiso   1.00
C248   C     0.76788   0.93113   0.23386   0.00000  Uiso   1.00
C249   C     0.72243   0.94928   0.20680   0.00000  Uiso   1.00
C250   C     0.66720   0.93174   0.21917   0.00000  Uiso   1.00
C251   C     0.86291   0.88725   0.22399   0.00000  Uiso   1.00
C252   C     0.89733   0.86849   0.18862   0.00000  Uiso   1.00
C253   C     0.92210   0.81399   0.19267   0.00000  Uiso   1.00
H254   H     0.80711   0.85501   0.32629   0.00000  Uiso   1.00
H255   H     0.85158   0.93131   0.38008   0.00000  Uiso   1.00
H256   H     0.69611   0.85243   0.31381   0.00000  Uiso   1.00
H257   H     0.87099   0.77165   0.29563   0.00000  Uiso   1.00
H258   H     0.90499   0.03111   0.42292   0.00000  Uiso   1.00
H259   H     0.57718   0.86476   0.28318   0.00000  Uiso   1.00
H260   H     0.94595   0.69442   0.24485   0.00000  Uiso   1.00
H261   H     0.83895   0.97210   0.19692   0.00000  Uiso   1.00
H262   H     0.88516   0.05483   0.24361   0.00000  Uiso   1.00
H263   H     0.72969   0.97594   0.17734   0.00000  Uiso   1.00
H264   H     0.90457   0.89517   0.15916   0.00000  Uiso   1.00
H265   H     0.93225   0.13136   0.31216   0.00000  Uiso   1.00
H266   H     0.60443   0.96501   0.17241   0.00000  Uiso   1.00
H267   H     0.97320   0.79467   0.13408   0.00000  Uiso   1.00
O268   O     0.94843   0.13355   0.40059   0.00000  Uiso   1.00
O269   O     0.51835   0.91530   0.21725   0.00000  Uiso   1.00
O270   O     0.00217   0.69182   0.16696   0.00000  Uiso   1.00
N271   N     0.90507   0.04335   0.39045   0.00000  Uiso   1.00
N272   N     0.59859   0.88783   0.25980   0.00000  Uiso   1.00
N273   N     0.94334   0.72857   0.22396   0.00000  Uiso   1.00
N274   N     0.91974   0.09729   0.33084   0.00000  Uiso   1.00
N275   N     0.61325   0.94177   0.20020   0.00000  Uiso   1.00
N276   N     0.95801   0.78251   0.16436   0.00000  Uiso   1.00
C277   C     0.18559   0.11816   0.29665   0.00000  Uiso   1.00
C278   C     0.15701   0.06047   0.30794   0.00000  Uiso   1.00
C279   C     0.14116   0.04201   0.35062   0.00000  Uiso   1.00
C280   C     0.11558   0.98781   0.35390   0.00000  Uiso   1.00
C281   C     0.07265   0.90346   0.37721   0.00000  Uiso   1.00
C282   C     0.24149   0.10332   0.27193   0.00000  Uiso   1.00
C283   C     0.29665   0.12090   0.28435   0.00000  Uiso   1.00
C284   C     0.34218   0.10278   0.25731   0.00000  Uiso   1.00
C285   C     0.43040   0.08500   0.22471   0.00000  Uiso   1.00
C286   C     0.14646   0.14721   0.26206   0.00000  Uiso   1.00
C287   C     0.12175   0.20170   0.26616   0.00000  Uiso   1.00
C288   C     0.08728   0.22053   0.23081   0.00000  Uiso   1.00
C289   C     0.02796   0.27089   0.18288   0.00000  Uiso   1.00
C290   C     0.16835   0.05472   0.22656   0.00000  Uiso   1.00
C291   C     0.14765   0.02601   0.26986   0.00000  Uiso   1.00
C292   C     0.12208   0.97182   0.27308   0.00000  Uiso   1.00
C293   C     0.10619   0.95329   0.31576   0.00000  Uiso   1.00
C294   C     0.23212   0.06887   0.23386   0.00000  Uiso   1.00
C295   C     0.27757   0.05072   0.20680   0.00000  Uiso   1.00
C296   C     0.33280   0.06826   0.21917   0.00000  Uiso   1.00
C297   C     0.13709   0.11275   0.22399   0.00000  Uiso   1.00
C298   C     0.10267   0.13151   0.18862   0.00000  Uiso   1.00
C299   C     0.07790   0.18601   0.19267   0.00000  Uiso   1.00
H300   H     0.19289   0.14499   0.32629   0.00000  Uiso   1.00
H301   H     0.14842   0.06869   0.38008   0.00000  Uiso   1.00
H302   H     0.30389   0.14757   0.31381   0.00000  Uiso   1.00
H303   H     0.12901   0.22835   0.29563   0.00000  Uiso   1.00
H304   H     0.09501   0.96889   0.42292   0.00000  Uiso   1.00
H305   H     0.42282   0.13524   0.28318   0.00000  Uiso   1.00
H306   H     0.05405   0.30558   0.24485   0.00000  Uiso   1.00
H307   H     0.16105   0.02790   0.19692   0.00000  Uiso   1.00
H308   H     0.11484   0.94517   0.24361   0.00000  Uiso   1.00
H309   H     0.27031   0.02406   0.17734   0.00000  Uiso   1.00
H310   H     0.09543   0.10483   0.15916   0.00000  Uiso   1.00
H311   H     0.06775   0.86864   0.31216   0.00000  Uiso   1.00
H312   H     0.39557   0.03499   0.17241   0.00000  Uiso   1.00
H313   H     0.02680   0.20533   0.13408   0.00000  Uiso   1.00
O314   O     0.05157   0.86645   0.40059   0.00000  Uiso   1.00
O315   O     0.48165   0.08470   0.21725   0.00000  Uiso   1.00
O316   O     0.99783   0.30818   0.16696   0.00000  Uiso   1.00
N317   N     0.09493   0.95665   0.39045   0.00000  Uiso   1.00
N318   N     0.40141   0.11217   0.25980   0.00000  Uiso   1.00
N319   N     0.05666   0.27143   0.22396   0.00000  Uiso   1.00
N320   N     0.08026   0.90271   0.33084   0.00000  Uiso   1.00
N321   N     0.38675   0.05823   0.20020   0.00000  Uiso   1.00
N322   N     0.04199   0.21749   0.16436   0.00000  Uiso   1.00
C323   C     0.68559   0.61816   0.79665   0.00000  Uiso   1.00
C324   C     0.65701   0.56047   0.80794   0.00000  Uiso   1.00
C325   C     0.64116   0.54201   0.85062   0.00000  Uiso   1.00
C326   C     0.61558   0.48781   0.85390   0.00000  Uiso   1.00
C327   C     0.57265   0.40346   0.87721   0.00000  Uiso   1.00
C328   C     0.74149   0.60332   0.77193   0.00000  Uiso   1.00
C329   C     0.79665   0.62090   0.78435   0.00000  Uiso   1.00
C330   C     0.84218   0.60278   0.75731   0.00000  Uiso   1.00
C331   C     0.93040   0.58500   0.72471   0.00000  Uiso   1.00
C332   C     0.64646   0.64721   0.76206   0.00000  Uiso   1.00
C333   C     0.62175   0.70170   0.76616   0.00000  Uiso   1.00
C334   C     0.58728   0.72053   0.73081   0.00000  Uiso   1.00
C335   C     0.52796   0.77089   0.68288   0.00000  Uiso   1.00
C336   C     0.66835   0.55472   0.72656   0.00000  Uiso   1.00
C337   C     0.64765   0.52601   0.76986   0.00000  Uiso   1.00
C338   C     0.62208   0.47182   0.77308   0.00000  Uiso   1.00
C339   C     0.60619   0.45329   0.81576   0.00000  Uiso   1.00
C340   C     0.73212   0.56887   0.73386   0.00000  Uiso   1.00
C341   C     0.77757   0.55072   0.70680   0.00000  Uiso   1.00
C342   C     0.83280   0.56826   0.71917   0.00000  Uiso   1.00
C343   C     0.63709   0.61275   0.72399   0.00000  Uiso   1.00
C344   C     0.60267   0.63151   0.68862   0.00000  Uiso   1.00
C345   C     0.57790   0.68601   0.69267   0.00000  Uiso   1.00
H346   H     0.69289   0.64499   0.82629   0.00000  Uiso   1.00
H347   H     0.64842   0.56869   0.88008   0.00000  Uiso   1.00
H348   H     0.80389   0.64757   0.81381   0.00000  Uiso   1.00
H349   H     0.62901   0.72835   0.79563   0.00000  Uiso   1.00
H350   H     0.59501   0.46889   0.92292   0.00000  Uiso   1.00
H351   H     0.92282   0.63524   0.78318   0.00000  Uiso   1.00
H352   H     0.55405   0.80558   0.74485   0.00000  Uiso   1.00
H353   H     0.66105   0.52790   0.69692   0.00000  Uiso   1.00
H354   H     0.61484   0.44517   0.74361   0.00000  Uiso   1.00
H355   H     0.77031   0.52406   0.67734   0.00000  Uiso   1.00
H356   H     0.59543   0.60483   0.65916   0.00000  Uiso   1.00
H357   H     0.56775   0.36864   0.81216   0.00000  Uiso   1.00
H358   H     0.89557   0.53499   0.67241   0.00000  Uiso   1.00
H359   H     0.52680   0.70533   0.63408   0.00000  Uiso   1.00
O360   O     0.55157   0.36645   0.90059   0.00000  Uiso   1.00
O361   O     0.98165   0.58470   0.71725   0.00000  Uiso   1.00
O362   O     0.49783   0.80818   0.66696   0.00000  Uiso   1.00
N363   N     0.59493   0.45665   0.89045   0.00000  Uiso   1.00
N364   N     0.90141   0.61217   0.75980   0.00000  Uiso   1.00
N365   N     0.55666   0.77143   0.72396   0.00000  Uiso   1.00
N366   N     0.58026   0.40271   0.83084   0.00000  Uiso   1.00
N367   N     0.88675   0.55823   0.70020   0.00000  Uiso   1.00
N368   N     0.54199   0.71749   0.66436   0.00000  Uiso   1.00
C369   C     0.11816   0.81441   0.70335   0.00000  Uiso   1.00
C370   C     0.06047   0.84299   0.69206   0.00000  Uiso   1.00
C371   C     0.04201   0.85884   0.64938   0.00000  Uiso   1.00
C372   C     0.98781   0.88442   0.64610   0.00000  Uiso   1.00
C373   C     0.90346   0.92735   0.62279   0.00000  Uiso   1.00
C374   C     0.10332   0.75851   0.72807   0.00000  Uiso   1.00
C375   C     0.12090   0.70335   0.71565   0.00000  Uiso   1.00
C376   C     0.10278   0.65782   0.74269   0.00000  Uiso   1.00
C377   C     0.08500   0.56960   0.77529   0.00000  Uiso   1.00
C378   C     0.14721   0.85354   0.73794   0.00000  Uiso   1.00
C379   C     0.20170   0.87825   0.73384   0.00000  Uiso   1.00
C380   C     0.22053   0.91272   0.76919   0.00000  Uiso   1.00
C381   C     0.27089   0.97204   0.81712   0.00000  Uiso   1.00
C382   C     0.05472   0.83165   0.77344   0.00000  Uiso   1.00
C383   C     0.02601   0.85235   0.73014   0.00000  Uiso   1.00
C384   C     0.97182   0.87792   0.72692   0.00000  Uiso   1.00
C385   C     0.95329   0.89381   0.68424   0.00000  Uiso   1.00
C386   C     0.06887   0.76788   0.76614   0.00000  Uiso   1.00
C387   C     0.05072   0.72243   0.79320   0.00000  Uiso   1.00
C388   C     0.06826   0.66720   0.78083   0.00000  Uiso   1.00
C389   C     0.11275   0.86291   0.77601   0.00000  Uiso   1.00
C390   C     0.13151   0.89733   0.81138   0.00000  Uiso   1.00
C391   C     0.18601   0.92210   0.80733   0.00000  Uiso   1.00
H392   H     0.14499   0.80711   0.67371   0.00000  Uiso   1.00
H393   H     0.06869   0.85158   0.61992   0.00000  Uiso   1.00
H394   H     0.14757   0.69611   0.68619   0.00000  Uiso   1.00
H395   H     0.22835   0.87099   0.70437   0.00000  Uiso   1.00
H396   H     0.96889   0.90499   0.57708   0.00000  Uiso   1.00
H397   H     0.13524   0.57718   0.71682   0.00000  Uiso   1.00
H398   H     0.30558   0.94595   0.75515   0.00000  Uiso   1.00
H399   H     0.02790   0.83895   0.80308   0.00000  Uiso   1.00
H400   H     0.94517   0.88516   0.75639   0.00000  Uiso   1.00
H401   H     0.02406   0.72969   0.82266   0.00000  Uiso   1.00
H402   H     0.10483   0.90457   0.84084   0.00000  Uiso   1.00
H403   H     0.86864   0.93225   0.68784   0.00000  Uiso   1.00
H404   H     0.03499   0.60443   0.82759   0.00000  Uiso   1.00
H405   H     0.20533   0.97320   0.86592   0.00000  Uiso   1.00
O406   O     0.86645   0.94843   0.59941   0.00000  Uiso   1.00
O407   O     0.08470   0.51835   0.78275   0.00000  Uiso   1.00
O408   O     0.30818   0.00217   0.83304   0.00000  Uiso   1.00
N409   N     0.95665   0.90507   0.60955   0.00000  Uiso   1.00
N410   N     0.11217   0.59859   0.74020   0.00000  Uiso   1.00
N411   N     0.27143   0.94334   0.77604   0.00000  Uiso   1.00
N412   N     0.90271   0.91974   0.66916   0.00000  Uiso   1.00
N413   N     0.05823   0.61325   0.79980   0.00000  Uiso   1.00
N414   N     0.21749   0.95801   0.83564   0.00000  Uiso   1.00
C415   C     0.61816   0.31441   0.20335   0.00000  Uiso   1.00
C416   C     0.56047   0.34299   0.19206   0.00000  Uiso   1.00
C417   C     0.54201   0.35884   0.14938   0.00000  Uiso   1.00
C418   C     0.48781   0.38442   0.14610   0.00000  Uiso   1.00
C419   C     0.40346   0.42735   0.12279   0.00000  Uiso   1.00
C420   C     0.60332   0.25851   0.22807   0.00000  Uiso   1.00
C421   C     0.62090   0.20335   0.21565   0.00000  Uiso   1.00
C422   C     0.60278   0.15782   0.24269   0.00000  Uiso   1.00
C423   C     0.58500   0.06960   0.27529   0.00000  Uiso   1.00
C424   C     0.64721   0.35354   0.23794   0.00000  Uiso   1.00
C425   C     0.70170   0.37825   0.23384   0.00000  Uiso   1.00
C426   C     0.72053   0.41272   0.26919   0.00000  Uiso   1.00
C427   C     0.77089   0.47204   0.31712   0.00000  Uiso   1.00
C428   C     0.55472   0.33165   0.27344   0.00000  Uiso   1.00
C429   C     0.52601   0.35235   0.23014   0.00000  Uiso   1.00
C430   C     0.47182   0.37792   0.22692   0.00000  Uiso   1.00
C431   C     0.45329   0.39381   0.18424   0.00000  Uiso   1.00
C432   C     0.56887   0.26788   0.26614   0.00000  Uiso   1.00
C433   C     0.55072   0.22243   0.29320   0.00000  Uiso   1.00
C434   C     0.56826   0.16720   0.28083   0.00000  Uiso   1.00
C435   C     0.61275   0.36291   0.27601   0.00000  Uiso   1.00
C436   C     0.63151   0.39733   0.31138   0.00000  Uiso   1.00
C437   C     0.68601   0.42210   0.30733   0.00000  Uiso   1.00
H438   H     0.64499   0.30711   0.17371   0.00000  Uiso   1.00
H439   H     0.56869   0.35158   0.11992   0.00000  Uiso   1.00
H440   H     0.64757   0.19611   0.18619   0.00000  Uiso   1.00
H441   H     0.72835   0.37099   0.20437   0.00000  Uiso   1.00
H442   H     0.46889   0.40499   0.07708   0.00000  Uiso   1.00
H443   H     0.63524   0.07718   0.21682   0.00000  Uiso   1.00
H444   H     0.80558   0.44595   0.25515   0.00000  Uiso   1.00
H445   H     0.52790   0.33895   0.30308   0.00000  Uiso   1.00
H446   H     0.44517   0.38516   0.25639   0.00000  Uiso   1.00
H447   H     0.52406   0.22969   0.32266   0.00000  Uiso   1.00
H448   H     0.60483   0.40457   0.34084   0.00000  Uiso   1.00
H449   H     0.36864   0.43225   0.18784   0.00000  Uiso   1.00
H450   H     0.53499   0.10443   0.32759   0.00000  Uiso   1.00
H451   H     0.70533   0.47320   0.36592   0.00000  Uiso   1.00
O452   O     0.36645   0.44843   0.09941   0.00000  Uiso   1.00
O453   O     0.58470   0.01835   0.28275   0.00000  Uiso   1.00
O454   O     0.80818   0.50217   0.33304   0.00000  Uiso   1.00
N455   N     0.45665   0.40507   0.10955   0.00000  Uiso   1.00
N456   N     0.61217   0.09859   0.24020   0.00000  Uiso   1.00
N457   N     0.77143   0.44334   0.27604   0.00000  Uiso   1.00
N458   N     0.40271   0.41974   0.16916   0.00000  Uiso   1.00
N459   N     0.55823   0.11325   0.29980   0.00000  Uiso   1.00
N460   N     0.71749   0.45801   0.33564   0.00000  Uiso   1.00
C461   C     0.38184   0.68559   0.20335   0.00000  Uiso   1.00
C462   C     0.43953   0.65701   0.19206   0.00000  Uiso   1.00
C463   C     0.45799   0.64116   0.14938   0.00000  Uiso   1.00
C464   C     0.51219   0.61558   0.14610   0.00000  Uiso   1.00
C465   C     0.59654   0.57265   0.12279   0.00000  Uiso   1.00
C466   C     0.39668   0.74149   0.22807   0.00000  Uiso   1.00
C467   C     0.37910   0.79665   0.21565   0.00000  Uiso   1.00
C468   C     0.39722   0.84218   0.24269   0.00000  Uiso   1.00
C469   C     0.41500   0.93040   0.27529   0.00000  Uiso   1.00
C470   C     0.35279   0.64646   0.23794   0.00000  Uiso   1.00
C471   C     0.29830   0.62175   0.23384   0.00000  Uiso   1.00
C472   C     0.27947   0.58728   0.26919   0.00000  Uiso   1.00
C473   C     0.22911   0.52796   0.31712   0.00000  Uiso   1.00
C474   C     0.44528   0.66835   0.27344   0.00000  Uiso   1.00
C475   C     0.47399   0.64765   0.23014   0.00000  Uiso   1.00
C476   C     0.52818   0.62208   0.22692   0.00000  Uiso   1.00
C477   C     0.54671   0.60619   0.18424   0.00000  Uiso   1.00
C478   C     0.43113   0.73212   0.26614   0.00000  Uiso   1.00
C479   C     0.44928   0.77757   0.29320   0.00000  Uiso   1.00
C480   C     0.43174   0.83280   0.28083   0.00000  Uiso   1.00
C481   C     0.38725   0.63709   0.27601   0.00000  Uiso   1.00
C482   C     0.36849   0.60267   0.31138   0.00000  Uiso   1.00
C483   C     0.31399   0.57790   0.30733   0.00000  Uiso   1.00
H484   H     0.35501   0.69289   0.17371   0.00000  Uiso   1.00
H485   H     0.43131   0.64842   0.11992   0.00000  Uiso   1.00
H486   H     0.35243   0.80389   0.18619   0.00000  Uiso   1.00
H487   H     0.27165   0.62901   0.20437   0.00000  Uiso   1.00
H488   H     0.53111   0.59501   0.07708   0.00000  Uiso   1.00
H489   H     0.36476   0.92282   0.21682   0.00000  Uiso   1.00
H490   H     0.19442   0.55405   0.25515   0.00000  Uiso   1.00
H491   H     0.47210   0.66105   0.30308   0.00000  Uiso   1.00
H492   H     0.55483   0.61484   0.25639   0.00000  Uiso   1.00
H493   H     0.47594   0.77031   0.32266   0.00000  Uiso   1.00
H494   H     0.39517   0.59543   0.34084   0.00000  Uiso   1.00
H495   H     0.63136   0.56775   0.18784   0.00000  Uiso   1.00
H496   H     0.46501   0.89557   0.32759   0.00000  Uiso   1.00
H497   H     0.29467   0.52680   0.36592   0.00000  Uiso   1.00
O498   O     0.63355   0.55157   0.09941   0.00000  Uiso   1.00
O499   O     0.41530   0.98165   0.28275   0.00000  Uiso   1.00
O500   O     0.19182   0.49783   0.33304   0.00000  Uiso   1.00
N501   N     0.54335   0.59493   0.10955   0.00000  Uiso   1.00
N502   N     0.38783   0.90141   0.24020   0.00000  Uiso   1.00
N503   N     0.22857   0.55666   0.27604   0.00000  Uiso   1.00
N504   N     0.59729   0.58026   0.16916   0.00000  Uiso   1.00
N505   N     0.44177   0.88675   0.29980   0.00000  Uiso   1.00
N506   N     0.28251   0.54199   0.33564   0.00000  Uiso   1.00
C507   C     0.88184   0.18559   0.70335   0.00000  Uiso   1.00
C508   C     0.93953   0.15701   0.69206   0.00000  Uiso   1.00
C509   C     0.95799   0.14116   0.64938   0.00000  Uiso   1.00
C510   C     0.01219   0.11558   0.64610   0.00000  Uiso   1.00
C511   C     0.09654   0.07265   0.62279   0.00000  Uiso   1.00
C512   C     0.89668   0.24149   0.72807   0.00000  Uiso   1.00
C513   C     0.87910   0.29665   0.71565   0.00000  Uiso   1.00
C514   C     0.89722   0.34218   0.74269   0.00000  Uiso   1.00
C515   C     0.91500   0.43040   0.77529   0.00000  Uiso   1.00
C516   C     0.85279   0.14646   0.73794   0.00000  Uiso   1.00
C517   C     0.79830   0.12175   0.73384   0.00000  Uiso   1.00
C518   C     0.77947   0.08728   0.76919   0.00000  Uiso   1.00
C519   C     0.72911   0.02796   0.81712   0.00000  Uiso   1.00
C520   C     0.94528   0.16835   0.77344   0.00000  Uiso   1.00
C521   C     0.97399   0.14765   0.73014   0.00000  Uiso   1.00
C522   C     0.02818   0.12208   0.72692   0.00000  Uiso   1.00
C523   C     0.04671   0.10619   0.68424   0.00000  Uiso   1.00
C524   C     0.93113   0.23212   0.76614   0.00000  Uiso   1.00
C525   C     0.94928   0.27757   0.79320   0.00000  Uiso   1.00
C526   C     0.93174   0.33280   0.78083   0.00000  Uiso   1.00
C527   C     0.88725   0.13709   0.77601   0.00000  Uiso   1.00
C528   C     0.86849   0.10267   0.81138   0.00000  Uiso   1.00
C529   C     0.81399   0.07790   0.80733   0.00000  Uiso   1.00
H530   H     0.85501   0.19289   0.67371   0.00000  Uiso   1.00
H531   H     0.93131   0.14842   0.61992   0.00000  Uiso   1.00
H532   H     0.85243   0.30389   0.68619   0.00000  Uiso   1.00
H533   H     0.77165   0.12901   0.70437   0.00000  Uiso   1.00
H534   H     0.03111   0.09501   0.57708   0.00000  Uiso   1.00
H535   H     0.86476   0.42282   0.71682   0.00000  Uiso   1.00
H536   H     0.69442   0.05405   0.75515   0.00000  Uiso   1.00
H537   H     0.97210   0.16105   0.80308   0.00000  Uiso   1.00
H538   H     0.05483   0.11484   0.75639   0.00000  Uiso   1.00
H539   H     0.97594   0.27031   0.82266   0.00000  Uiso   1.00
H540   H     0.89517   0.09543   0.84084   0.00000  Uiso   1.00
H541   H     0.13136   0.06775   0.68784   0.00000  Uiso   1.00
H542   H     0.96501   0.39557   0.82759   0.00000  Uiso   1.00
H543   H     0.79467   0.02680   0.86592   0.00000  Uiso   1.00
O544   O     0.13355   0.05157   0.59941   0.00000  Uiso   1.00
O545   O     0.91530   0.48165   0.78275   0.00000  Uiso   1.00
O546   O     0.69182   0.99783   0.83304   0.00000  Uiso   1.00
N547   N     0.04335   0.09493   0.60955   0.00000  Uiso   1.00
N548   N     0.88783   0.40141   0.74020   0.00000  Uiso   1.00
N549   N     0.72857   0.05666   0.77604   0.00000  Uiso   1.00
N550   N     0.09729   0.08026   0.66916   0.00000  Uiso   1.00
N551   N     0.94177   0.38675   0.79980   0.00000  Uiso   1.00
N552   N     0.78251   0.04199   0.83564   0.00000  Uiso   1.00
C553   C     0.68559   0.11816   0.45335   0.00000  Uiso   1.00
C554   C     0.65701   0.06047   0.44206   0.00000  Uiso   1.00
C555   C     0.64116   0.04201   0.39938   0.00000  Uiso   1.00
C556   C     0.61558   0.98781   0.39610   0.00000  Uiso   1.00
C557   C     0.57265   0.90346   0.37279   0.00000  Uiso   1.00
C558   C     0.74149   0.10332   0.47807   0.00000  Uiso   1.00
C559   C     0.79665   0.12090   0.46565   0.00000  Uiso   1.00
C560   C     0.84218   0.10278   0.49269   0.00000  Uiso   1.00
C561   C     0.93040   0.08500   0.52529   0.00000  Uiso   1.00
C562   C     0.64646   0.14721   0.48794   0.00000  Uiso   1.00
C563   C     0.62175   0.20170   0.48384   0.00000  Uiso   1.00
C564   C     0.58728   0.22053   0.51919   0.00000  Uiso   1.00
C565   C     0.52796   0.27089   0.56712   0.00000  Uiso   1.00
C566   C     0.66835   0.05472   0.52344   0.00000  Uiso   1.00
C567   C     0.64765   0.02601   0.48014   0.00000  Uiso   1.00
C568   C     0.62208   0.97182   0.47692   0.00000  Uiso   1.00
C569   C     0.60619   0.95329   0.43424   0.00000  Uiso   1.00
C570   C     0.73212   0.06887   0.51614   0.00000  Uiso   1.00
C571   C     0.77757   0.05072   0.54320   0.00000  Uiso   1.00
C572   C     0.83280   0.06826   0.53083   0.00000  Uiso   1.00
C573   C     0.63709   0.11275   0.52601   0.00000  Uiso   1.00
C574   C     0.60267   0.13151   0.56138   0.00000  Uiso   1.00
C575   C     0.57790   0.18601   0.55733   0.00000  Uiso   1.00
H576   H     0.69289   0.14499   0.42371   0.00000  Uiso   1.00
H577   H     0.64842   0.06869   0.36992   0.00000  Uiso   1.00
H578   H     0.80389   0.14757   0.43619   0.00000  Uiso   1.00
H579   H     0.62901   0.22835   0.45437   0.00000  Uiso   1.00
H580   H     0.59501   0.96889   0.32708   0.00000  Uiso   1.00
H581   H     0.92282   0.13524   0.46682   0.00000  Uiso   1.00
H582   H     0.55405   0.30558   0.50515   0.00000  Uiso   1.00
H583   H     0.66105   0.02790   0.55308   0.00000  Uiso   1.00
H584   H     0.61484   0.94517   0.50639   0.00000  Uiso   1.00
H585   H     0.77031   0.02406   0.57266   0.00000  Uiso   1.00
H586   H     0.59543   0.10483   0.59084   0.00000  Uiso   1.00
H587   H     0.56775   0.86864   0.43784   0.00000  Uiso   1.00
H588   H     0.89557   0.03499   0.57759   0.00000  Uiso   1.00
H589   H     0.52680   0.20533   0.61592   0.00000  Uiso   1.00
O590   O     0.55157   0.86645   0.34941   0.00000  Uiso   1.00
O591   O     0.98165   0.08470   0.53275   0.00000  Uiso   1.00
O592   O     0.49783   0.30818   0.58304   0.00000  Uiso   1.00
N593   N     0.59493   0.95665   0.35955   0.00000  Uiso   1.00
N594   N     0.90141   0.11217   0.49020   0.00000  Uiso   1.00
N595   N     0.55666   0.27143   0.52604   0.00000  Uiso   1.00
N596   N     0.58026   0.90271   0.41916   0.00000  Uiso   1.00
N597   N     0.88675   0.05823   0.54980   0.00000  Uiso   1.00
N598   N     0.54199   0.21749   0.58564   0.00000  Uiso   1.00
C599   C     0.18559   0.61816   0.95335   0.00000  Uiso   1.00
C600   C     0.15701   0.56047   0.94206   0.00000  Uiso   1.00
C601   C     0.14116   0.54201   0.89938   0.00000  Uiso   1.00
C602   C     0.11558   0.48781   0.89610   0.00000  Uiso   1.00
C603   C     0.07265   0.40346   0.87279   0.00000  Uiso   1.00
C604   C     0.24149   0.60332   0.97807   0.00000  Uiso   1.00
C605   C     0.29665   0.62090   0.96565   0.00000  Uiso   1.00
C606   C     0.34218   0.60278   0.99269   0.00000  Uiso   1.00
C607   C     0.43040   0.58500   0.02529   0.00000  Uiso   1.00
C608   C     0.14646   0.64721   0.98794   0.00000  Uiso   1.00
C609   C     0.12175   0.70170   0.98384   0.00000  Uiso   1.00
C610   C     0.08728   0.72053   0.01919   0.00000  Uiso   1.00
C611   C     0.02796   0.77089   0.06712   0.00000  Uiso   1.00
C612   C     0.16835   0.55472   0.02344   0.00000  Uiso   1.00
C613   C     0.14765   0.52601   0.98014   0.00000  Uiso   1.00
C614   C     0.12208   0.47182   0.97692   0.00000  Uiso   1.00
C615   C     0.10619   0.45329   0.93424   0.00000  Uiso   1.00
C616   C     0.23212   0.56887   0.01614   0.00000  Uiso   1.00
C617   C     0.27757   0.55072   0.04320   0.00000  Uiso   1.00
C618   C     0.33280   0.56826   0.03083   0.00000  Uiso   1.00
C619   C     0.13709   0.61275   0.02601   0.00000  Uiso   1.00
C620   C     0.10267   0.63151   0.06138   0.00000  Uiso   1.00
C621   C     0.07790   0.68601   0.05733   0.00000  Uiso   1.00
H622   H     0.19289   0.64499   0.92371   0.00000  Uiso   1.00
H623   H     0.14842   0.56869   0.86992   0.00000  Uiso   1.00
H624   H     0.30389   0.64757   0.93619   0.00000  Uiso   1.00
H625   H     0.12901   0.72835   0.95437   0.00000  Uiso   1.00
H626   H     0.09501   0.46889   0.82708   0.00000  Uiso   1.00
H627   H     0.42282   0.63524   0.96682   0.00000  Uiso   1.00
H628   H     0.05405   0.80558   0.00515   0.00000  Uiso   1.00
H629   H     0.16105   0.52790   0.05308   0.00000  Uiso   1.00
H630   H     0.11484   0.44517   0.00639   0.00000  Uiso   1.00
H631   H     0.27031   0.52406   0.07266   0.00000  Uiso   1.00
H632   H     0.09543   0.60483   0.09084   0.00000  Uiso   1.00
H633   H     0.06775   0.36864   0.93784   0.00000  Uiso   1.00
H634   H     0.39557   0.53499   0.07759   0.00000  Uiso   1.00
H635   H     0.02680   0.70533   0.11592   0.00000  Uiso   1.00
O636   O     0.05157   0.36645   0.84941   0.00000  Uiso   1.00
O637   O     0.48165   0.58470   0.03275   0.00000  Uiso   1.00
O638   O     0.99783   0.80818   0.08304   0.00000  Uiso   1.00
N639   N     0.09493   0.45665   0.85955   0.00000  Uiso   1.00
N640   N     0.40141   0.61217   0.99020   0.00000  Uiso   1.00
N641   N     0.05666   0.77143   0.02604   0.00000  Uiso   1.00
N642   N     0.08026   0.40271   0.91916   0.00000  Uiso   1.00
N643   N     0.38675   0.55823   0.04980   0.00000  Uiso   1.00
N644   N     0.04199   0.71749   0.08564   0.00000  Uiso   1.00
C645   C     0.81441   0.38184   0.95335   0.00000  Uiso   1.00
C646   C     0.84299   0.43953   0.94206   0.00000  Uiso   1.00
C647   C     0.85884   0.45799   0.89938   0.00000  Uiso   1.00
C648   C     0.88442   0.51219   0.89610   0.00000  Uiso   1.00
C649   C     0.92735   0.59654   0.87279   0.00000  Uiso   1.00
C650   C     0.75851   0.39668   0.97807   0.00000  Uiso   1.00
C651   C     0.70335   0.37910   0.96565   0.00000  Uiso   1.00
C652   C     0.65782   0.39722   0.99269   0.00000  Uiso   1.00
C653   C     0.56960   0.41500   0.02529   0.00000  Uiso   1.00
C654   C     0.85354   0.35279   0.98794   0.00000  Uiso   1.00
C655   C     0.87825   0.29830   0.98384   0.00000  Uiso   1.00
C656   C     0.91272   0.27947   0.01919   0.00000  Uiso   1.00
C657   C     0.97204   0.22911   0.06712   0.00000  Uiso   1.00
C658   C     0.83165   0.44528   0.02344   0.00000  Uiso   1.00
C659   C     0.85235   0.47399   0.98014   0.00000  Uiso   1.00
C660   C     0.87792   0.52818   0.97692   0.00000  Uiso   1.00
C661   C     0.89381   0.54671   0.93424   0.00000  Uiso   1.00
C662   C     0.76788   0.43113   0.01614   0.00000  Uiso   1.00
C663   C     0.72243   0.44928   0.04320   0.00000  Uiso   1.00
C664   C     0.66720   0.43174   0.03083   0.00000  Uiso   1.00
C665   C     0.86291   0.38725   0.02601   0.00000  Uiso   1.00
C666   C     0.89733   0.36849   0.06138   0.00000  Uiso   1.00
C667   C     0.92210   0.31399   0.05733   0.00000  Uiso   1.00
H668   H     0.80711   0.35501   0.92371   0.00000  Uiso   1.00
H669   H     0.85158   0.43131   0.86992   0.00000  Uiso   1.00
H670   H     0.69611   0.35243   0.93619   0.00000  Uiso   1.00
H671   H     0.87099   0.27165   0.95437   0.00000  Uiso   1.00
H672   H     0.90499   0.53111   0.82708   0.00000  Uiso   1.00
H673   H     0.57718   0.36476   0.96682   0.00000  Uiso   1.00
H674   H     0.94595   0.19442   0.00515   0.00000  Uiso   1.00
H675   H     0.83895   0.47210   0.05308   0.00000  Uiso   1.00
H676   H     0.88516   0.55483   0.00639   0.00000  Uiso   1.00
H677   H     0.72969   0.47594   0.07266   0.00000  Uiso   1.00
H678   H     0.90457   0.39517   0.09084   0.00000  Uiso   1.00
H679   H     0.93225   0.63136   0.93784   0.00000  Uiso   1.00
H680   H     0.60443   0.46501   0.07759   0.00000  Uiso   1.00
H681   H     0.97320   0.29467   0.11592   0.00000  Uiso   1.00
O682   O     0.94843   0.63355   0.84941   0.00000  Uiso   1.00
O683   O     0.51835   0.41530   0.03275   0.00000  Uiso   1.00
O684   O     0.00217   0.19182   0.08304   0.00000  Uiso   1.00
N685   N     0.90507   0.54335   0.85955   0.00000  Uiso   1.00
N686   N     0.59859   0.38783   0.99020   0.00000  Uiso   1.00
N687   N     0.94334   0.22857   0.02604   0.00000  Uiso   1.00
N688   N     0.91974   0.59729   0.91916   0.00000  Uiso   1.00
N689   N     0.61325   0.44177   0.04980   0.00000  Uiso   1.00
N690   N     0.95801   0.28251   0.08564   0.00000  Uiso   1.00
C691   C     0.31441   0.88184   0.45335   0.00000  Uiso   1.00
C692   C     0.34299   0.93953   0.44206   0.00000  Uiso   1.00
C693   C     0.35884   0.95799   0.39938   0.00000  Uiso   1.00
C694   C     0.38442   0.01219   0.39610   0.00000  Uiso   1.00
C695   C     0.42735   0.09654   0.37279   0.00000  Uiso   1.00
C696   C     0.25851   0.89668   0.47807   0.00000  Uiso   1.00
C697   C     0.20335   0.87910   0.46565   0.00000  Uiso   1.00
C698   C     0.15782   0.89722   0.49269   0.00000  Uiso   1.00
C699   C     0.06960   0.91500   0.52529   0.00000  Uiso   1.00
C700   C     0.35354   0.85279   0.48794   0.00000  Uiso   1.00
C701   C     0.37825   0.79830   0.48384   0.00000  Uiso   1.00
C702   C     0.41272   0.77947   0.51919   0.00000  Uiso   1.00
C703   C     0.47204   0.72911   0.56712   0.00000  Uiso   1.00
C704   C     0.33165   0.94528   0.52344   0.00000  Uiso   1.00
C705   C     0.35235   0.97399   0.48014   0.00000  Uiso   1.00
C706   C     0.37792   0.02818   0.47692   0.00000  Uiso   1.00
C707   C     0.39381   0.04671   0.43424   0.00000  Uiso   1.00
C708   C     0.26788   0.93113   0.51614   0.00000  Uiso   1.00
C709   C     0.22243   0.94928   0.54320   0.00000  Uiso   1.00
C710   C     0.16720   0.93174   0.53083   0.00000  Uiso   1.00
C711   C     0.36291   0.88725   0.52601   0.00000  Uiso   1.00
C712   C     0.39733   0.86849   0.56138   0.00000  Uiso   1.00
C713   C     0.42210   0.81399   0.55733   0.00000  Uiso   1.00
H714   H     0.30711   0.85501   0.42371   0.00000  Uiso   1.00
H715   H     0.35158   0.93131   0.36992   0.00000  Uiso   1.00
H716   H     0.19611   0.85243   0.43619   0.00000  Uiso   1.00
H717   H     0.37099   0.77165   0.45437   0.00000  Uiso   1.00
H718   H     0.40499   0.03111   0.32708   0.00000  Uiso   1.00
H719   H     0.07718   0.86476   0.46682   0.00000  Uiso   1.00
H720   H     0.44595   0.69442   0.50515   0.00000  Uiso   1.00
H721   H     0.33895   0.97210   0.55308   0.00000  Uiso   1.00
H722   H     0.38516   0.05483   0.50639   0.00000  Uiso   1.00
H723   H     0.22969   0.97594   0.57266   0.00000  Uiso   1.00
H724   H     0.40457   0.89517   0.59084   0.00000  Uiso   1.00
H725   H     0.43225   0.13136   0.43784   0.00000  Uiso   1.00
H726   H     0.10443   0.96501   0.57759   0.00000  Uiso   1.00
H727   H     0.47320   0.79467   0.61592   0.00000  Uiso   1.00
O728   O     0.44843   0.13355   0.34941   0.00000  Uiso   1.00
O729   O     0.01835   0.91530   0.53275   0.00000  Uiso   1.00
O730   O     0.50217   0.69182   0.58304   0.00000  Uiso   1.00
N731   N     0.40507   0.04335   0.35955   0.00000  Uiso   1.00
N732   N     0.09859   0.88783   0.49020   0.00000  Uiso   1.00
N733   N     0.44334   0.72857   0.52604   0.00000  Uiso   1.00
N734   N     0.41974   0.09729   0.41916   0.00000  Uiso   1.00
N735   N     0.11325   0.94177   0.54980   0.00000  Uiso   1.00
N736   N     0.45801   0.78251   0.58564   0.00000  Uiso   1.00
