data_job_02929
_audit_creation_date              2018-12-19
_audit_creation_method            'Materials Studio'
_symmetry_space_group_name_H-M    'P1'
_symmetry_Int_Tables_number       1
_symmetry_cell_setting            triclinic
loop_
_symmetry_equiv_pos_as_xyz
  x,y,z
_cell_length_a                    23.0088
_cell_length_b                    23.0088
_cell_length_c                    22.8645
_cell_angle_alpha                 90.0000
_cell_angle_beta                  90.0000
_cell_angle_gamma                 90.0000
loop_
_atom_site_label
_atom_site_type_symbol
_atom_site_fract_x
_atom_site_fract_y
_atom_site_fract_z
_atom_site_U_iso_or_equiv
_atom_site_adp_type
_atom_site_occupancy
C1     C     0.34960   0.27534   0.21431   0.00000  Uiso   1.00
C2     C     0.29512   0.30853   0.23239   0.00000  Uiso   1.00
C3     C     0.23892   0.28663   0.23238   0.00000  Uiso   1.00
C4     C     0.19500   0.32391   0.25044   0.00000  Uiso   1.00
C5     C     0.10859   0.36677   0.27584   0.00000  Uiso   1.00
C6     C     0.37793   0.31126   0.16605   0.00000  Uiso   1.00
C7     C     0.39137   0.29164   0.11026   0.00000  Uiso   1.00
C8     C     0.41717   0.33122   0.07248   0.00000  Uiso   1.00
C9     C     0.45937   0.37829   0.99490   0.00000  Uiso   1.00
C10    C     0.39078   0.27830   0.26648   0.00000  Uiso   1.00
C11    C     0.41503   0.23098   0.29513   0.00000  Uiso   1.00
C12    C     0.45166   0.24281   0.34189   0.00000  Uiso   1.00
C13    C     0.51381   0.23872   0.42024   0.00000  Uiso   1.00
C14    C     0.37154   0.38050   0.24641   0.00000  Uiso   1.00
C15    C     0.30704   0.36565   0.24982   0.00000  Uiso   1.00
C16    C     0.26319   0.40297   0.26789   0.00000  Uiso   1.00
C17    C     0.20694   0.38113   0.26791   0.00000  Uiso   1.00
C18    C     0.38985   0.36837   0.18348   0.00000  Uiso   1.00
C19    C     0.41564   0.40798   0.14578   0.00000  Uiso   1.00
C20    C     0.42911   0.38844   0.08995   0.00000  Uiso   1.00
C21    C     0.40269   0.33542   0.28391   0.00000  Uiso   1.00
C22    C     0.43930   0.34732   0.33064   0.00000  Uiso   1.00
C23    C     0.46360   0.30003   0.35936   0.00000  Uiso   1.00
H24    H     0.34033   0.23087   0.20073   0.00000  Uiso   1.00
H25    H     0.22972   0.24242   0.21888   0.00000  Uiso   1.00
H26    H     0.38215   0.24744   0.09678   0.00000  Uiso   1.00
H27    H     0.40580   0.18678   0.28162   0.00000  Uiso   1.00
H28    H     0.11234   0.28043   0.24666   0.00000  Uiso   1.00
H29    H     0.43377   0.29099   0.98923   0.00000  Uiso   1.00
H30    H     0.48365   0.16309   0.37899   0.00000  Uiso   1.00
H31    H     0.38081   0.42497   0.25998   0.00000  Uiso   1.00
H32    H     0.27242   0.44717   0.28138   0.00000  Uiso   1.00
H33    H     0.42485   0.45218   0.15929   0.00000  Uiso   1.00
H34    H     0.44851   0.39153   0.34412   0.00000  Uiso   1.00
H35    H     0.14700   0.44661   0.29739   0.00000  Uiso   1.00
H36    H     0.46843   0.45717   0.03996   0.00000  Uiso   1.00
H37    H     0.51831   0.32927   0.42972   0.00000  Uiso   1.00
O38    O     0.05764   0.37463   0.28502   0.00000  Uiso   1.00
O39    O     0.47934   0.38848   0.94728   0.00000  Uiso   1.00
O40    O     0.54479   0.22068   0.45864   0.00000  Uiso   1.00
N41    N     0.13537   0.31649   0.25568   0.00000  Uiso   1.00
N42    N     0.43588   0.32636   0.01499   0.00000  Uiso   1.00
N43    N     0.48253   0.20679   0.37938   0.00000  Uiso   1.00
N44    N     0.15403   0.40591   0.28298   0.00000  Uiso   1.00
N45    N     0.45453   0.41578   0.04229   0.00000  Uiso   1.00
N46    N     0.50118   0.29621   0.40667   0.00000  Uiso   1.00
C47    C     0.84960   0.77534   0.71431   0.00000  Uiso   1.00
C48    C     0.79512   0.80853   0.73239   0.00000  Uiso   1.00
C49    C     0.73892   0.78663   0.73238   0.00000  Uiso   1.00
C50    C     0.69500   0.82391   0.75044   0.00000  Uiso   1.00
C51    C     0.60859   0.86677   0.77584   0.00000  Uiso   1.00
C52    C     0.87793   0.81126   0.66605   0.00000  Uiso   1.00
C53    C     0.89137   0.79164   0.61026   0.00000  Uiso   1.00
C54    C     0.91717   0.83122   0.57248   0.00000  Uiso   1.00
C55    C     0.95937   0.87829   0.49490   0.00000  Uiso   1.00
C56    C     0.89078   0.77830   0.76648   0.00000  Uiso   1.00
C57    C     0.91503   0.73098   0.79513   0.00000  Uiso   1.00
C58    C     0.95166   0.74281   0.84189   0.00000  Uiso   1.00
C59    C     0.01381   0.73872   0.92024   0.00000  Uiso   1.00
C60    C     0.87154   0.88050   0.74641   0.00000  Uiso   1.00
C61    C     0.80704   0.86565   0.74982   0.00000  Uiso   1.00
C62    C     0.76319   0.90297   0.76789   0.00000  Uiso   1.00
C63    C     0.70694   0.88113   0.76791   0.00000  Uiso   1.00
C64    C     0.88985   0.86837   0.68348   0.00000  Uiso   1.00
C65    C     0.91564   0.90798   0.64578   0.00000  Uiso   1.00
C66    C     0.92911   0.88844   0.58995   0.00000  Uiso   1.00
C67    C     0.90269   0.83542   0.78391   0.00000  Uiso   1.00
C68    C     0.93930   0.84732   0.83064   0.00000  Uiso   1.00
C69    C     0.96360   0.80003   0.85936   0.00000  Uiso   1.00
H70    H     0.84033   0.73087   0.70073   0.00000  Uiso   1.00
H71    H     0.72972   0.74242   0.71888   0.00000  Uiso   1.00
H72    H     0.88215   0.74744   0.59678   0.00000  Uiso   1.00
H73    H     0.90580   0.68678   0.78162   0.00000  Uiso   1.00
H74    H     0.61234   0.78043   0.74666   0.00000  Uiso   1.00
H75    H     0.93377   0.79099   0.48923   0.00000  Uiso   1.00
H76    H     0.98365   0.66309   0.87899   0.00000  Uiso   1.00
H77    H     0.88081   0.92497   0.75998   0.00000  Uiso   1.00
H78    H     0.77242   0.94717   0.78138   0.00000  Uiso   1.00
H79    H     0.92485   0.95218   0.65929   0.00000  Uiso   1.00
H80    H     0.94851   0.89153   0.84412   0.00000  Uiso   1.00
H81    H     0.64700   0.94661   0.79739   0.00000  Uiso   1.00
H82    H     0.96843   0.95717   0.53996   0.00000  Uiso   1.00
H83    H     0.01831   0.82927   0.92972   0.00000  Uiso   1.00
O84    O     0.55764   0.87463   0.78502   0.00000  Uiso   1.00
O85    O     0.97934   0.88848   0.44728   0.00000  Uiso   1.00
O86    O     0.04479   0.72068   0.95864   0.00000  Uiso   1.00
N87    N     0.63537   0.81649   0.75568   0.00000  Uiso   1.00
N88    N     0.93588   0.82636   0.51499   0.00000  Uiso   1.00
N89    N     0.98253   0.70679   0.87938   0.00000  Uiso   1.00
N90    N     0.65403   0.90591   0.78298   0.00000  Uiso   1.00
N91    N     0.95453   0.91578   0.54229   0.00000  Uiso   1.00
N92    N     0.00118   0.79621   0.90667   0.00000  Uiso   1.00
C93    C     0.15040   0.22466   0.71431   0.00000  Uiso   1.00
C94    C     0.20488   0.19147   0.73239   0.00000  Uiso   1.00
C95    C     0.26108   0.21337   0.73238   0.00000  Uiso   1.00
C96    C     0.30500   0.17609   0.75044   0.00000  Uiso   1.00
C97    C     0.39141   0.13323   0.77584   0.00000  Uiso   1.00
C98    C     0.12207   0.18874   0.66605   0.00000  Uiso   1.00
C99    C     0.10863   0.20836   0.61026   0.00000  Uiso   1.00
C100   C     0.08283   0.16878   0.57248   0.00000  Uiso   1.00
C101   C     0.04063   0.12171   0.49490   0.00000  Uiso   1.00
C102   C     0.10922   0.22170   0.76648   0.00000  Uiso   1.00
C103   C     0.08497   0.26902   0.79513   0.00000  Uiso   1.00
C104   C     0.04834   0.25719   0.84189   0.00000  Uiso   1.00
C105   C     0.98619   0.26128   0.92024   0.00000  Uiso   1.00
C106   C     0.12846   0.11950   0.74641   0.00000  Uiso   1.00
C107   C     0.19296   0.13435   0.74982   0.00000  Uiso   1.00
C108   C     0.23681   0.09703   0.76789   0.00000  Uiso   1.00
C109   C     0.29306   0.11887   0.76791   0.00000  Uiso   1.00
C110   C     0.11015   0.13163   0.68348   0.00000  Uiso   1.00
C111   C     0.08436   0.09202   0.64578   0.00000  Uiso   1.00
C112   C     0.07089   0.11156   0.58995   0.00000  Uiso   1.00
C113   C     0.09731   0.16458   0.78391   0.00000  Uiso   1.00
C114   C     0.06070   0.15268   0.83064   0.00000  Uiso   1.00
C115   C     0.03640   0.19997   0.85936   0.00000  Uiso   1.00
H116   H     0.15967   0.26913   0.70073   0.00000  Uiso   1.00
H117   H     0.27028   0.25758   0.71888   0.00000  Uiso   1.00
H118   H     0.11785   0.25256   0.59678   0.00000  Uiso   1.00
H119   H     0.09420   0.31322   0.78162   0.00000  Uiso   1.00
H120   H     0.38766   0.21957   0.74666   0.00000  Uiso   1.00
H121   H     0.06623   0.20901   0.48923   0.00000  Uiso   1.00
H122   H     0.01635   0.33691   0.87899   0.00000  Uiso   1.00
H123   H     0.11919   0.07503   0.75998   0.00000  Uiso   1.00
H124   H     0.22758   0.05283   0.78138   0.00000  Uiso   1.00
H125   H     0.07515   0.04782   0.65929   0.00000  Uiso   1.00
H126   H     0.05149   0.10847   0.84412   0.00000  Uiso   1.00
H127   H     0.35300   0.05339   0.79739   0.00000  Uiso   1.00
H128   H     0.03157   0.04283   0.53996   0.00000  Uiso   1.00
H129   H     0.98169   0.17073   0.92972   0.00000  Uiso   1.00
O130   O     0.44236   0.12537   0.78502   0.00000  Uiso   1.00
O131   O     0.02066   0.11152   0.44728   0.00000  Uiso   1.00
O132   O     0.95521   0.27932   0.95864   0.00000  Uiso   1.00
N133   N     0.36463   0.18351   0.75568   0.00000  Uiso   1.00
N134   N     0.06412   0.17364   0.51499   0.00000  Uiso   1.00
N135   N     0.01747   0.29321   0.87938   0.00000  Uiso   1.00
N136   N     0.34597   0.09409   0.78298   0.00000  Uiso   1.00
N137   N     0.04547   0.08422   0.54229   0.00000  Uiso   1.00
N138   N     0.99882   0.20379   0.90667   0.00000  Uiso   1.00
C139   C     0.65040   0.72466   0.21431   0.00000  Uiso   1.00
C140   C     0.70488   0.69147   0.23239   0.00000  Uiso   1.00
C141   C     0.76108   0.71337   0.23238   0.00000  Uiso   1.00
C142   C     0.80500   0.67609   0.25044   0.00000  Uiso   1.00
C143   C     0.89141   0.63323   0.27584   0.00000  Uiso   1.00
C144   C     0.62207   0.68874   0.16605   0.00000  Uiso   1.00
C145   C     0.60863   0.70836   0.11026   0.00000  Uiso   1.00
C146   C     0.58283   0.66878   0.07248   0.00000  Uiso   1.00
C147   C     0.54063   0.62171   0.99490   0.00000  Uiso   1.00
C148   C     0.60922   0.72170   0.26648   0.00000  Uiso   1.00
C149   C     0.58497   0.76902   0.29513   0.00000  Uiso   1.00
C150   C     0.54834   0.75719   0.34189   0.00000  Uiso   1.00
C151   C     0.48619   0.76128   0.42024   0.00000  Uiso   1.00
C152   C     0.62846   0.61950   0.24641   0.00000  Uiso   1.00
C153   C     0.69296   0.63435   0.24982   0.00000  Uiso   1.00
C154   C     0.73681   0.59703   0.26789   0.00000  Uiso   1.00
C155   C     0.79306   0.61887   0.26791   0.00000  Uiso   1.00
C156   C     0.61015   0.63163   0.18348   0.00000  Uiso   1.00
C157   C     0.58436   0.59202   0.14578   0.00000  Uiso   1.00
C158   C     0.57089   0.61156   0.08995   0.00000  Uiso   1.00
C159   C     0.59731   0.66458   0.28391   0.00000  Uiso   1.00
C160   C     0.56070   0.65268   0.33064   0.00000  Uiso   1.00
C161   C     0.53640   0.69997   0.35936   0.00000  Uiso   1.00
H162   H     0.65967   0.76913   0.20073   0.00000  Uiso   1.00
H163   H     0.77028   0.75758   0.21888   0.00000  Uiso   1.00
H164   H     0.61785   0.75256   0.09678   0.00000  Uiso   1.00
H165   H     0.59420   0.81322   0.28162   0.00000  Uiso   1.00
H166   H     0.88766   0.71957   0.24666   0.00000  Uiso   1.00
H167   H     0.56623   0.70901   0.98923   0.00000  Uiso   1.00
H168   H     0.51635   0.83691   0.37899   0.00000  Uiso   1.00
H169   H     0.61919   0.57503   0.25998   0.00000  Uiso   1.00
H170   H     0.72758   0.55283   0.28138   0.00000  Uiso   1.00
H171   H     0.57515   0.54782   0.15929   0.00000  Uiso   1.00
H172   H     0.55149   0.60847   0.34412   0.00000  Uiso   1.00
H173   H     0.85300   0.55339   0.29739   0.00000  Uiso   1.00
H174   H     0.53157   0.54283   0.03996   0.00000  Uiso   1.00
H175   H     0.48169   0.67073   0.42972   0.00000  Uiso   1.00
O176   O     0.94236   0.62537   0.28502   0.00000  Uiso   1.00
O177   O     0.52066   0.61152   0.94728   0.00000  Uiso   1.00
O178   O     0.45521   0.77932   0.45864   0.00000  Uiso   1.00
N179   N     0.86463   0.68351   0.25568   0.00000  Uiso   1.00
N180   N     0.56412   0.67364   0.01499   0.00000  Uiso   1.00
N181   N     0.51747   0.79321   0.37938   0.00000  Uiso   1.00
N182   N     0.84597   0.59409   0.28298   0.00000  Uiso   1.00
N183   N     0.54547   0.58422   0.04229   0.00000  Uiso   1.00
N184   N     0.49882   0.70379   0.40667   0.00000  Uiso   1.00
C185   C     0.72466   0.84960   0.46431   0.00000  Uiso   1.00
C186   C     0.69147   0.79512   0.48239   0.00000  Uiso   1.00
C187   C     0.71337   0.73892   0.48238   0.00000  Uiso   1.00
C188   C     0.67609   0.69500   0.50044   0.00000  Uiso   1.00
C189   C     0.63323   0.60859   0.52584   0.00000  Uiso   1.00
C190   C     0.68874   0.87793   0.41605   0.00000  Uiso   1.00
C191   C     0.70836   0.89137   0.36026   0.00000  Uiso   1.00
C192   C     0.66878   0.91717   0.32248   0.00000  Uiso   1.00
C193   C     0.62171   0.95937   0.24490   0.00000  Uiso   1.00
C194   C     0.72170   0.89078   0.51648   0.00000  Uiso   1.00
C195   C     0.76902   0.91503   0.54513   0.00000  Uiso   1.00
C196   C     0.75719   0.95166   0.59189   0.00000  Uiso   1.00
C197   C     0.76128   0.01381   0.67024   0.00000  Uiso   1.00
C198   C     0.61950   0.87154   0.49641   0.00000  Uiso   1.00
C199   C     0.63435   0.80704   0.49982   0.00000  Uiso   1.00
C200   C     0.59703   0.76319   0.51789   0.00000  Uiso   1.00
C201   C     0.61887   0.70694   0.51791   0.00000  Uiso   1.00
C202   C     0.63163   0.88985   0.43348   0.00000  Uiso   1.00
C203   C     0.59202   0.91564   0.39578   0.00000  Uiso   1.00
C204   C     0.61156   0.92911   0.33995   0.00000  Uiso   1.00
C205   C     0.66458   0.90269   0.53391   0.00000  Uiso   1.00
C206   C     0.65268   0.93930   0.58064   0.00000  Uiso   1.00
C207   C     0.69997   0.96360   0.60936   0.00000  Uiso   1.00
H208   H     0.76913   0.84033   0.45073   0.00000  Uiso   1.00
H209   H     0.75758   0.72972   0.46888   0.00000  Uiso   1.00
H210   H     0.75256   0.88215   0.34678   0.00000  Uiso   1.00
H211   H     0.81322   0.90580   0.53162   0.00000  Uiso   1.00
H212   H     0.71957   0.61234   0.49666   0.00000  Uiso   1.00
H213   H     0.70901   0.93377   0.23923   0.00000  Uiso   1.00
H214   H     0.83691   0.98365   0.62899   0.00000  Uiso   1.00
H215   H     0.57503   0.88081   0.50998   0.00000  Uiso   1.00
H216   H     0.55283   0.77242   0.53138   0.00000  Uiso   1.00
H217   H     0.54782   0.92485   0.40929   0.00000  Uiso   1.00
H218   H     0.60847   0.94851   0.59412   0.00000  Uiso   1.00
H219   H     0.55339   0.64700   0.54739   0.00000  Uiso   1.00
H220   H     0.54283   0.96843   0.28996   0.00000  Uiso   1.00
H221   H     0.67073   0.01831   0.67972   0.00000  Uiso   1.00
O222   O     0.62537   0.55764   0.53502   0.00000  Uiso   1.00
O223   O     0.61152   0.97934   0.19728   0.00000  Uiso   1.00
O224   O     0.77932   0.04479   0.70864   0.00000  Uiso   1.00
N225   N     0.68351   0.63537   0.50568   0.00000  Uiso   1.00
N226   N     0.67364   0.93588   0.26499   0.00000  Uiso   1.00
N227   N     0.79321   0.98253   0.62938   0.00000  Uiso   1.00
N228   N     0.59409   0.65403   0.53298   0.00000  Uiso   1.00
N229   N     0.58422   0.95453   0.29229   0.00000  Uiso   1.00
N230   N     0.70379   0.00118   0.65667   0.00000  Uiso   1.00
C231   C     0.22466   0.34960   0.96431   0.00000  Uiso   1.00
C232   C     0.19147   0.29512   0.98239   0.00000  Uiso   1.00
C233   C     0.21337   0.23892   0.98238   0.00000  Uiso   1.00
C234   C     0.17609   0.19500   0.00044   0.00000  Uiso   1.00
C235   C     0.13323   0.10859   0.02584   0.00000  Uiso   1.00
C236   C     0.18874   0.37793   0.91605   0.00000  Uiso   1.00
C237   C     0.20836   0.39137   0.86026   0.00000  Uiso   1.00
C238   C     0.16878   0.41717   0.82248   0.00000  Uiso   1.00
C239   C     0.12171   0.45937   0.74490   0.00000  Uiso   1.00
C240   C     0.22170   0.39078   0.01648   0.00000  Uiso   1.00
C241   C     0.26902   0.41503   0.04513   0.00000  Uiso   1.00
C242   C     0.25719   0.45166   0.09189   0.00000  Uiso   1.00
C243   C     0.26128   0.51381   0.17024   0.00000  Uiso   1.00
C244   C     0.11950   0.37154   0.99641   0.00000  Uiso   1.00
C245   C     0.13435   0.30704   0.99982   0.00000  Uiso   1.00
C246   C     0.09703   0.26319   0.01789   0.00000  Uiso   1.00
C247   C     0.11887   0.20694   0.01791   0.00000  Uiso   1.00
C248   C     0.13163   0.38985   0.93348   0.00000  Uiso   1.00
C249   C     0.09202   0.41564   0.89578   0.00000  Uiso   1.00
C250   C     0.11156   0.42911   0.83995   0.00000  Uiso   1.00
C251   C     0.16458   0.40269   0.03391   0.00000  Uiso   1.00
C252   C     0.15268   0.43930   0.08064   0.00000  Uiso   1.00
C253   C     0.19997   0.46360   0.10936   0.00000  Uiso   1.00
H254   H     0.26913   0.34033   0.95073   0.00000  Uiso   1.00
H255   H     0.25758   0.22972   0.96888   0.00000  Uiso   1.00
H256   H     0.25256   0.38215   0.84678   0.00000  Uiso   1.00
H257   H     0.31322   0.40580   0.03162   0.00000  Uiso   1.00
H258   H     0.21957   0.11234   0.99666   0.00000  Uiso   1.00
H259   H     0.20901   0.43377   0.73923   0.00000  Uiso   1.00
H260   H     0.33691   0.48365   0.12899   0.00000  Uiso   1.00
H261   H     0.07503   0.38081   0.00998   0.00000  Uiso   1.00
H262   H     0.05283   0.27242   0.03138   0.00000  Uiso   1.00
H263   H     0.04782   0.42485   0.90929   0.00000  Uiso   1.00
H264   H     0.10847   0.44851   0.09412   0.00000  Uiso   1.00
H265   H     0.05339   0.14700   0.04739   0.00000  Uiso   1.00
H266   H     0.04283   0.46843   0.78996   0.00000  Uiso   1.00
H267   H     0.17073   0.51831   0.17972   0.00000  Uiso   1.00
O268   O     0.12537   0.05764   0.03502   0.00000  Uiso   1.00
O269   O     0.11152   0.47934   0.69728   0.00000  Uiso   1.00
O270   O     0.27932   0.54479   0.20864   0.00000  Uiso   1.00
N271   N     0.18351   0.13537   0.00568   0.00000  Uiso   1.00
N272   N     0.17364   0.43588   0.76499   0.00000  Uiso   1.00
N273   N     0.29321   0.48253   0.12938   0.00000  Uiso   1.00
N274   N     0.09409   0.15403   0.03298   0.00000  Uiso   1.00
N275   N     0.08422   0.45453   0.79229   0.00000  Uiso   1.00
N276   N     0.20379   0.50118   0.15667   0.00000  Uiso   1.00
C277   C     0.77534   0.65040   0.96431   0.00000  Uiso   1.00
C278   C     0.80853   0.70488   0.98239   0.00000  Uiso   1.00
C279   C     0.78663   0.76108   0.98238   0.00000  Uiso   1.00
C280   C     0.82391   0.80500   0.00044   0.00000  Uiso   1.00
C281   C     0.86677   0.89141   0.02584   0.00000  Uiso   1.00
C282   C     0.81126   0.62207   0.91605   0.00000  Uiso   1.00
C283   C     0.79164   0.60863   0.86026   0.00000  Uiso   1.00
C284   C     0.83122   0.58283   0.82248   0.00000  Uiso   1.00
C285   C     0.87829   0.54063   0.74490   0.00000  Uiso   1.00
C286   C     0.77830   0.60922   0.01648   0.00000  Uiso   1.00
C287   C     0.73098   0.58497   0.04513   0.00000  Uiso   1.00
C288   C     0.74281   0.54834   0.09189   0.00000  Uiso   1.00
C289   C     0.73872   0.48619   0.17024   0.00000  Uiso   1.00
C290   C     0.88050   0.62846   0.99641   0.00000  Uiso   1.00
C291   C     0.86565   0.69296   0.99982   0.00000  Uiso   1.00
C292   C     0.90297   0.73681   0.01789   0.00000  Uiso   1.00
C293   C     0.88113   0.79306   0.01791   0.00000  Uiso   1.00
C294   C     0.86837   0.61015   0.93348   0.00000  Uiso   1.00
C295   C     0.90798   0.58436   0.89578   0.00000  Uiso   1.00
C296   C     0.88844   0.57089   0.83995   0.00000  Uiso   1.00
C297   C     0.83542   0.59731   0.03391   0.00000  Uiso   1.00
C298   C     0.84732   0.56070   0.08064   0.00000  Uiso   1.00
C299   C     0.80003   0.53640   0.10936   0.00000  Uiso   1.00
H300   H     0.73087   0.65967   0.95073   0.00000  Uiso   1.00
H301   H     0.74242   0.77028   0.96888   0.00000  Uiso   1.00
H302   H     0.74744   0.61785   0.84678   0.00000  Uiso   1.00
H303   H     0.68678   0.59420   0.03162   0.00000  Uiso   1.00
H304   H     0.78043   0.88766   0.99666   0.00000  Uiso   1.00
H305   H     0.79099   0.56623   0.73923   0.00000  Uiso   1.00
H306   H     0.66309   0.51635   0.12899   0.00000  Uiso   1.00
H307   H     0.92497   0.61919   0.00998   0.00000  Uiso   1.00
H308   H     0.94717   0.72758   0.03138   0.00000  Uiso   1.00
H309   H     0.95218   0.57515   0.90929   0.00000  Uiso   1.00
H310   H     0.89153   0.55149   0.09412   0.00000  Uiso   1.00
H311   H     0.94661   0.85300   0.04739   0.00000  Uiso   1.00
H312   H     0.95717   0.53157   0.78996   0.00000  Uiso   1.00
H313   H     0.82927   0.48169   0.17972   0.00000  Uiso   1.00
O314   O     0.87463   0.94236   0.03502   0.00000  Uiso   1.00
O315   O     0.88848   0.52066   0.69728   0.00000  Uiso   1.00
O316   O     0.72068   0.45521   0.20864   0.00000  Uiso   1.00
N317   N     0.81649   0.86463   0.00568   0.00000  Uiso   1.00
N318   N     0.82636   0.56412   0.76499   0.00000  Uiso   1.00
N319   N     0.70679   0.51747   0.12938   0.00000  Uiso   1.00
N320   N     0.90591   0.84597   0.03298   0.00000  Uiso   1.00
N321   N     0.91578   0.54547   0.79229   0.00000  Uiso   1.00
N322   N     0.79621   0.49882   0.15667   0.00000  Uiso   1.00
C323   C     0.27534   0.15040   0.46431   0.00000  Uiso   1.00
C324   C     0.30853   0.20488   0.48239   0.00000  Uiso   1.00
C325   C     0.28663   0.26108   0.48238   0.00000  Uiso   1.00
C326   C     0.32391   0.30500   0.50044   0.00000  Uiso   1.00
C327   C     0.36677   0.39141   0.52584   0.00000  Uiso   1.00
C328   C     0.31126   0.12207   0.41605   0.00000  Uiso   1.00
C329   C     0.29164   0.10863   0.36026   0.00000  Uiso   1.00
C330   C     0.33122   0.08283   0.32248   0.00000  Uiso   1.00
C331   C     0.37829   0.04063   0.24490   0.00000  Uiso   1.00
C332   C     0.27830   0.10922   0.51648   0.00000  Uiso   1.00
C333   C     0.23098   0.08497   0.54513   0.00000  Uiso   1.00
C334   C     0.24281   0.04834   0.59189   0.00000  Uiso   1.00
C335   C     0.23872   0.98619   0.67024   0.00000  Uiso   1.00
C336   C     0.38050   0.12846   0.49641   0.00000  Uiso   1.00
C337   C     0.36565   0.19296   0.49982   0.00000  Uiso   1.00
C338   C     0.40297   0.23681   0.51789   0.00000  Uiso   1.00
C339   C     0.38113   0.29306   0.51791   0.00000  Uiso   1.00
C340   C     0.36837   0.11015   0.43348   0.00000  Uiso   1.00
C341   C     0.40798   0.08436   0.39578   0.00000  Uiso   1.00
C342   C     0.38844   0.07089   0.33995   0.00000  Uiso   1.00
C343   C     0.33542   0.09731   0.53391   0.00000  Uiso   1.00
C344   C     0.34732   0.06070   0.58064   0.00000  Uiso   1.00
C345   C     0.30003   0.03640   0.60936   0.00000  Uiso   1.00
H346   H     0.23087   0.15967   0.45073   0.00000  Uiso   1.00
H347   H     0.24242   0.27028   0.46888   0.00000  Uiso   1.00
H348   H     0.24744   0.11785   0.34678   0.00000  Uiso   1.00
H349   H     0.18678   0.09420   0.53162   0.00000  Uiso   1.00
H350   H     0.28043   0.38766   0.49666   0.00000  Uiso   1.00
H351   H     0.29099   0.06623   0.23923   0.00000  Uiso   1.00
H352   H     0.16309   0.01635   0.62899   0.00000  Uiso   1.00
H353   H     0.42497   0.11919   0.50998   0.00000  Uiso   1.00
H354   H     0.44717   0.22758   0.53138   0.00000  Uiso   1.00
H355   H     0.45218   0.07515   0.40929   0.00000  Uiso   1.00
H356   H     0.39153   0.05149   0.59412   0.00000  Uiso   1.00
H357   H     0.44661   0.35300   0.54739   0.00000  Uiso   1.00
H358   H     0.45717   0.03157   0.28996   0.00000  Uiso   1.00
H359   H     0.32927   0.98169   0.67972   0.00000  Uiso   1.00
O360   O     0.37463   0.44236   0.53502   0.00000  Uiso   1.00
O361   O     0.38848   0.02066   0.19728   0.00000  Uiso   1.00
O362   O     0.22068   0.95521   0.70864   0.00000  Uiso   1.00
N363   N     0.31649   0.36463   0.50568   0.00000  Uiso   1.00
N364   N     0.32636   0.06412   0.26499   0.00000  Uiso   1.00
N365   N     0.20679   0.01747   0.62938   0.00000  Uiso   1.00
N366   N     0.40591   0.34597   0.53298   0.00000  Uiso   1.00
N367   N     0.41578   0.04547   0.29229   0.00000  Uiso   1.00
N368   N     0.29621   0.99882   0.65667   0.00000  Uiso   1.00
C369   C     0.65040   0.22466   0.03569   0.00000  Uiso   1.00
C370   C     0.70488   0.19147   0.01761   0.00000  Uiso   1.00
C371   C     0.76108   0.21337   0.01762   0.00000  Uiso   1.00
C372   C     0.80500   0.17609   0.99956   0.00000  Uiso   1.00
C373   C     0.89141   0.13323   0.97416   0.00000  Uiso   1.00
C374   C     0.62207   0.18874   0.08395   0.00000  Uiso   1.00
C375   C     0.60863   0.20836   0.13974   0.00000  Uiso   1.00
C376   C     0.58283   0.16878   0.17752   0.00000  Uiso   1.00
C377   C     0.54063   0.12171   0.25510   0.00000  Uiso   1.00
C378   C     0.60922   0.22170   0.98352   0.00000  Uiso   1.00
C379   C     0.58497   0.26902   0.95487   0.00000  Uiso   1.00
C380   C     0.54834   0.25719   0.90811   0.00000  Uiso   1.00
C381   C     0.48619   0.26128   0.82976   0.00000  Uiso   1.00
C382   C     0.62846   0.11950   0.00359   0.00000  Uiso   1.00
C383   C     0.69296   0.13435   0.00018   0.00000  Uiso   1.00
C384   C     0.73681   0.09703   0.98211   0.00000  Uiso   1.00
C385   C     0.79306   0.11887   0.98209   0.00000  Uiso   1.00
C386   C     0.61015   0.13163   0.06652   0.00000  Uiso   1.00
C387   C     0.58436   0.09202   0.10422   0.00000  Uiso   1.00
C388   C     0.57089   0.11156   0.16005   0.00000  Uiso   1.00
C389   C     0.59731   0.16458   0.96609   0.00000  Uiso   1.00
C390   C     0.56070   0.15268   0.91936   0.00000  Uiso   1.00
C391   C     0.53640   0.19997   0.89064   0.00000  Uiso   1.00
H392   H     0.65967   0.26913   0.04927   0.00000  Uiso   1.00
H393   H     0.77028   0.25758   0.03112   0.00000  Uiso   1.00
H394   H     0.61785   0.25256   0.15322   0.00000  Uiso   1.00
H395   H     0.59420   0.31322   0.96838   0.00000  Uiso   1.00
H396   H     0.88766   0.21957   0.00334   0.00000  Uiso   1.00
H397   H     0.56623   0.20901   0.26077   0.00000  Uiso   1.00
H398   H     0.51635   0.33691   0.87101   0.00000  Uiso   1.00
H399   H     0.61919   0.07503   0.99002   0.00000  Uiso   1.00
H400   H     0.72758   0.05283   0.96862   0.00000  Uiso   1.00
H401   H     0.57515   0.04782   0.09071   0.00000  Uiso   1.00
H402   H     0.55149   0.10847   0.90588   0.00000  Uiso   1.00
H403   H     0.85300   0.05339   0.95261   0.00000  Uiso   1.00
H404   H     0.53157   0.04283   0.21004   0.00000  Uiso   1.00
H405   H     0.48169   0.17073   0.82028   0.00000  Uiso   1.00
O406   O     0.94236   0.12537   0.96498   0.00000  Uiso   1.00
O407   O     0.52066   0.11152   0.30272   0.00000  Uiso   1.00
O408   O     0.45521   0.27932   0.79136   0.00000  Uiso   1.00
N409   N     0.86463   0.18351   0.99432   0.00000  Uiso   1.00
N410   N     0.56412   0.17364   0.23501   0.00000  Uiso   1.00
N411   N     0.51747   0.29321   0.87062   0.00000  Uiso   1.00
N412   N     0.84597   0.09409   0.96702   0.00000  Uiso   1.00
N413   N     0.54547   0.08422   0.20771   0.00000  Uiso   1.00
N414   N     0.49882   0.20379   0.84333   0.00000  Uiso   1.00
C415   C     0.15040   0.72466   0.53569   0.00000  Uiso   1.00
C416   C     0.20488   0.69147   0.51761   0.00000  Uiso   1.00
C417   C     0.26108   0.71337   0.51762   0.00000  Uiso   1.00
C418   C     0.30500   0.67609   0.49956   0.00000  Uiso   1.00
C419   C     0.39141   0.63323   0.47416   0.00000  Uiso   1.00
C420   C     0.12207   0.68874   0.58395   0.00000  Uiso   1.00
C421   C     0.10863   0.70836   0.63974   0.00000  Uiso   1.00
C422   C     0.08283   0.66878   0.67752   0.00000  Uiso   1.00
C423   C     0.04063   0.62171   0.75510   0.00000  Uiso   1.00
C424   C     0.10922   0.72170   0.48352   0.00000  Uiso   1.00
C425   C     0.08497   0.76902   0.45487   0.00000  Uiso   1.00
C426   C     0.04834   0.75719   0.40811   0.00000  Uiso   1.00
C427   C     0.98619   0.76128   0.32976   0.00000  Uiso   1.00
C428   C     0.12846   0.61950   0.50359   0.00000  Uiso   1.00
C429   C     0.19296   0.63435   0.50018   0.00000  Uiso   1.00
C430   C     0.23681   0.59703   0.48211   0.00000  Uiso   1.00
C431   C     0.29306   0.61887   0.48209   0.00000  Uiso   1.00
C432   C     0.11015   0.63163   0.56652   0.00000  Uiso   1.00
C433   C     0.08436   0.59202   0.60422   0.00000  Uiso   1.00
C434   C     0.07089   0.61156   0.66005   0.00000  Uiso   1.00
C435   C     0.09731   0.66458   0.46609   0.00000  Uiso   1.00
C436   C     0.06070   0.65268   0.41936   0.00000  Uiso   1.00
C437   C     0.03640   0.69997   0.39064   0.00000  Uiso   1.00
H438   H     0.15967   0.76913   0.54927   0.00000  Uiso   1.00
H439   H     0.27028   0.75758   0.53112   0.00000  Uiso   1.00
H440   H     0.11785   0.75256   0.65322   0.00000  Uiso   1.00
H441   H     0.09420   0.81322   0.46838   0.00000  Uiso   1.00
H442   H     0.38766   0.71957   0.50334   0.00000  Uiso   1.00
H443   H     0.06623   0.70901   0.76077   0.00000  Uiso   1.00
H444   H     0.01635   0.83691   0.37101   0.00000  Uiso   1.00
H445   H     0.11919   0.57503   0.49002   0.00000  Uiso   1.00
H446   H     0.22758   0.55283   0.46862   0.00000  Uiso   1.00
H447   H     0.07515   0.54782   0.59071   0.00000  Uiso   1.00
H448   H     0.05149   0.60847   0.40588   0.00000  Uiso   1.00
H449   H     0.35300   0.55339   0.45261   0.00000  Uiso   1.00
H450   H     0.03157   0.54283   0.71004   0.00000  Uiso   1.00
H451   H     0.98169   0.67073   0.32028   0.00000  Uiso   1.00
O452   O     0.44236   0.62537   0.46498   0.00000  Uiso   1.00
O453   O     0.02066   0.61152   0.80272   0.00000  Uiso   1.00
O454   O     0.95521   0.77932   0.29136   0.00000  Uiso   1.00
N455   N     0.36463   0.68351   0.49432   0.00000  Uiso   1.00
N456   N     0.06412   0.67364   0.73501   0.00000  Uiso   1.00
N457   N     0.01747   0.79321   0.37062   0.00000  Uiso   1.00
N458   N     0.34597   0.59409   0.46702   0.00000  Uiso   1.00
N459   N     0.04547   0.58422   0.70771   0.00000  Uiso   1.00
N460   N     0.99882   0.70379   0.34333   0.00000  Uiso   1.00
C461   C     0.84960   0.27534   0.53569   0.00000  Uiso   1.00
C462   C     0.79512   0.30853   0.51761   0.00000  Uiso   1.00
C463   C     0.73892   0.28663   0.51762   0.00000  Uiso   1.00
C464   C     0.69500   0.32391   0.49956   0.00000  Uiso   1.00
C465   C     0.60859   0.36677   0.47416   0.00000  Uiso   1.00
C466   C     0.87793   0.31126   0.58395   0.00000  Uiso   1.00
C467   C     0.89137   0.29164   0.63974   0.00000  Uiso   1.00
C468   C     0.91717   0.33122   0.67752   0.00000  Uiso   1.00
C469   C     0.95937   0.37829   0.75510   0.00000  Uiso   1.00
C470   C     0.89078   0.27830   0.48352   0.00000  Uiso   1.00
C471   C     0.91503   0.23098   0.45487   0.00000  Uiso   1.00
C472   C     0.95166   0.24281   0.40811   0.00000  Uiso   1.00
C473   C     0.01381   0.23872   0.32976   0.00000  Uiso   1.00
C474   C     0.87154   0.38050   0.50359   0.00000  Uiso   1.00
C475   C     0.80704   0.36565   0.50018   0.00000  Uiso   1.00
C476   C     0.76319   0.40297   0.48211   0.00000  Uiso   1.00
C477   C     0.70694   0.38113   0.48209   0.00000  Uiso   1.00
C478   C     0.88985   0.36837   0.56652   0.00000  Uiso   1.00
C479   C     0.91564   0.40798   0.60422   0.00000  Uiso   1.00
C480   C     0.92911   0.38844   0.66005   0.00000  Uiso   1.00
C481   C     0.90269   0.33542   0.46609   0.00000  Uiso   1.00
C482   C     0.93930   0.34732   0.41936   0.00000  Uiso   1.00
C483   C     0.96360   0.30003   0.39064   0.00000  Uiso   1.00
H484   H     0.84033   0.23087   0.54927   0.00000  Uiso   1.00
H485   H     0.72972   0.24242   0.53112   0.00000  Uiso   1.00
H486   H     0.88215   0.24744   0.65322   0.00000  Uiso   1.00
H487   H     0.90580   0.18678   0.46838   0.00000  Uiso   1.00
H488   H     0.61234   0.28043   0.50334   0.00000  Uiso   1.00
H489   H     0.93377   0.29099   0.76077   0.00000  Uiso   1.00
H490   H     0.98365   0.16309   0.37101   0.00000  Uiso   1.00
H491   H     0.88081   0.42497   0.49002   0.00000  Uiso   1.00
H492   H     0.77242   0.44717   0.46862   0.00000  Uiso   1.00
H493   H     0.92485   0.45218   0.59071   0.00000  Uiso   1.00
H494   H     0.94851   0.39153   0.40588   0.00000  Uiso   1.00
H495   H     0.64700   0.44661   0.45261   0.00000  Uiso   1.00
H496   H     0.96843   0.45717   0.71004   0.00000  Uiso   1.00
H497   H     0.01831   0.32927   0.32028   0.00000  Uiso   1.00
O498   O     0.55764   0.37463   0.46498   0.00000  Uiso   1.00
O499   O     0.97934   0.38848   0.80272   0.00000  Uiso   1.00
O500   O     0.04479   0.22068   0.29136   0.00000  Uiso   1.00
N501   N     0.63537   0.31649   0.49432   0.00000  Uiso   1.00
N502   N     0.93588   0.32636   0.73501   0.00000  Uiso   1.00
N503   N     0.98253   0.20679   0.37062   0.00000  Uiso   1.00
N504   N     0.65403   0.40591   0.46702   0.00000  Uiso   1.00
N505   N     0.95453   0.41578   0.70771   0.00000  Uiso   1.00
N506   N     0.00118   0.29621   0.34333   0.00000  Uiso   1.00
C507   C     0.34960   0.77534   0.03569   0.00000  Uiso   1.00
C508   C     0.29512   0.80853   0.01761   0.00000  Uiso   1.00
C509   C     0.23892   0.78663   0.01762   0.00000  Uiso   1.00
C510   C     0.19500   0.82391   0.99956   0.00000  Uiso   1.00
C511   C     0.10859   0.86677   0.97416   0.00000  Uiso   1.00
C512   C     0.37793   0.81126   0.08395   0.00000  Uiso   1.00
C513   C     0.39137   0.79164   0.13974   0.00000  Uiso   1.00
C514   C     0.41717   0.83122   0.17752   0.00000  Uiso   1.00
C515   C     0.45937   0.87829   0.25510   0.00000  Uiso   1.00
C516   C     0.39078   0.77830   0.98352   0.00000  Uiso   1.00
C517   C     0.41503   0.73098   0.95487   0.00000  Uiso   1.00
C518   C     0.45166   0.74281   0.90811   0.00000  Uiso   1.00
C519   C     0.51381   0.73872   0.82976   0.00000  Uiso   1.00
C520   C     0.37154   0.88050   0.00359   0.00000  Uiso   1.00
C521   C     0.30704   0.86565   0.00018   0.00000  Uiso   1.00
C522   C     0.26319   0.90297   0.98211   0.00000  Uiso   1.00
C523   C     0.20694   0.88113   0.98209   0.00000  Uiso   1.00
C524   C     0.38985   0.86837   0.06652   0.00000  Uiso   1.00
C525   C     0.41564   0.90798   0.10422   0.00000  Uiso   1.00
C526   C     0.42911   0.88844   0.16005   0.00000  Uiso   1.00
C527   C     0.40269   0.83542   0.96609   0.00000  Uiso   1.00
C528   C     0.43930   0.84732   0.91936   0.00000  Uiso   1.00
C529   C     0.46360   0.80003   0.89064   0.00000  Uiso   1.00
H530   H     0.34033   0.73087   0.04927   0.00000  Uiso   1.00
H531   H     0.22972   0.74242   0.03112   0.00000  Uiso   1.00
H532   H     0.38215   0.74744   0.15322   0.00000  Uiso   1.00
H533   H     0.40580   0.68678   0.96838   0.00000  Uiso   1.00
H534   H     0.11234   0.78043   0.00334   0.00000  Uiso   1.00
H535   H     0.43377   0.79099   0.26077   0.00000  Uiso   1.00
H536   H     0.48365   0.66309   0.87101   0.00000  Uiso   1.00
H537   H     0.38081   0.92497   0.99002   0.00000  Uiso   1.00
H538   H     0.27242   0.94717   0.96862   0.00000  Uiso   1.00
H539   H     0.42485   0.95218   0.09071   0.00000  Uiso   1.00
H540   H     0.44851   0.89153   0.90588   0.00000  Uiso   1.00
H541   H     0.14700   0.94661   0.95261   0.00000  Uiso   1.00
H542   H     0.46843   0.95717   0.21004   0.00000  Uiso   1.00
H543   H     0.51831   0.82927   0.82028   0.00000  Uiso   1.00
O544   O     0.05764   0.87463   0.96498   0.00000  Uiso   1.00
O545   O     0.47934   0.88848   0.30272   0.00000  Uiso   1.00
O546   O     0.54479   0.72068   0.79136   0.00000  Uiso   1.00
N547   N     0.13537   0.81649   0.99432   0.00000  Uiso   1.00
N548   N     0.43588   0.82636   0.23501   0.00000  Uiso   1.00
N549   N     0.48253   0.70679   0.87062   0.00000  Uiso   1.00
N550   N     0.15403   0.90591   0.96702   0.00000  Uiso   1.00
N551   N     0.45453   0.91578   0.20771   0.00000  Uiso   1.00
N552   N     0.50118   0.79621   0.84333   0.00000  Uiso   1.00
C553   C     0.27534   0.65040   0.78569   0.00000  Uiso   1.00
C554   C     0.30853   0.70488   0.76761   0.00000  Uiso   1.00
C555   C     0.28663   0.76108   0.76762   0.00000  Uiso   1.00
C556   C     0.32391   0.80500   0.74956   0.00000  Uiso   1.00
C557   C     0.36677   0.89141   0.72416   0.00000  Uiso   1.00
C558   C     0.31126   0.62207   0.83395   0.00000  Uiso   1.00
C559   C     0.29164   0.60863   0.88974   0.00000  Uiso   1.00
C560   C     0.33122   0.58283   0.92752   0.00000  Uiso   1.00
C561   C     0.37829   0.54063   0.00510   0.00000  Uiso   1.00
C562   C     0.27830   0.60922   0.73352   0.00000  Uiso   1.00
C563   C     0.23098   0.58497   0.70487   0.00000  Uiso   1.00
C564   C     0.24281   0.54834   0.65811   0.00000  Uiso   1.00
C565   C     0.23872   0.48619   0.57976   0.00000  Uiso   1.00
C566   C     0.38050   0.62846   0.75359   0.00000  Uiso   1.00
C567   C     0.36565   0.69296   0.75018   0.00000  Uiso   1.00
C568   C     0.40297   0.73681   0.73211   0.00000  Uiso   1.00
C569   C     0.38113   0.79306   0.73209   0.00000  Uiso   1.00
C570   C     0.36837   0.61015   0.81652   0.00000  Uiso   1.00
C571   C     0.40798   0.58436   0.85422   0.00000  Uiso   1.00
C572   C     0.38844   0.57089   0.91005   0.00000  Uiso   1.00
C573   C     0.33542   0.59731   0.71609   0.00000  Uiso   1.00
C574   C     0.34732   0.56070   0.66936   0.00000  Uiso   1.00
C575   C     0.30003   0.53640   0.64064   0.00000  Uiso   1.00
H576   H     0.23087   0.65967   0.79927   0.00000  Uiso   1.00
H577   H     0.24242   0.77028   0.78112   0.00000  Uiso   1.00
H578   H     0.24744   0.61785   0.90322   0.00000  Uiso   1.00
H579   H     0.18678   0.59420   0.71838   0.00000  Uiso   1.00
H580   H     0.28043   0.88766   0.75334   0.00000  Uiso   1.00
H581   H     0.29099   0.56623   0.01077   0.00000  Uiso   1.00
H582   H     0.16309   0.51635   0.62101   0.00000  Uiso   1.00
H583   H     0.42497   0.61919   0.74002   0.00000  Uiso   1.00
H584   H     0.44717   0.72758   0.71862   0.00000  Uiso   1.00
H585   H     0.45218   0.57515   0.84071   0.00000  Uiso   1.00
H586   H     0.39153   0.55149   0.65588   0.00000  Uiso   1.00
H587   H     0.44661   0.85300   0.70261   0.00000  Uiso   1.00
H588   H     0.45717   0.53157   0.96004   0.00000  Uiso   1.00
H589   H     0.32927   0.48169   0.57028   0.00000  Uiso   1.00
O590   O     0.37463   0.94236   0.71498   0.00000  Uiso   1.00
O591   O     0.38848   0.52066   0.05272   0.00000  Uiso   1.00
O592   O     0.22068   0.45521   0.54136   0.00000  Uiso   1.00
N593   N     0.31649   0.86463   0.74432   0.00000  Uiso   1.00
N594   N     0.32636   0.56412   0.98501   0.00000  Uiso   1.00
N595   N     0.20679   0.51747   0.62062   0.00000  Uiso   1.00
N596   N     0.40591   0.84597   0.71702   0.00000  Uiso   1.00
N597   N     0.41578   0.54547   0.95771   0.00000  Uiso   1.00
N598   N     0.29621   0.49882   0.59333   0.00000  Uiso   1.00
C599   C     0.77534   0.15040   0.28569   0.00000  Uiso   1.00
C600   C     0.80853   0.20488   0.26761   0.00000  Uiso   1.00
C601   C     0.78663   0.26108   0.26762   0.00000  Uiso   1.00
C602   C     0.82391   0.30500   0.24956   0.00000  Uiso   1.00
C603   C     0.86677   0.39141   0.22416   0.00000  Uiso   1.00
C604   C     0.81126   0.12207   0.33395   0.00000  Uiso   1.00
C605   C     0.79164   0.10863   0.38974   0.00000  Uiso   1.00
C606   C     0.83122   0.08283   0.42752   0.00000  Uiso   1.00
C607   C     0.87829   0.04063   0.50510   0.00000  Uiso   1.00
C608   C     0.77830   0.10922   0.23352   0.00000  Uiso   1.00
C609   C     0.73098   0.08497   0.20487   0.00000  Uiso   1.00
C610   C     0.74281   0.04834   0.15811   0.00000  Uiso   1.00
C611   C     0.73872   0.98619   0.07976   0.00000  Uiso   1.00
C612   C     0.88050   0.12846   0.25359   0.00000  Uiso   1.00
C613   C     0.86565   0.19296   0.25018   0.00000  Uiso   1.00
C614   C     0.90297   0.23681   0.23211   0.00000  Uiso   1.00
C615   C     0.88113   0.29306   0.23209   0.00000  Uiso   1.00
C616   C     0.86837   0.11015   0.31652   0.00000  Uiso   1.00
C617   C     0.90798   0.08436   0.35422   0.00000  Uiso   1.00
C618   C     0.88844   0.07089   0.41005   0.00000  Uiso   1.00
C619   C     0.83542   0.09731   0.21609   0.00000  Uiso   1.00
C620   C     0.84732   0.06070   0.16936   0.00000  Uiso   1.00
C621   C     0.80003   0.03640   0.14064   0.00000  Uiso   1.00
H622   H     0.73087   0.15967   0.29927   0.00000  Uiso   1.00
H623   H     0.74242   0.27028   0.28112   0.00000  Uiso   1.00
H624   H     0.74744   0.11785   0.40322   0.00000  Uiso   1.00
H625   H     0.68678   0.09420   0.21838   0.00000  Uiso   1.00
H626   H     0.78043   0.38766   0.25334   0.00000  Uiso   1.00
H627   H     0.79099   0.06623   0.51077   0.00000  Uiso   1.00
H628   H     0.66309   0.01635   0.12101   0.00000  Uiso   1.00
H629   H     0.92497   0.11919   0.24002   0.00000  Uiso   1.00
H630   H     0.94717   0.22758   0.21862   0.00000  Uiso   1.00
H631   H     0.95218   0.07515   0.34071   0.00000  Uiso   1.00
H632   H     0.89153   0.05149   0.15588   0.00000  Uiso   1.00
H633   H     0.94661   0.35300   0.20261   0.00000  Uiso   1.00
H634   H     0.95717   0.03157   0.46004   0.00000  Uiso   1.00
H635   H     0.82927   0.98169   0.07028   0.00000  Uiso   1.00
O636   O     0.87463   0.44236   0.21498   0.00000  Uiso   1.00
O637   O     0.88848   0.02066   0.55272   0.00000  Uiso   1.00
O638   O     0.72068   0.95521   0.04136   0.00000  Uiso   1.00
N639   N     0.81649   0.36463   0.24432   0.00000  Uiso   1.00
N640   N     0.82636   0.06412   0.48501   0.00000  Uiso   1.00
N641   N     0.70679   0.01747   0.12062   0.00000  Uiso   1.00
N642   N     0.90591   0.34597   0.21702   0.00000  Uiso   1.00
N643   N     0.91578   0.04547   0.45771   0.00000  Uiso   1.00
N644   N     0.79621   0.99882   0.09333   0.00000  Uiso   1.00
C645   C     0.22466   0.84960   0.28569   0.00000  Uiso   1.00
C646   C     0.19147   0.79512   0.26761   0.00000  Uiso   1.00
C647   C     0.21337   0.73892   0.26762   0.00000  Uiso   1.00
C648   C     0.17609   0.69500   0.24956   0.00000  Uiso   1.00
C649   C     0.13323   0.60859   0.22416   0.00000  Uiso   1.00
C650   C     0.18874   0.87793   0.33395   0.00000  Uiso   1.00
C651   C     0.20836   0.89137   0.38974   0.00000  Uiso   1.00
C652   C     0.16878   0.91717   0.42752   0.00000  Uiso   1.00
C653   C     0.12171   0.95937   0.50510   0.00000  Uiso   1.00
C654   C     0.22170   0.89078   0.23352   0.00000  Uiso   1.00
C655   C     0.26902   0.91503   0.20487   0.00000  Uiso   1.00
C656   C     0.25719   0.95166   0.15811   0.00000  Uiso   1.00
C657   C     0.26128   0.01381   0.07976   0.00000  Uiso   1.00
C658   C     0.11950   0.87154   0.25359   0.00000  Uiso   1.00
C659   C     0.13435   0.80704   0.25018   0.00000  Uiso   1.00
C660   C     0.09703   0.76319   0.23211   0.00000  Uiso   1.00
C661   C     0.11887   0.70694   0.23209   0.00000  Uiso   1.00
C662   C     0.13163   0.88985   0.31652   0.00000  Uiso   1.00
C663   C     0.09202   0.91564   0.35422   0.00000  Uiso   1.00
C664   C     0.11156   0.92911   0.41005   0.00000  Uiso   1.00
C665   C     0.16458   0.90269   0.21609   0.00000  Uiso   1.00
C666   C     0.15268   0.93930   0.16936   0.00000  Uiso   1.00
C667   C     0.19997   0.96360   0.14064   0.00000  Uiso   1.00
H668   H     0.26913   0.84033   0.29927   0.00000  Uiso   1.00
H669   H     0.25758   0.72972   0.28112   0.00000  Uiso   1.00
H670   H     0.25256   0.88215   0.40322   0.00000  Uiso   1.00
H671   H     0.31322   0.90580   0.21838   0.00000  Uiso   1.00
H672   H     0.21957   0.61234   0.25334   0.00000  Uiso   1.00
H673   H     0.20901   0.93377   0.51077   0.00000  Uiso   1.00
H674   H     0.33691   0.98365   0.12101   0.00000  Uiso   1.00
H675   H     0.07503   0.88081   0.24002   0.00000  Uiso   1.00
H676   H     0.05283   0.77242   0.21862   0.00000  Uiso   1.00
H677   H     0.04782   0.92485   0.34071   0.00000  Uiso   1.00
H678   H     0.10847   0.94851   0.15588   0.00000  Uiso   1.00
H679   H     0.05339   0.64700   0.20261   0.00000  Uiso   1.00
H680   H     0.04283   0.96843   0.46004   0.00000  Uiso   1.00
H681   H     0.17073   0.01831   0.07028   0.00000  Uiso   1.00
O682   O     0.12537   0.55764   0.21498   0.00000  Uiso   1.00
O683   O     0.11152   0.97934   0.55272   0.00000  Uiso   1.00
O684   O     0.27932   0.04479   0.04136   0.00000  Uiso   1.00
N685   N     0.18351   0.63537   0.24432   0.00000  Uiso   1.00
N686   N     0.17364   0.93588   0.48501   0.00000  Uiso   1.00
N687   N     0.29321   0.98253   0.12062   0.00000  Uiso   1.00
N688   N     0.09409   0.65403   0.21702   0.00000  Uiso   1.00
N689   N     0.08422   0.95453   0.45771   0.00000  Uiso   1.00
N690   N     0.20379   0.00118   0.09333   0.00000  Uiso   1.00
C691   C     0.72466   0.34960   0.78569   0.00000  Uiso   1.00
C692   C     0.69147   0.29512   0.76761   0.00000  Uiso   1.00
C693   C     0.71337   0.23892   0.76762   0.00000  Uiso   1.00
C694   C     0.67609   0.19500   0.74956   0.00000  Uiso   1.00
C695   C     0.63323   0.10859   0.72416   0.00000  Uiso   1.00
C696   C     0.68874   0.37793   0.83395   0.00000  Uiso   1.00
C697   C     0.70836   0.39137   0.88974   0.00000  Uiso   1.00
C698   C     0.66878   0.41717   0.92752   0.00000  Uiso   1.00
C699   C     0.62171   0.45937   0.00510   0.00000  Uiso   1.00
C700   C     0.72170   0.39078   0.73352   0.00000  Uiso   1.00
C701   C     0.76902   0.41503   0.70487   0.00000  Uiso   1.00
C702   C     0.75719   0.45166   0.65811   0.00000  Uiso   1.00
C703   C     0.76128   0.51381   0.57976   0.00000  Uiso   1.00
C704   C     0.61950   0.37154   0.75359   0.00000  Uiso   1.00
C705   C     0.63435   0.30704   0.75018   0.00000  Uiso   1.00
C706   C     0.59703   0.26319   0.73211   0.00000  Uiso   1.00
C707   C     0.61887   0.20694   0.73209   0.00000  Uiso   1.00
C708   C     0.63163   0.38985   0.81652   0.00000  Uiso   1.00
C709   C     0.59202   0.41564   0.85422   0.00000  Uiso   1.00
C710   C     0.61156   0.42911   0.91005   0.00000  Uiso   1.00
C711   C     0.66458   0.40269   0.71609   0.00000  Uiso   1.00
C712   C     0.65268   0.43930   0.66936   0.00000  Uiso   1.00
C713   C     0.69997   0.46360   0.64064   0.00000  Uiso   1.00
H714   H     0.76913   0.34033   0.79927   0.00000  Uiso   1.00
H715   H     0.75758   0.22972   0.78112   0.00000  Uiso   1.00
H716   H     0.75256   0.38215   0.90322   0.00000  Uiso   1.00
H717   H     0.81322   0.40580   0.71838   0.00000  Uiso   1.00
H718   H     0.71957   0.11234   0.75334   0.00000  Uiso   1.00
H719   H     0.70901   0.43377   0.01077   0.00000  Uiso   1.00
H720   H     0.83691   0.48365   0.62101   0.00000  Uiso   1.00
H721   H     0.57503   0.38081   0.74002   0.00000  Uiso   1.00
H722   H     0.55283   0.27242   0.71862   0.00000  Uiso   1.00
H723   H     0.54782   0.42485   0.84071   0.00000  Uiso   1.00
H724   H     0.60847   0.44851   0.65588   0.00000  Uiso   1.00
H725   H     0.55339   0.14700   0.70261   0.00000  Uiso   1.00
H726   H     0.54283   0.46843   0.96004   0.00000  Uiso   1.00
H727   H     0.67073   0.51831   0.57028   0.00000  Uiso   1.00
O728   O     0.62537   0.05764   0.71498   0.00000  Uiso   1.00
O729   O     0.61152   0.47934   0.05272   0.00000  Uiso   1.00
O730   O     0.77932   0.54479   0.54136   0.00000  Uiso   1.00
N731   N     0.68351   0.13537   0.74432   0.00000  Uiso   1.00
N732   N     0.67364   0.43588   0.98501   0.00000  Uiso   1.00
N733   N     0.79321   0.48253   0.62062   0.00000  Uiso   1.00
N734   N     0.59409   0.15403   0.71702   0.00000  Uiso   1.00
N735   N     0.58422   0.45453   0.95771   0.00000  Uiso   1.00
N736   N     0.70379   0.50118   0.59333   0.00000  Uiso   1.00
