data_job_07083
_audit_creation_date              2018-12-19
_audit_creation_method            'Materials Studio'
_symmetry_space_group_name_H-M    'P1'
_symmetry_Int_Tables_number       1
_symmetry_cell_setting            triclinic
loop_
_symmetry_equiv_pos_as_xyz
  x,y,z
_cell_length_a                    26.5622
_cell_length_b                    26.5622
_cell_length_c                    60.4216
_cell_angle_alpha                 90.0000
_cell_angle_beta                  90.0000
_cell_angle_gamma                 120.0000
loop_
_atom_site_label
_atom_site_type_symbol
_atom_site_fract_x
_atom_site_fract_y
_atom_site_fract_z
_atom_site_U_iso_or_equiv
_atom_site_adp_type
_atom_site_occupancy
C1     C     0.58250   0.03839   0.49101   0.00000  Uiso   1.00
C2     C     0.60958   0.00814   0.47836   0.00000  Uiso   1.00
C3     C     0.58085   0.95040   0.47169   0.00000  Uiso   1.00
C4     C     0.61331   0.93099   0.46031   0.00000  Uiso   1.00
C5     C     0.64640   0.87838   0.44137   0.00000  Uiso   1.00
C6     C     0.61890   0.06303   0.51191   0.00000  Uiso   1.00
C7     C     0.59800   0.05145   0.53345   0.00000  Uiso   1.00
C8     C     0.63831   0.07825   0.55030   0.00000  Uiso   1.00
C9     C     0.01918   0.77756   0.25012   0.00000  Uiso   1.00
C10    C     0.59353   0.09072   0.47702   0.00000  Uiso   1.00
C11    C     0.88463   0.76911   0.13590   0.00000  Uiso   1.00
C12    C     0.90357   0.81923   0.12338   0.00000  Uiso   1.00
C13    C     0.91172   0.89486   0.10235   0.00000  Uiso   1.00
C14    C     0.69124   0.10657   0.48264   0.00000  Uiso   1.00
C15    C     0.66865   0.04517   0.47381   0.00000  Uiso   1.00
C16    C     0.70116   0.02584   0.46243   0.00000  Uiso   1.00
C17    C     0.67248   0.96809   0.45575   0.00000  Uiso   1.00
C18    C     0.67796   0.10006   0.50736   0.00000  Uiso   1.00
C19    C     0.71831   0.12689   0.52419   0.00000  Uiso   1.00
C20    C     0.69748   0.11535   0.54575   0.00000  Uiso   1.00
C21    C     0.65259   0.12775   0.47247   0.00000  Uiso   1.00
C22    C     0.67161   0.17787   0.45997   0.00000  Uiso   1.00
C23    C     0.96274   0.85633   0.11882   0.00000  Uiso   1.00
H24    H     0.53652   0.00956   0.49455   0.00000  Uiso   1.00
H25    H     0.20181   0.25509   0.80855   0.00000  Uiso   1.00
H26    H     0.88562   0.68946   0.20363   0.00000  Uiso   1.00
H27    H     0.50559   0.07377   0.47275   0.00000  Uiso   1.00
H28    H     0.22635   0.17407   0.78512   0.00000  Uiso   1.00
H29    H     0.92916   0.72047   0.24865   0.00000  Uiso   1.00
H30    H     0.49736   0.16129   0.44658   0.00000  Uiso   1.00
H31    H     0.73722   0.13540   0.47910   0.00000  Uiso   1.00
H32    H     0.74687   0.05451   0.45891   0.00000  Uiso   1.00
H33    H     0.76401   0.15555   0.52066   0.00000  Uiso   1.00
H34    H     0.71732   0.20652   0.45645   0.00000  Uiso   1.00
H35    H     0.73152   0.94849   0.43856   0.00000  Uiso   1.00
H36    H     0.76767   0.16155   0.56875   0.00000  Uiso   1.00
H37    H     0.00253   0.93571   0.10001   0.00000  Uiso   1.00
O38    O     0.64833   0.83912   0.43218   0.00000  Uiso   1.00
O39    O     0.02908   0.78533   0.26966   0.00000  Uiso   1.00
O40    O     0.56656   0.25968   0.42535   0.00000  Uiso   1.00
N41    N     0.59880   0.87720   0.45144   0.00000  Uiso   1.00
N42    N     0.96593   0.74306   0.23983   0.00000  Uiso   1.00
N43    N     0.54053   0.17690   0.44658   0.00000  Uiso   1.00
N44    N     0.69126   0.93518   0.44432   0.00000  Uiso   1.00
N45    N     0.72506   0.13437   0.56604   0.00000  Uiso   1.00
N46    N     0.96633   0.90154   0.10612   0.00000  Uiso   1.00
C47    C     0.96646   0.23277   0.62226   0.00000  Uiso   1.00
C48    C     0.99140   0.29148   0.61070   0.00000  Uiso   1.00
C49    C     0.96358   0.32361   0.60830   0.00000  Uiso   1.00
C50    C     0.99374   0.37627   0.59720   0.00000  Uiso   1.00
C51    C     0.35730   0.13110   0.24720   0.00000  Uiso   1.00
C52    C     0.01011   0.24046   0.64021   0.00000  Uiso   1.00
C53    C     0.99803   0.22969   0.66261   0.00000  Uiso   1.00
C54    C     0.04393   0.23939   0.67635   0.00000  Uiso   1.00
C55    C     0.10321   0.24831   0.70549   0.00000  Uiso   1.00
C56    C     0.96845   0.19131   0.60529   0.00000  Uiso   1.00
C57    C     0.92133   0.13920   0.59834   0.00000  Uiso   1.00
C58    C     0.93216   0.10752   0.58269   0.00000  Uiso   1.00
C59    C     0.92674   0.04012   0.55762   0.00000  Uiso   1.00
C60    C     0.06947   0.26916   0.60681   0.00000  Uiso   1.00
C61    C     0.04735   0.31124   0.60231   0.00000  Uiso   1.00
C62    C     0.07756   0.36387   0.59121   0.00000  Uiso   1.00
C63    C     0.04979   0.39607   0.58879   0.00000  Uiso   1.00
C64    C     0.06607   0.26022   0.63182   0.00000  Uiso   1.00
C65    C     0.11200   0.26994   0.64552   0.00000  Uiso   1.00
C66    C     0.09999   0.25919   0.66794   0.00000  Uiso   1.00
C67    C     0.02440   0.21107   0.59690   0.00000  Uiso   1.00
C68    C     0.03530   0.17946   0.58125   0.00000  Uiso   1.00
C69    C     0.98821   0.12732   0.57428   0.00000  Uiso   1.00
H70    H     0.92290   0.21738   0.62879   0.00000  Uiso   1.00
H71    H     0.92029   0.30830   0.61480   0.00000  Uiso   1.00
H72    H     0.95472   0.21439   0.66910   0.00000  Uiso   1.00
H73    H     0.87804   0.12392   0.60484   0.00000  Uiso   1.00
H74    H     0.27541   0.08450   0.26226   0.00000  Uiso   1.00
H75    H     0.01468   0.21979   0.71009   0.00000  Uiso   1.00
H76    H     0.85298   0.02901   0.57458   0.00000  Uiso   1.00
H77    H     0.11303   0.28454   0.60028   0.00000  Uiso   1.00
H78    H     0.12085   0.37915   0.58472   0.00000  Uiso   1.00
H79    H     0.15529   0.28524   0.63902   0.00000  Uiso   1.00
H80    H     0.07861   0.19477   0.57476   0.00000  Uiso   1.00
H81    H     0.10486   0.47533   0.57118   0.00000  Uiso   1.00
H82    H     0.17747   0.27729   0.68568   0.00000  Uiso   1.00
H83    H     0.01577   0.08652   0.55017   0.00000  Uiso   1.00
O84    O     0.35853   0.17428   0.24033   0.00000  Uiso   1.00
O85    O     0.12045   0.24778   0.72388   0.00000  Uiso   1.00
O86    O     0.90829   0.99749   0.54611   0.00000  Uiso   1.00
N87    N     0.31264   0.08504   0.25864   0.00000  Uiso   1.00
N88    N     0.04720   0.23322   0.69903   0.00000  Uiso   1.00
N89    N     0.89602   0.05486   0.57234   0.00000  Uiso   1.00
N90    N     0.06690   0.44932   0.57884   0.00000  Uiso   1.00
N91    N     0.13479   0.26417   0.68589   0.00000  Uiso   1.00
N92    N     0.98361   0.08580   0.55921   0.00000  Uiso   1.00
C93    C     0.24916   0.37172   0.82434   0.00000  Uiso   1.00
C94    C     0.27625   0.34147   0.81169   0.00000  Uiso   1.00
C95    C     0.24752   0.28374   0.80503   0.00000  Uiso   1.00
C96    C     0.27998   0.26432   0.79364   0.00000  Uiso   1.00
C97    C     0.31306   0.21171   0.77470   0.00000  Uiso   1.00
C98    C     0.28557   0.39636   0.84524   0.00000  Uiso   1.00
C99    C     0.26467   0.38479   0.86679   0.00000  Uiso   1.00
C100   C     0.30497   0.41159   0.88364   0.00000  Uiso   1.00
C101   C     0.68585   0.11089   0.58345   0.00000  Uiso   1.00
C102   C     0.26019   0.42405   0.81035   0.00000  Uiso   1.00
C103   C     0.55130   0.10244   0.46923   0.00000  Uiso   1.00
C104   C     0.57024   0.15256   0.45671   0.00000  Uiso   1.00
C105   C     0.57838   0.22820   0.43569   0.00000  Uiso   1.00
C106   C     0.35791   0.43990   0.81597   0.00000  Uiso   1.00
C107   C     0.33532   0.37850   0.80715   0.00000  Uiso   1.00
C108   C     0.36783   0.35917   0.79576   0.00000  Uiso   1.00
C109   C     0.33915   0.30142   0.78908   0.00000  Uiso   1.00
C110   C     0.34463   0.43339   0.84070   0.00000  Uiso   1.00
C111   C     0.38498   0.46022   0.85752   0.00000  Uiso   1.00
C112   C     0.36414   0.44869   0.87908   0.00000  Uiso   1.00
C113   C     0.31926   0.46109   0.80581   0.00000  Uiso   1.00
C114   C     0.33827   0.51120   0.79330   0.00000  Uiso   1.00
C115   C     0.62941   0.18966   0.45216   0.00000  Uiso   1.00
H116   H     0.20318   0.34289   0.82788   0.00000  Uiso   1.00
H117   H     0.86848   0.58842   0.14189   0.00000  Uiso   1.00
H118   H     0.55229   0.02280   0.53697   0.00000  Uiso   1.00
H119   H     0.17226   0.40710   0.80609   0.00000  Uiso   1.00
H120   H     0.89301   0.50741   0.11846   0.00000  Uiso   1.00
H121   H     0.59583   0.05380   0.58198   0.00000  Uiso   1.00
H122   H     0.16402   0.49463   0.77991   0.00000  Uiso   1.00
H123   H     0.40389   0.46874   0.81243   0.00000  Uiso   1.00
H124   H     0.41354   0.38784   0.79225   0.00000  Uiso   1.00
H125   H     0.43068   0.48888   0.85400   0.00000  Uiso   1.00
H126   H     0.38398   0.53985   0.78978   0.00000  Uiso   1.00
H127   H     0.39819   0.28182   0.77189   0.00000  Uiso   1.00
H128   H     0.43434   0.49488   0.90209   0.00000  Uiso   1.00
H129   H     0.66920   0.26904   0.43335   0.00000  Uiso   1.00
O130   O     0.31499   0.17246   0.76552   0.00000  Uiso   1.00
O131   O     0.69575   0.11866   0.60299   0.00000  Uiso   1.00
O132   O     0.23322   0.59301   0.75868   0.00000  Uiso   1.00
N133   N     0.26546   0.21054   0.78477   0.00000  Uiso   1.00
N134   N     0.63259   0.07640   0.57317   0.00000  Uiso   1.00
N135   N     0.20720   0.51023   0.77991   0.00000  Uiso   1.00
N136   N     0.35793   0.26851   0.77765   0.00000  Uiso   1.00
N137   N     0.39173   0.46771   0.89938   0.00000  Uiso   1.00
N138   N     0.63300   0.23488   0.43946   0.00000  Uiso   1.00
C139   C     0.63312   0.56610   0.95559   0.00000  Uiso   1.00
C140   C     0.65807   0.62481   0.94403   0.00000  Uiso   1.00
C141   C     0.63025   0.65694   0.94163   0.00000  Uiso   1.00
C142   C     0.66040   0.70960   0.93053   0.00000  Uiso   1.00
C143   C     0.02397   0.46444   0.58054   0.00000  Uiso   1.00
C144   C     0.67678   0.57379   0.97354   0.00000  Uiso   1.00
C145   C     0.66469   0.56302   0.99595   0.00000  Uiso   1.00
C146   C     0.71060   0.57273   0.00968   0.00000  Uiso   1.00
C147   C     0.76988   0.58164   0.03882   0.00000  Uiso   1.00
C148   C     0.63511   0.52464   0.93862   0.00000  Uiso   1.00
C149   C     0.58800   0.47253   0.93168   0.00000  Uiso   1.00
C150   C     0.59882   0.44085   0.91602   0.00000  Uiso   1.00
C151   C     0.59341   0.37345   0.89095   0.00000  Uiso   1.00
C152   C     0.73613   0.60249   0.94015   0.00000  Uiso   1.00
C153   C     0.71402   0.64458   0.93564   0.00000  Uiso   1.00
C154   C     0.74422   0.69720   0.92454   0.00000  Uiso   1.00
C155   C     0.71645   0.72940   0.92213   0.00000  Uiso   1.00
C156   C     0.73273   0.59356   0.96515   0.00000  Uiso   1.00
C157   C     0.77867   0.60328   0.97886   0.00000  Uiso   1.00
C158   C     0.76665   0.59253   0.00128   0.00000  Uiso   1.00
C159   C     0.69107   0.54441   0.93023   0.00000  Uiso   1.00
C160   C     0.70197   0.51279   0.91458   0.00000  Uiso   1.00
C161   C     0.65488   0.46065   0.90762   0.00000  Uiso   1.00
H162   H     0.58956   0.55072   0.96213   0.00000  Uiso   1.00
H163   H     0.58695   0.64164   0.94813   0.00000  Uiso   1.00
H164   H     0.62139   0.54772   0.00243   0.00000  Uiso   1.00
H165   H     0.54471   0.45725   0.93817   0.00000  Uiso   1.00
H166   H     0.94208   0.41783   0.59559   0.00000  Uiso   1.00
H167   H     0.68135   0.55312   0.04342   0.00000  Uiso   1.00
H168   H     0.51964   0.36235   0.90792   0.00000  Uiso   1.00
H169   H     0.77970   0.61788   0.93361   0.00000  Uiso   1.00
H170   H     0.78752   0.71248   0.91805   0.00000  Uiso   1.00
H171   H     0.82196   0.61857   0.97236   0.00000  Uiso   1.00
H172   H     0.74527   0.52810   0.90810   0.00000  Uiso   1.00
H173   H     0.77153   0.80867   0.90451   0.00000  Uiso   1.00
H174   H     0.84414   0.61062   0.01901   0.00000  Uiso   1.00
H175   H     0.68243   0.41985   0.88350   0.00000  Uiso   1.00
O176   O     0.02519   0.50761   0.57367   0.00000  Uiso   1.00
O177   O     0.78712   0.58111   0.05722   0.00000  Uiso   1.00
O178   O     0.57496   0.33082   0.87944   0.00000  Uiso   1.00
N179   N     0.97931   0.41837   0.59197   0.00000  Uiso   1.00
N180   N     0.71386   0.56656   0.03236   0.00000  Uiso   1.00
N181   N     0.56268   0.38819   0.90568   0.00000  Uiso   1.00
N182   N     0.73357   0.78265   0.91217   0.00000  Uiso   1.00
N183   N     0.80146   0.59750   0.01922   0.00000  Uiso   1.00
N184   N     0.65028   0.41913   0.89254   0.00000  Uiso   1.00
C185   C     0.91583   0.70505   0.15768   0.00000  Uiso   1.00
C186   C     0.94292   0.67480   0.14503   0.00000  Uiso   1.00
C187   C     0.91419   0.61707   0.13836   0.00000  Uiso   1.00
C188   C     0.94665   0.59765   0.12697   0.00000  Uiso   1.00
C189   C     0.97973   0.54504   0.10804   0.00000  Uiso   1.00
C190   C     0.95224   0.72969   0.17858   0.00000  Uiso   1.00
C191   C     0.93133   0.71812   0.20012   0.00000  Uiso   1.00
C192   C     0.97164   0.74492   0.21697   0.00000  Uiso   1.00
C193   C     0.35251   0.44423   0.91679   0.00000  Uiso   1.00
C194   C     0.92686   0.75739   0.14369   0.00000  Uiso   1.00
C195   C     0.21796   0.43577   0.80256   0.00000  Uiso   1.00
C196   C     0.23691   0.48589   0.79005   0.00000  Uiso   1.00
C197   C     0.24505   0.56153   0.76902   0.00000  Uiso   1.00
C198   C     0.02457   0.77324   0.14930   0.00000  Uiso   1.00
C199   C     0.00198   0.71184   0.14048   0.00000  Uiso   1.00
C200   C     0.03450   0.69251   0.12910   0.00000  Uiso   1.00
C201   C     0.00582   0.63475   0.12242   0.00000  Uiso   1.00
C202   C     0.01130   0.76673   0.17403   0.00000  Uiso   1.00
C203   C     0.05164   0.79355   0.19085   0.00000  Uiso   1.00
C204   C     0.03081   0.78202   0.21242   0.00000  Uiso   1.00
C205   C     0.98593   0.79442   0.13914   0.00000  Uiso   1.00
C206   C     0.00494   0.84454   0.12663   0.00000  Uiso   1.00
C207   C     0.29608   0.52300   0.78549   0.00000  Uiso   1.00
H208   H     0.86985   0.67622   0.16122   0.00000  Uiso   1.00
H209   H     0.53514   0.92176   0.47522   0.00000  Uiso   1.00
H210   H     0.21896   0.35613   0.87030   0.00000  Uiso   1.00
H211   H     0.83893   0.74044   0.13942   0.00000  Uiso   1.00
H212   H     0.55968   0.84074   0.45179   0.00000  Uiso   1.00
H213   H     0.26249   0.38714   0.91532   0.00000  Uiso   1.00
H214   H     0.83069   0.82796   0.11325   0.00000  Uiso   1.00
H215   H     0.07056   0.80207   0.14576   0.00000  Uiso   1.00
H216   H     0.08020   0.72117   0.12558   0.00000  Uiso   1.00
H217   H     0.09735   0.82221   0.18733   0.00000  Uiso   1.00
H218   H     0.05065   0.87319   0.12312   0.00000  Uiso   1.00
H219   H     0.06486   0.61515   0.10522   0.00000  Uiso   1.00
H220   H     0.10100   0.82822   0.23542   0.00000  Uiso   1.00
H221   H     0.33587   0.60237   0.76668   0.00000  Uiso   1.00
O222   O     0.98166   0.50579   0.09885   0.00000  Uiso   1.00
O223   O     0.36242   0.45199   0.93633   0.00000  Uiso   1.00
O224   O     0.89989   0.92635   0.09201   0.00000  Uiso   1.00
N225   N     0.93213   0.54387   0.11811   0.00000  Uiso   1.00
N226   N     0.29926   0.40973   0.90650   0.00000  Uiso   1.00
N227   N     0.87387   0.84357   0.11325   0.00000  Uiso   1.00
N228   N     0.02460   0.60185   0.11099   0.00000  Uiso   1.00
N229   N     0.05839   0.80104   0.23271   0.00000  Uiso   1.00
N230   N     0.29967   0.56821   0.77279   0.00000  Uiso   1.00
C231   C     0.29979   0.89944   0.28893   0.00000  Uiso   1.00
C232   C     0.32473   0.95815   0.27737   0.00000  Uiso   1.00
C233   C     0.29692   0.99028   0.27497   0.00000  Uiso   1.00
C234   C     0.32707   0.04294   0.26387   0.00000  Uiso   1.00
C235   C     0.69064   0.79777   0.91387   0.00000  Uiso   1.00
C236   C     0.34345   0.90713   0.30687   0.00000  Uiso   1.00
C237   C     0.33136   0.89635   0.32928   0.00000  Uiso   1.00
C238   C     0.37727   0.90606   0.34302   0.00000  Uiso   1.00
C239   C     0.43654   0.91498   0.37216   0.00000  Uiso   1.00
C240   C     0.30178   0.85798   0.27196   0.00000  Uiso   1.00
C241   C     0.25466   0.80587   0.26501   0.00000  Uiso   1.00
C242   C     0.26549   0.77418   0.24935   0.00000  Uiso   1.00
C243   C     0.26007   0.70679   0.22428   0.00000  Uiso   1.00
C244   C     0.40280   0.93582   0.27348   0.00000  Uiso   1.00
C245   C     0.38069   0.97791   0.26898   0.00000  Uiso   1.00
C246   C     0.41089   0.03053   0.25788   0.00000  Uiso   1.00
C247   C     0.38312   0.06274   0.25546   0.00000  Uiso   1.00
C248   C     0.39940   0.92689   0.29848   0.00000  Uiso   1.00
C249   C     0.44533   0.93661   0.31219   0.00000  Uiso   1.00
C250   C     0.43332   0.92586   0.33461   0.00000  Uiso   1.00
C251   C     0.35773   0.87774   0.26357   0.00000  Uiso   1.00
C252   C     0.36863   0.84613   0.24792   0.00000  Uiso   1.00
C253   C     0.32154   0.79398   0.24095   0.00000  Uiso   1.00
H254   H     0.25623   0.88405   0.29546   0.00000  Uiso   1.00
H255   H     0.25362   0.97497   0.28146   0.00000  Uiso   1.00
H256   H     0.28806   0.88105   0.33577   0.00000  Uiso   1.00
H257   H     0.21137   0.79059   0.27151   0.00000  Uiso   1.00
H258   H     0.60874   0.75116   0.92892   0.00000  Uiso   1.00
H259   H     0.34802   0.88645   0.37675   0.00000  Uiso   1.00
H260   H     0.18631   0.69568   0.24125   0.00000  Uiso   1.00
H261   H     0.44636   0.95121   0.26695   0.00000  Uiso   1.00
H262   H     0.45419   0.04582   0.25138   0.00000  Uiso   1.00
H263   H     0.48862   0.95190   0.30569   0.00000  Uiso   1.00
H264   H     0.41194   0.86143   0.24143   0.00000  Uiso   1.00
H265   H     0.43820   0.14200   0.23784   0.00000  Uiso   1.00
H266   H     0.51081   0.94395   0.35234   0.00000  Uiso   1.00
H267   H     0.34910   0.75318   0.21684   0.00000  Uiso   1.00
O268   O     0.69186   0.84095   0.90700   0.00000  Uiso   1.00
O269   O     0.45378   0.91444   0.39055   0.00000  Uiso   1.00
O270   O     0.24163   0.66416   0.21277   0.00000  Uiso   1.00
N271   N     0.64598   0.75171   0.92531   0.00000  Uiso   1.00
N272   N     0.38053   0.89989   0.36569   0.00000  Uiso   1.00
N273   N     0.22935   0.72153   0.23901   0.00000  Uiso   1.00
N274   N     0.40024   0.11598   0.24550   0.00000  Uiso   1.00
N275   N     0.46813   0.93083   0.35256   0.00000  Uiso   1.00
N276   N     0.31694   0.75247   0.22587   0.00000  Uiso   1.00
C277   C     0.96161   0.54411   0.49101   0.00000  Uiso   1.00
C278   C     0.99186   0.60145   0.47836   0.00000  Uiso   1.00
C279   C     0.04960   0.63045   0.47169   0.00000  Uiso   1.00
C280   C     0.06901   0.68233   0.46031   0.00000  Uiso   1.00
C281   C     0.12162   0.76802   0.44137   0.00000  Uiso   1.00
C282   C     0.93697   0.55587   0.51191   0.00000  Uiso   1.00
C283   C     0.94855   0.54655   0.53345   0.00000  Uiso   1.00
C284   C     0.92175   0.56005   0.55030   0.00000  Uiso   1.00
C285   C     0.22244   0.24162   0.25012   0.00000  Uiso   1.00
C286   C     0.90928   0.50281   0.47702   0.00000  Uiso   1.00
C287   C     0.23089   0.11552   0.13590   0.00000  Uiso   1.00
C288   C     0.18077   0.08435   0.12338   0.00000  Uiso   1.00
C289   C     0.10514   0.01685   0.10235   0.00000  Uiso   1.00
C290   C     0.89343   0.58467   0.48264   0.00000  Uiso   1.00
C291   C     0.95483   0.62348   0.47381   0.00000  Uiso   1.00
C292   C     0.97416   0.67532   0.46243   0.00000  Uiso   1.00
C293   C     0.03191   0.70440   0.45575   0.00000  Uiso   1.00
C294   C     0.89994   0.57790   0.50736   0.00000  Uiso   1.00
C295   C     0.87311   0.59142   0.52419   0.00000  Uiso   1.00
C296   C     0.88465   0.58212   0.54575   0.00000  Uiso   1.00
C297   C     0.87225   0.52484   0.47247   0.00000  Uiso   1.00
C298   C     0.82213   0.49374   0.45997   0.00000  Uiso   1.00
C299   C     0.14367   0.10642   0.11882   0.00000  Uiso   1.00
H300   H     0.99044   0.52696   0.49455   0.00000  Uiso   1.00
H301   H     0.74491   0.94672   0.80855   0.00000  Uiso   1.00
H302   H     0.31054   0.19616   0.20363   0.00000  Uiso   1.00
H303   H     0.92623   0.43182   0.47275   0.00000  Uiso   1.00
H304   H     0.82593   0.05227   0.78512   0.00000  Uiso   1.00
H305   H     0.27953   0.20869   0.24865   0.00000  Uiso   1.00
H306   H     0.83871   0.33606   0.44658   0.00000  Uiso   1.00
H307   H     0.86460   0.60182   0.47910   0.00000  Uiso   1.00
H308   H     0.94549   0.69236   0.45891   0.00000  Uiso   1.00
H309   H     0.84445   0.60847   0.52066   0.00000  Uiso   1.00
H310   H     0.79348   0.51080   0.45645   0.00000  Uiso   1.00
H311   H     0.05151   0.78304   0.43856   0.00000  Uiso   1.00
H312   H     0.83845   0.60612   0.56875   0.00000  Uiso   1.00
H313   H     0.06429   0.06683   0.10001   0.00000  Uiso   1.00
O314   O     0.16088   0.80921   0.43218   0.00000  Uiso   1.00
O315   O     0.21467   0.24376   0.26966   0.00000  Uiso   1.00
O316   O     0.74032   0.30688   0.42535   0.00000  Uiso   1.00
N317   N     0.12280   0.72159   0.45144   0.00000  Uiso   1.00
N318   N     0.25694   0.22286   0.23983   0.00000  Uiso   1.00
N319   N     0.82310   0.36363   0.44658   0.00000  Uiso   1.00
N320   N     0.06482   0.75608   0.44432   0.00000  Uiso   1.00
N321   N     0.86563   0.59069   0.56604   0.00000  Uiso   1.00
N322   N     0.09846   0.06479   0.10612   0.00000  Uiso   1.00
C323   C     0.76723   0.73369   0.62226   0.00000  Uiso   1.00
C324   C     0.70852   0.69992   0.61070   0.00000  Uiso   1.00
C325   C     0.67639   0.63998   0.60830   0.00000  Uiso   1.00
C326   C     0.62373   0.61747   0.59720   0.00000  Uiso   1.00
C327   C     0.86890   0.22620   0.24720   0.00000  Uiso   1.00
C328   C     0.75954   0.76965   0.64021   0.00000  Uiso   1.00
C329   C     0.77031   0.76834   0.66261   0.00000  Uiso   1.00
C330   C     0.76061   0.80454   0.67635   0.00000  Uiso   1.00
C331   C     0.75169   0.85490   0.70549   0.00000  Uiso   1.00
C332   C     0.80869   0.77714   0.60529   0.00000  Uiso   1.00
C333   C     0.86080   0.78213   0.59834   0.00000  Uiso   1.00
C334   C     0.89248   0.82464   0.58269   0.00000  Uiso   1.00
C335   C     0.95988   0.88662   0.55762   0.00000  Uiso   1.00
C336   C     0.73084   0.80031   0.60681   0.00000  Uiso   1.00
C337   C     0.68876   0.73611   0.60231   0.00000  Uiso   1.00
C338   C     0.63613   0.71369   0.59121   0.00000  Uiso   1.00
C339   C     0.60393   0.65372   0.58879   0.00000  Uiso   1.00
C340   C     0.73978   0.80584   0.63182   0.00000  Uiso   1.00
C341   C     0.73006   0.84205   0.64552   0.00000  Uiso   1.00
C342   C     0.74081   0.84079   0.66794   0.00000  Uiso   1.00
C343   C     0.78893   0.81333   0.59690   0.00000  Uiso   1.00
C344   C     0.82054   0.85584   0.58125   0.00000  Uiso   1.00
C345   C     0.87268   0.86089   0.57428   0.00000  Uiso   1.00
H346   H     0.78262   0.70551   0.62879   0.00000  Uiso   1.00
H347   H     0.69170   0.61198   0.61480   0.00000  Uiso   1.00
H348   H     0.78561   0.74034   0.66910   0.00000  Uiso   1.00
H349   H     0.87608   0.75412   0.60484   0.00000  Uiso   1.00
H350   H     0.91550   0.19091   0.26226   0.00000  Uiso   1.00
H351   H     0.78021   0.79490   0.71009   0.00000  Uiso   1.00
H352   H     0.97099   0.82396   0.57458   0.00000  Uiso   1.00
H353   H     0.71546   0.82849   0.60028   0.00000  Uiso   1.00
H354   H     0.62085   0.74170   0.58472   0.00000  Uiso   1.00
H355   H     0.71476   0.87006   0.63902   0.00000  Uiso   1.00
H356   H     0.80523   0.88384   0.57476   0.00000  Uiso   1.00
H357   H     0.52467   0.62953   0.57118   0.00000  Uiso   1.00
H358   H     0.72271   0.90019   0.68568   0.00000  Uiso   1.00
H359   H     0.91348   0.92925   0.55017   0.00000  Uiso   1.00
O360   O     0.82572   0.18425   0.24033   0.00000  Uiso   1.00
O361   O     0.75222   0.87267   0.72388   0.00000  Uiso   1.00
O362   O     0.00251   0.91080   0.54611   0.00000  Uiso   1.00
N363   N     0.91496   0.22760   0.25864   0.00000  Uiso   1.00
N364   N     0.76678   0.81397   0.69903   0.00000  Uiso   1.00
N365   N     0.94514   0.84116   0.57234   0.00000  Uiso   1.00
N366   N     0.55068   0.61759   0.57884   0.00000  Uiso   1.00
N367   N     0.73583   0.87063   0.68589   0.00000  Uiso   1.00
N368   N     0.91420   0.89781   0.55921   0.00000  Uiso   1.00
C369   C     0.62828   0.87744   0.82434   0.00000  Uiso   1.00
C370   C     0.65853   0.93478   0.81169   0.00000  Uiso   1.00
C371   C     0.71626   0.96378   0.80503   0.00000  Uiso   1.00
C372   C     0.73568   0.01566   0.79364   0.00000  Uiso   1.00
C373   C     0.78829   0.10135   0.77470   0.00000  Uiso   1.00
C374   C     0.60364   0.88921   0.84524   0.00000  Uiso   1.00
C375   C     0.61521   0.87988   0.86679   0.00000  Uiso   1.00
C376   C     0.58841   0.89339   0.88364   0.00000  Uiso   1.00
C377   C     0.88911   0.57495   0.58345   0.00000  Uiso   1.00
C378   C     0.57595   0.83614   0.81035   0.00000  Uiso   1.00
C379   C     0.89756   0.44886   0.46923   0.00000  Uiso   1.00
C380   C     0.84744   0.41768   0.45671   0.00000  Uiso   1.00
C381   C     0.77180   0.35019   0.43569   0.00000  Uiso   1.00
C382   C     0.56010   0.91800   0.81597   0.00000  Uiso   1.00
C383   C     0.62150   0.95681   0.80715   0.00000  Uiso   1.00
C384   C     0.64083   0.00866   0.79576   0.00000  Uiso   1.00
C385   C     0.69858   0.03773   0.78908   0.00000  Uiso   1.00
C386   C     0.56661   0.91124   0.84070   0.00000  Uiso   1.00
C387   C     0.53978   0.92476   0.85752   0.00000  Uiso   1.00
C388   C     0.55131   0.91546   0.87908   0.00000  Uiso   1.00
C389   C     0.53891   0.85817   0.80581   0.00000  Uiso   1.00
C390   C     0.48880   0.82707   0.79330   0.00000  Uiso   1.00
C391   C     0.81034   0.43975   0.45216   0.00000  Uiso   1.00
H392   H     0.65711   0.86029   0.82788   0.00000  Uiso   1.00
H393   H     0.41158   0.28006   0.14189   0.00000  Uiso   1.00
H394   H     0.97720   0.52949   0.53697   0.00000  Uiso   1.00
H395   H     0.59290   0.76516   0.80609   0.00000  Uiso   1.00
H396   H     0.49259   0.38560   0.11846   0.00000  Uiso   1.00
H397   H     0.94620   0.54202   0.58198   0.00000  Uiso   1.00
H398   H     0.50537   0.66939   0.77991   0.00000  Uiso   1.00
H399   H     0.53126   0.93516   0.81243   0.00000  Uiso   1.00
H400   H     0.61216   0.02569   0.79225   0.00000  Uiso   1.00
H401   H     0.51112   0.94180   0.85400   0.00000  Uiso   1.00
H402   H     0.46015   0.84413   0.78978   0.00000  Uiso   1.00
H403   H     0.71818   0.11637   0.77189   0.00000  Uiso   1.00
H404   H     0.50512   0.93945   0.90209   0.00000  Uiso   1.00
H405   H     0.73096   0.40016   0.43335   0.00000  Uiso   1.00
O406   O     0.82754   0.14254   0.76552   0.00000  Uiso   1.00
O407   O     0.88134   0.57709   0.60299   0.00000  Uiso   1.00
O408   O     0.40699   0.64021   0.75868   0.00000  Uiso   1.00
N409   N     0.78946   0.05493   0.78477   0.00000  Uiso   1.00
N410   N     0.92360   0.55620   0.57317   0.00000  Uiso   1.00
N411   N     0.48977   0.69697   0.77991   0.00000  Uiso   1.00
N412   N     0.73149   0.08942   0.77765   0.00000  Uiso   1.00
N413   N     0.53229   0.92402   0.89938   0.00000  Uiso   1.00
N414   N     0.76512   0.39812   0.43946   0.00000  Uiso   1.00
C415   C     0.43390   0.06702   0.95559   0.00000  Uiso   1.00
C416   C     0.37519   0.03325   0.94403   0.00000  Uiso   1.00
C417   C     0.34306   0.97331   0.94163   0.00000  Uiso   1.00
C418   C     0.29040   0.95080   0.93053   0.00000  Uiso   1.00
C419   C     0.53556   0.55953   0.58054   0.00000  Uiso   1.00
C420   C     0.42621   0.10299   0.97354   0.00000  Uiso   1.00
C421   C     0.43698   0.10168   0.99595   0.00000  Uiso   1.00
C422   C     0.42727   0.13787   0.00968   0.00000  Uiso   1.00
C423   C     0.41836   0.18823   0.03882   0.00000  Uiso   1.00
C424   C     0.47536   0.11047   0.93862   0.00000  Uiso   1.00
C425   C     0.52747   0.11546   0.93168   0.00000  Uiso   1.00
C426   C     0.55915   0.15797   0.91602   0.00000  Uiso   1.00
C427   C     0.62655   0.21995   0.89095   0.00000  Uiso   1.00
C428   C     0.39751   0.13364   0.94015   0.00000  Uiso   1.00
C429   C     0.35542   0.06945   0.93564   0.00000  Uiso   1.00
C430   C     0.30280   0.04702   0.92454   0.00000  Uiso   1.00
C431   C     0.27060   0.98705   0.92213   0.00000  Uiso   1.00
C432   C     0.40644   0.13918   0.96515   0.00000  Uiso   1.00
C433   C     0.39672   0.17539   0.97886   0.00000  Uiso   1.00
C434   C     0.40747   0.17413   0.00128   0.00000  Uiso   1.00
C435   C     0.45559   0.14666   0.93023   0.00000  Uiso   1.00
C436   C     0.48721   0.18917   0.91458   0.00000  Uiso   1.00
C437   C     0.53935   0.19423   0.90762   0.00000  Uiso   1.00
H438   H     0.44928   0.03885   0.96213   0.00000  Uiso   1.00
H439   H     0.35836   0.94532   0.94813   0.00000  Uiso   1.00
H440   H     0.45228   0.07367   0.00243   0.00000  Uiso   1.00
H441   H     0.54275   0.08745   0.93817   0.00000  Uiso   1.00
H442   H     0.58217   0.52425   0.59559   0.00000  Uiso   1.00
H443   H     0.44688   0.12823   0.04342   0.00000  Uiso   1.00
H444   H     0.63765   0.15730   0.90792   0.00000  Uiso   1.00
H445   H     0.38212   0.16182   0.93361   0.00000  Uiso   1.00
H446   H     0.28752   0.07504   0.91805   0.00000  Uiso   1.00
H447   H     0.38143   0.20339   0.97236   0.00000  Uiso   1.00
H448   H     0.47190   0.21717   0.90810   0.00000  Uiso   1.00
H449   H     0.19133   0.96286   0.90451   0.00000  Uiso   1.00
H450   H     0.38938   0.23352   0.01901   0.00000  Uiso   1.00
H451   H     0.58015   0.26258   0.88350   0.00000  Uiso   1.00
O452   O     0.49239   0.51758   0.57367   0.00000  Uiso   1.00
O453   O     0.41889   0.20601   0.05722   0.00000  Uiso   1.00
O454   O     0.66918   0.24414   0.87944   0.00000  Uiso   1.00
N455   N     0.58163   0.56094   0.59197   0.00000  Uiso   1.00
N456   N     0.43344   0.14731   0.03236   0.00000  Uiso   1.00
N457   N     0.61181   0.17449   0.90568   0.00000  Uiso   1.00
N458   N     0.21735   0.95092   0.91217   0.00000  Uiso   1.00
N459   N     0.40250   0.20396   0.01922   0.00000  Uiso   1.00
N460   N     0.58087   0.23114   0.89254   0.00000  Uiso   1.00
C461   C     0.29495   0.21078   0.15768   0.00000  Uiso   1.00
C462   C     0.32520   0.26812   0.14503   0.00000  Uiso   1.00
C463   C     0.38293   0.29712   0.13836   0.00000  Uiso   1.00
C464   C     0.40235   0.34899   0.12697   0.00000  Uiso   1.00
C465   C     0.45496   0.43469   0.10804   0.00000  Uiso   1.00
C466   C     0.27031   0.22254   0.17858   0.00000  Uiso   1.00
C467   C     0.28188   0.21321   0.20012   0.00000  Uiso   1.00
C468   C     0.25508   0.22672   0.21697   0.00000  Uiso   1.00
C469   C     0.55577   0.90829   0.91679   0.00000  Uiso   1.00
C470   C     0.24261   0.16948   0.14369   0.00000  Uiso   1.00
C471   C     0.56423   0.78219   0.80256   0.00000  Uiso   1.00
C472   C     0.51411   0.75101   0.79005   0.00000  Uiso   1.00
C473   C     0.43847   0.68352   0.76902   0.00000  Uiso   1.00
C474   C     0.22676   0.25134   0.14930   0.00000  Uiso   1.00
C475   C     0.28816   0.29014   0.14048   0.00000  Uiso   1.00
C476   C     0.30749   0.34199   0.12910   0.00000  Uiso   1.00
C477   C     0.36525   0.37106   0.12242   0.00000  Uiso   1.00
C478   C     0.23327   0.24457   0.17403   0.00000  Uiso   1.00
C479   C     0.20645   0.25809   0.19085   0.00000  Uiso   1.00
C480   C     0.21798   0.24879   0.21242   0.00000  Uiso   1.00
C481   C     0.20558   0.19151   0.13914   0.00000  Uiso   1.00
C482   C     0.15546   0.16040   0.12663   0.00000  Uiso   1.00
C483   C     0.47700   0.77308   0.78549   0.00000  Uiso   1.00
H484   H     0.32378   0.19363   0.16122   0.00000  Uiso   1.00
H485   H     0.07824   0.61339   0.47522   0.00000  Uiso   1.00
H486   H     0.64387   0.86283   0.87030   0.00000  Uiso   1.00
H487   H     0.25956   0.09849   0.13942   0.00000  Uiso   1.00
H488   H     0.15926   0.71894   0.45179   0.00000  Uiso   1.00
H489   H     0.61286   0.87536   0.91532   0.00000  Uiso   1.00
H490   H     0.17204   0.00273   0.11325   0.00000  Uiso   1.00
H491   H     0.19793   0.26849   0.14576   0.00000  Uiso   1.00
H492   H     0.27883   0.35903   0.12558   0.00000  Uiso   1.00
H493   H     0.17779   0.27513   0.18733   0.00000  Uiso   1.00
H494   H     0.12681   0.17746   0.12312   0.00000  Uiso   1.00
H495   H     0.38485   0.44970   0.10522   0.00000  Uiso   1.00
H496   H     0.17178   0.27279   0.23542   0.00000  Uiso   1.00
H497   H     0.39763   0.73349   0.76668   0.00000  Uiso   1.00
O498   O     0.49421   0.47587   0.09885   0.00000  Uiso   1.00
O499   O     0.54801   0.91042   0.93633   0.00000  Uiso   1.00
O500   O     0.07365   0.97354   0.09201   0.00000  Uiso   1.00
N501   N     0.45613   0.38826   0.11811   0.00000  Uiso   1.00
N502   N     0.59027   0.88953   0.90650   0.00000  Uiso   1.00
N503   N     0.15643   0.03030   0.11325   0.00000  Uiso   1.00
N504   N     0.39815   0.42275   0.11099   0.00000  Uiso   1.00
N505   N     0.19896   0.25735   0.23271   0.00000  Uiso   1.00
N506   N     0.43179   0.73146   0.77279   0.00000  Uiso   1.00
C507   C     0.10056   0.40035   0.28893   0.00000  Uiso   1.00
C508   C     0.04185   0.36659   0.27737   0.00000  Uiso   1.00
C509   C     0.00972   0.30664   0.27497   0.00000  Uiso   1.00
C510   C     0.95706   0.28413   0.26387   0.00000  Uiso   1.00
C511   C     0.20223   0.89287   0.91387   0.00000  Uiso   1.00
C512   C     0.09287   0.43632   0.30687   0.00000  Uiso   1.00
C513   C     0.10365   0.43501   0.32928   0.00000  Uiso   1.00
C514   C     0.09394   0.47121   0.34302   0.00000  Uiso   1.00
C515   C     0.08502   0.52157   0.37216   0.00000  Uiso   1.00
C516   C     0.14202   0.44380   0.27196   0.00000  Uiso   1.00
C517   C     0.19413   0.44880   0.26501   0.00000  Uiso   1.00
C518   C     0.22582   0.49131   0.24935   0.00000  Uiso   1.00
C519   C     0.29321   0.55328   0.22428   0.00000  Uiso   1.00
C520   C     0.06418   0.46698   0.27348   0.00000  Uiso   1.00
C521   C     0.02209   0.40278   0.26898   0.00000  Uiso   1.00
C522   C     0.96947   0.38035   0.25788   0.00000  Uiso   1.00
C523   C     0.93726   0.32038   0.25546   0.00000  Uiso   1.00
C524   C     0.07311   0.47251   0.29848   0.00000  Uiso   1.00
C525   C     0.06339   0.50872   0.31219   0.00000  Uiso   1.00
C526   C     0.07414   0.50746   0.33461   0.00000  Uiso   1.00
C527   C     0.12226   0.47999   0.26357   0.00000  Uiso   1.00
C528   C     0.15387   0.52251   0.24792   0.00000  Uiso   1.00
C529   C     0.20602   0.52756   0.24095   0.00000  Uiso   1.00
H530   H     0.11595   0.37218   0.29546   0.00000  Uiso   1.00
H531   H     0.02503   0.27865   0.28146   0.00000  Uiso   1.00
H532   H     0.11895   0.40700   0.33577   0.00000  Uiso   1.00
H533   H     0.20941   0.42079   0.27151   0.00000  Uiso   1.00
H534   H     0.24884   0.85758   0.92892   0.00000  Uiso   1.00
H535   H     0.11355   0.46157   0.37675   0.00000  Uiso   1.00
H536   H     0.30432   0.49063   0.24125   0.00000  Uiso   1.00
H537   H     0.04879   0.49515   0.26695   0.00000  Uiso   1.00
H538   H     0.95418   0.40837   0.25138   0.00000  Uiso   1.00
H539   H     0.04810   0.53672   0.30569   0.00000  Uiso   1.00
H540   H     0.13857   0.55050   0.24143   0.00000  Uiso   1.00
H541   H     0.85800   0.29620   0.23784   0.00000  Uiso   1.00
H542   H     0.05605   0.56685   0.35234   0.00000  Uiso   1.00
H543   H     0.24682   0.59592   0.21684   0.00000  Uiso   1.00
O544   O     0.15905   0.85091   0.90700   0.00000  Uiso   1.00
O545   O     0.08556   0.53934   0.39055   0.00000  Uiso   1.00
O546   O     0.33584   0.57747   0.21277   0.00000  Uiso   1.00
N547   N     0.24829   0.89427   0.92531   0.00000  Uiso   1.00
N548   N     0.10011   0.48064   0.36569   0.00000  Uiso   1.00
N549   N     0.27847   0.50782   0.23901   0.00000  Uiso   1.00
N550   N     0.88402   0.28426   0.24550   0.00000  Uiso   1.00
N551   N     0.06917   0.53729   0.35256   0.00000  Uiso   1.00
N552   N     0.24753   0.56448   0.22587   0.00000  Uiso   1.00
C553   C     0.45589   0.41750   0.49101   0.00000  Uiso   1.00
C554   C     0.39855   0.39042   0.47836   0.00000  Uiso   1.00
C555   C     0.36955   0.41915   0.47169   0.00000  Uiso   1.00
C556   C     0.31767   0.38669   0.46031   0.00000  Uiso   1.00
C557   C     0.23198   0.35360   0.44137   0.00000  Uiso   1.00
C558   C     0.44413   0.38110   0.51191   0.00000  Uiso   1.00
C559   C     0.45345   0.40200   0.53345   0.00000  Uiso   1.00
C560   C     0.43995   0.36169   0.55030   0.00000  Uiso   1.00
C561   C     0.75838   0.98082   0.25012   0.00000  Uiso   1.00
C562   C     0.49719   0.40647   0.47702   0.00000  Uiso   1.00
C563   C     0.88448   0.11537   0.13590   0.00000  Uiso   1.00
C564   C     0.91565   0.09643   0.12338   0.00000  Uiso   1.00
C565   C     0.98315   0.08828   0.10235   0.00000  Uiso   1.00
C566   C     0.41533   0.30876   0.48264   0.00000  Uiso   1.00
C567   C     0.37652   0.33135   0.47381   0.00000  Uiso   1.00
C568   C     0.32468   0.29884   0.46243   0.00000  Uiso   1.00
C569   C     0.29560   0.32752   0.45575   0.00000  Uiso   1.00
C570   C     0.42210   0.32204   0.50736   0.00000  Uiso   1.00
C571   C     0.40858   0.28169   0.52419   0.00000  Uiso   1.00
C572   C     0.41788   0.30252   0.54575   0.00000  Uiso   1.00
C573   C     0.47516   0.34741   0.47247   0.00000  Uiso   1.00
C574   C     0.50626   0.32839   0.45997   0.00000  Uiso   1.00
C575   C     0.89358   0.03726   0.11882   0.00000  Uiso   1.00
H576   H     0.47304   0.46348   0.49455   0.00000  Uiso   1.00
H577   H     0.05328   0.79819   0.80855   0.00000  Uiso   1.00
H578   H     0.80384   0.11438   0.20363   0.00000  Uiso   1.00
H579   H     0.56818   0.49441   0.47275   0.00000  Uiso   1.00
H580   H     0.94773   0.77365   0.78512   0.00000  Uiso   1.00
H581   H     0.79131   0.07084   0.24865   0.00000  Uiso   1.00
H582   H     0.66394   0.50264   0.44658   0.00000  Uiso   1.00
H583   H     0.39818   0.26278   0.47910   0.00000  Uiso   1.00
H584   H     0.30764   0.25313   0.45891   0.00000  Uiso   1.00
H585   H     0.39153   0.23599   0.52066   0.00000  Uiso   1.00
H586   H     0.48920   0.28268   0.45645   0.00000  Uiso   1.00
H587   H     0.21696   0.26848   0.43856   0.00000  Uiso   1.00
H588   H     0.39388   0.23233   0.56875   0.00000  Uiso   1.00
H589   H     0.93317   0.99747   0.10001   0.00000  Uiso   1.00
O590   O     0.19079   0.35167   0.43218   0.00000  Uiso   1.00
O591   O     0.75624   0.97092   0.26966   0.00000  Uiso   1.00
O592   O     0.69312   0.43344   0.42535   0.00000  Uiso   1.00
N593   N     0.27841   0.40120   0.45144   0.00000  Uiso   1.00
N594   N     0.77714   0.03407   0.23983   0.00000  Uiso   1.00
N595   N     0.63637   0.45947   0.44658   0.00000  Uiso   1.00
N596   N     0.24392   0.30874   0.44432   0.00000  Uiso   1.00
N597   N     0.40931   0.27494   0.56604   0.00000  Uiso   1.00
N598   N     0.93521   0.03367   0.10612   0.00000  Uiso   1.00
C599   C     0.26631   0.03354   0.62226   0.00000  Uiso   1.00
C600   C     0.30008   0.00860   0.61070   0.00000  Uiso   1.00
C601   C     0.36002   0.03642   0.60830   0.00000  Uiso   1.00
C602   C     0.38253   0.00626   0.59720   0.00000  Uiso   1.00
C603   C     0.77380   0.64270   0.24720   0.00000  Uiso   1.00
C604   C     0.23035   0.98989   0.64021   0.00000  Uiso   1.00
C605   C     0.23166   0.00197   0.66261   0.00000  Uiso   1.00
C606   C     0.19546   0.95607   0.67635   0.00000  Uiso   1.00
C607   C     0.14510   0.89679   0.70549   0.00000  Uiso   1.00
C608   C     0.22286   0.03155   0.60529   0.00000  Uiso   1.00
C609   C     0.21787   0.07867   0.59834   0.00000  Uiso   1.00
C610   C     0.17536   0.06784   0.58269   0.00000  Uiso   1.00
C611   C     0.11338   0.07326   0.55762   0.00000  Uiso   1.00
C612   C     0.19969   0.93053   0.60681   0.00000  Uiso   1.00
C613   C     0.26389   0.95265   0.60231   0.00000  Uiso   1.00
C614   C     0.28631   0.92244   0.59121   0.00000  Uiso   1.00
C615   C     0.34628   0.95021   0.58879   0.00000  Uiso   1.00
C616   C     0.19416   0.93393   0.63182   0.00000  Uiso   1.00
C617   C     0.15795   0.88800   0.64552   0.00000  Uiso   1.00
C618   C     0.15921   0.90001   0.66794   0.00000  Uiso   1.00
C619   C     0.18667   0.97560   0.59690   0.00000  Uiso   1.00
C620   C     0.14416   0.96470   0.58125   0.00000  Uiso   1.00
C621   C     0.13911   0.01179   0.57428   0.00000  Uiso   1.00
H622   H     0.29449   0.07710   0.62879   0.00000  Uiso   1.00
H623   H     0.38802   0.07971   0.61480   0.00000  Uiso   1.00
H624   H     0.25966   0.04528   0.66910   0.00000  Uiso   1.00
H625   H     0.24588   0.12196   0.60484   0.00000  Uiso   1.00
H626   H     0.80909   0.72459   0.26226   0.00000  Uiso   1.00
H627   H     0.20510   0.98532   0.71009   0.00000  Uiso   1.00
H628   H     0.17604   0.14702   0.57458   0.00000  Uiso   1.00
H629   H     0.17151   0.88697   0.60028   0.00000  Uiso   1.00
H630   H     0.25830   0.87915   0.58472   0.00000  Uiso   1.00
H631   H     0.12994   0.84471   0.63902   0.00000  Uiso   1.00
H632   H     0.11616   0.92139   0.57476   0.00000  Uiso   1.00
H633   H     0.37047   0.89514   0.57118   0.00000  Uiso   1.00
H634   H     0.09981   0.82253   0.68568   0.00000  Uiso   1.00
H635   H     0.07075   0.98423   0.55017   0.00000  Uiso   1.00
O636   O     0.81575   0.64147   0.24033   0.00000  Uiso   1.00
O637   O     0.12733   0.87955   0.72388   0.00000  Uiso   1.00
O638   O     0.08920   0.09171   0.54611   0.00000  Uiso   1.00
N639   N     0.77240   0.68736   0.25864   0.00000  Uiso   1.00
N640   N     0.18603   0.95280   0.69903   0.00000  Uiso   1.00
N641   N     0.15884   0.10398   0.57234   0.00000  Uiso   1.00
N642   N     0.38241   0.93310   0.57884   0.00000  Uiso   1.00
N643   N     0.12937   0.86521   0.68589   0.00000  Uiso   1.00
N644   N     0.10219   0.01639   0.55921   0.00000  Uiso   1.00
C645   C     0.12256   0.75084   0.82434   0.00000  Uiso   1.00
C646   C     0.06522   0.72375   0.81169   0.00000  Uiso   1.00
C647   C     0.03622   0.75248   0.80503   0.00000  Uiso   1.00
C648   C     0.98434   0.72002   0.79364   0.00000  Uiso   1.00
C649   C     0.89865   0.68694   0.77470   0.00000  Uiso   1.00
C650   C     0.11079   0.71443   0.84524   0.00000  Uiso   1.00
C651   C     0.12012   0.73533   0.86679   0.00000  Uiso   1.00
C652   C     0.10661   0.69503   0.88364   0.00000  Uiso   1.00
C653   C     0.42505   0.31415   0.58345   0.00000  Uiso   1.00
C654   C     0.16386   0.73981   0.81035   0.00000  Uiso   1.00
C655   C     0.55114   0.44870   0.46923   0.00000  Uiso   1.00
C656   C     0.58232   0.42976   0.45671   0.00000  Uiso   1.00
C657   C     0.64981   0.42162   0.43569   0.00000  Uiso   1.00
C658   C     0.08200   0.64209   0.81597   0.00000  Uiso   1.00
C659   C     0.04319   0.66468   0.80715   0.00000  Uiso   1.00
C660   C     0.99134   0.63217   0.79576   0.00000  Uiso   1.00
C661   C     0.96227   0.66085   0.78908   0.00000  Uiso   1.00
C662   C     0.08876   0.65537   0.84070   0.00000  Uiso   1.00
C663   C     0.07524   0.61502   0.85752   0.00000  Uiso   1.00
C664   C     0.08454   0.63586   0.87908   0.00000  Uiso   1.00
C665   C     0.14183   0.68074   0.80581   0.00000  Uiso   1.00
C666   C     0.17293   0.66173   0.79330   0.00000  Uiso   1.00
C667   C     0.56025   0.37059   0.45216   0.00000  Uiso   1.00
H668   H     0.13971   0.79682   0.82788   0.00000  Uiso   1.00
H669   H     0.71994   0.13152   0.14189   0.00000  Uiso   1.00
H670   H     0.47051   0.44771   0.53697   0.00000  Uiso   1.00
H671   H     0.23484   0.82774   0.80609   0.00000  Uiso   1.00
H672   H     0.61440   0.10699   0.11846   0.00000  Uiso   1.00
H673   H     0.45798   0.40417   0.58198   0.00000  Uiso   1.00
H674   H     0.33061   0.83598   0.77991   0.00000  Uiso   1.00
H675   H     0.06484   0.59611   0.81243   0.00000  Uiso   1.00
H676   H     0.97431   0.58646   0.79225   0.00000  Uiso   1.00
H677   H     0.05820   0.56932   0.85400   0.00000  Uiso   1.00
H678   H     0.15587   0.61602   0.78978   0.00000  Uiso   1.00
H679   H     0.88363   0.60181   0.77189   0.00000  Uiso   1.00
H680   H     0.06055   0.56566   0.90209   0.00000  Uiso   1.00
H681   H     0.59984   0.33080   0.43335   0.00000  Uiso   1.00
O682   O     0.85746   0.68501   0.76552   0.00000  Uiso   1.00
O683   O     0.42291   0.30425   0.60299   0.00000  Uiso   1.00
O684   O     0.35979   0.76678   0.75868   0.00000  Uiso   1.00
N685   N     0.94507   0.73454   0.78477   0.00000  Uiso   1.00
N686   N     0.44380   0.36741   0.57317   0.00000  Uiso   1.00
N687   N     0.30303   0.79280   0.77991   0.00000  Uiso   1.00
N688   N     0.91058   0.64207   0.77765   0.00000  Uiso   1.00
N689   N     0.07598   0.60827   0.89938   0.00000  Uiso   1.00
N690   N     0.60188   0.36700   0.43946   0.00000  Uiso   1.00
C691   C     0.93298   0.36688   0.95559   0.00000  Uiso   1.00
C692   C     0.96675   0.34193   0.94403   0.00000  Uiso   1.00
C693   C     0.02669   0.36975   0.94163   0.00000  Uiso   1.00
C694   C     0.04920   0.33960   0.93053   0.00000  Uiso   1.00
C695   C     0.44047   0.97603   0.58054   0.00000  Uiso   1.00
C696   C     0.89701   0.32322   0.97354   0.00000  Uiso   1.00
C697   C     0.89832   0.33531   0.99595   0.00000  Uiso   1.00
C698   C     0.86213   0.28940   0.00968   0.00000  Uiso   1.00
C699   C     0.81177   0.23012   0.03882   0.00000  Uiso   1.00
C700   C     0.88953   0.36489   0.93862   0.00000  Uiso   1.00
C701   C     0.88454   0.41200   0.93168   0.00000  Uiso   1.00
C702   C     0.84203   0.40118   0.91602   0.00000  Uiso   1.00
C703   C     0.78005   0.40659   0.89095   0.00000  Uiso   1.00
C704   C     0.86636   0.26387   0.94015   0.00000  Uiso   1.00
C705   C     0.93055   0.28598   0.93564   0.00000  Uiso   1.00
C706   C     0.95298   0.25578   0.92454   0.00000  Uiso   1.00
C707   C     0.01295   0.28355   0.92213   0.00000  Uiso   1.00
C708   C     0.86082   0.26727   0.96515   0.00000  Uiso   1.00
C709   C     0.82461   0.22133   0.97886   0.00000  Uiso   1.00
C710   C     0.82587   0.23335   0.00128   0.00000  Uiso   1.00
C711   C     0.85334   0.30893   0.93023   0.00000  Uiso   1.00
C712   C     0.81083   0.29803   0.91458   0.00000  Uiso   1.00
C713   C     0.80577   0.34512   0.90762   0.00000  Uiso   1.00
H714   H     0.96115   0.41044   0.96213   0.00000  Uiso   1.00
H715   H     0.05468   0.41305   0.94813   0.00000  Uiso   1.00
H716   H     0.92633   0.37861   0.00243   0.00000  Uiso   1.00
H717   H     0.91255   0.45529   0.93817   0.00000  Uiso   1.00
H718   H     0.47575   0.05792   0.59559   0.00000  Uiso   1.00
H719   H     0.87177   0.31865   0.04342   0.00000  Uiso   1.00
H720   H     0.84270   0.48036   0.90792   0.00000  Uiso   1.00
H721   H     0.83818   0.22030   0.93361   0.00000  Uiso   1.00
H722   H     0.92496   0.21248   0.91805   0.00000  Uiso   1.00
H723   H     0.79661   0.17804   0.97236   0.00000  Uiso   1.00
H724   H     0.78283   0.25473   0.90810   0.00000  Uiso   1.00
H725   H     0.03714   0.22847   0.90451   0.00000  Uiso   1.00
H726   H     0.76648   0.15586   0.01901   0.00000  Uiso   1.00
H727   H     0.73742   0.31757   0.88350   0.00000  Uiso   1.00
O728   O     0.48242   0.97481   0.57367   0.00000  Uiso   1.00
O729   O     0.79399   0.21288   0.05722   0.00000  Uiso   1.00
O730   O     0.75586   0.42504   0.87944   0.00000  Uiso   1.00
N731   N     0.43906   0.02069   0.59197   0.00000  Uiso   1.00
N732   N     0.85269   0.28614   0.03236   0.00000  Uiso   1.00
N733   N     0.82551   0.43732   0.90568   0.00000  Uiso   1.00
N734   N     0.04908   0.26643   0.91217   0.00000  Uiso   1.00
N735   N     0.79604   0.19854   0.01922   0.00000  Uiso   1.00
N736   N     0.76886   0.34972   0.89254   0.00000  Uiso   1.00
C737   C     0.78922   0.08417   0.15768   0.00000  Uiso   1.00
C738   C     0.73188   0.05708   0.14503   0.00000  Uiso   1.00
C739   C     0.70288   0.08581   0.13836   0.00000  Uiso   1.00
C740   C     0.65101   0.05335   0.12697   0.00000  Uiso   1.00
C741   C     0.56531   0.02027   0.10804   0.00000  Uiso   1.00
C742   C     0.77746   0.04776   0.17858   0.00000  Uiso   1.00
C743   C     0.78679   0.06867   0.20012   0.00000  Uiso   1.00
C744   C     0.77328   0.02836   0.21697   0.00000  Uiso   1.00
C745   C     0.09171   0.64749   0.91679   0.00000  Uiso   1.00
C746   C     0.83052   0.07314   0.14369   0.00000  Uiso   1.00
C747   C     0.21781   0.78204   0.80256   0.00000  Uiso   1.00
C748   C     0.24899   0.76309   0.79005   0.00000  Uiso   1.00
C749   C     0.31648   0.75495   0.76902   0.00000  Uiso   1.00
C750   C     0.74866   0.97543   0.14930   0.00000  Uiso   1.00
C751   C     0.70986   0.99802   0.14048   0.00000  Uiso   1.00
C752   C     0.65801   0.96550   0.12910   0.00000  Uiso   1.00
C753   C     0.62894   0.99418   0.12242   0.00000  Uiso   1.00
C754   C     0.75543   0.98870   0.17403   0.00000  Uiso   1.00
C755   C     0.74191   0.94836   0.19085   0.00000  Uiso   1.00
C756   C     0.75121   0.96919   0.21242   0.00000  Uiso   1.00
C757   C     0.80849   0.01407   0.13914   0.00000  Uiso   1.00
C758   C     0.83960   0.99506   0.12663   0.00000  Uiso   1.00
C759   C     0.22692   0.70392   0.78549   0.00000  Uiso   1.00
H760   H     0.80637   0.13015   0.16122   0.00000  Uiso   1.00
H761   H     0.38661   0.46486   0.47522   0.00000  Uiso   1.00
H762   H     0.13717   0.78104   0.87030   0.00000  Uiso   1.00
H763   H     0.90151   0.16107   0.13942   0.00000  Uiso   1.00
H764   H     0.28106   0.44032   0.45179   0.00000  Uiso   1.00
H765   H     0.12464   0.73751   0.91532   0.00000  Uiso   1.00
H766   H     0.99727   0.16931   0.11325   0.00000  Uiso   1.00
H767   H     0.73151   0.92944   0.14576   0.00000  Uiso   1.00
H768   H     0.64097   0.91980   0.12558   0.00000  Uiso   1.00
H769   H     0.72487   0.90265   0.18733   0.00000  Uiso   1.00
H770   H     0.82254   0.94935   0.12312   0.00000  Uiso   1.00
H771   H     0.55030   0.93514   0.10522   0.00000  Uiso   1.00
H772   H     0.72721   0.89900   0.23542   0.00000  Uiso   1.00
H773   H     0.26651   0.66413   0.76668   0.00000  Uiso   1.00
O774   O     0.52413   0.01834   0.09885   0.00000  Uiso   1.00
O775   O     0.08958   0.63758   0.93633   0.00000  Uiso   1.00
O776   O     0.02646   0.10011   0.09201   0.00000  Uiso   1.00
N777   N     0.61174   0.06787   0.11811   0.00000  Uiso   1.00
N778   N     0.11047   0.70074   0.90650   0.00000  Uiso   1.00
N779   N     0.96970   0.12613   0.11325   0.00000  Uiso   1.00
N780   N     0.57725   0.97540   0.11099   0.00000  Uiso   1.00
N781   N     0.74265   0.94161   0.23271   0.00000  Uiso   1.00
N782   N     0.26854   0.70033   0.77279   0.00000  Uiso   1.00
C783   C     0.59965   0.70021   0.28893   0.00000  Uiso   1.00
C784   C     0.63341   0.67527   0.27737   0.00000  Uiso   1.00
C785   C     0.69336   0.70308   0.27497   0.00000  Uiso   1.00
C786   C     0.71587   0.67293   0.26387   0.00000  Uiso   1.00
C787   C     0.10713   0.30936   0.91387   0.00000  Uiso   1.00
C788   C     0.56368   0.65655   0.30687   0.00000  Uiso   1.00
C789   C     0.56499   0.66864   0.32928   0.00000  Uiso   1.00
C790   C     0.52879   0.62273   0.34302   0.00000  Uiso   1.00
C791   C     0.47843   0.56346   0.37216   0.00000  Uiso   1.00
C792   C     0.55620   0.69822   0.27196   0.00000  Uiso   1.00
C793   C     0.55120   0.74534   0.26501   0.00000  Uiso   1.00
C794   C     0.50869   0.73451   0.24935   0.00000  Uiso   1.00
C795   C     0.44672   0.73993   0.22428   0.00000  Uiso   1.00
C796   C     0.53302   0.59720   0.27348   0.00000  Uiso   1.00
C797   C     0.59722   0.61931   0.26898   0.00000  Uiso   1.00
C798   C     0.61965   0.58911   0.25788   0.00000  Uiso   1.00
C799   C     0.67962   0.61688   0.25546   0.00000  Uiso   1.00
C800   C     0.52749   0.60060   0.29848   0.00000  Uiso   1.00
C801   C     0.49128   0.55467   0.31219   0.00000  Uiso   1.00
C802   C     0.49254   0.56668   0.33461   0.00000  Uiso   1.00
C803   C     0.52001   0.64227   0.26357   0.00000  Uiso   1.00
C804   C     0.47749   0.63137   0.24792   0.00000  Uiso   1.00
C805   C     0.47244   0.67846   0.24095   0.00000  Uiso   1.00
H806   H     0.62782   0.74377   0.29546   0.00000  Uiso   1.00
H807   H     0.72135   0.74638   0.28146   0.00000  Uiso   1.00
H808   H     0.59300   0.71194   0.33577   0.00000  Uiso   1.00
H809   H     0.57921   0.78863   0.27151   0.00000  Uiso   1.00
H810   H     0.14242   0.39126   0.92892   0.00000  Uiso   1.00
H811   H     0.53843   0.65198   0.37675   0.00000  Uiso   1.00
H812   H     0.50937   0.81369   0.24125   0.00000  Uiso   1.00
H813   H     0.50485   0.55364   0.26695   0.00000  Uiso   1.00
H814   H     0.59163   0.54581   0.25138   0.00000  Uiso   1.00
H815   H     0.46328   0.51138   0.30569   0.00000  Uiso   1.00
H816   H     0.44950   0.58806   0.24143   0.00000  Uiso   1.00
H817   H     0.70380   0.56180   0.23784   0.00000  Uiso   1.00
H818   H     0.43315   0.48919   0.35234   0.00000  Uiso   1.00
H819   H     0.40408   0.65090   0.21684   0.00000  Uiso   1.00
O820   O     0.14909   0.30814   0.90700   0.00000  Uiso   1.00
O821   O     0.46066   0.54622   0.39055   0.00000  Uiso   1.00
O822   O     0.42253   0.75837   0.21277   0.00000  Uiso   1.00
N823   N     0.10573   0.35402   0.92531   0.00000  Uiso   1.00
N824   N     0.51936   0.61947   0.36569   0.00000  Uiso   1.00
N825   N     0.49218   0.77065   0.23901   0.00000  Uiso   1.00
N826   N     0.71574   0.59976   0.24550   0.00000  Uiso   1.00
N827   N     0.46271   0.53187   0.35256   0.00000  Uiso   1.00
N828   N     0.43552   0.68306   0.22587   0.00000  Uiso   1.00
C829   C     0.41750   0.96161   0.50899   0.00000  Uiso   1.00
C830   C     0.39042   0.99186   0.52164   0.00000  Uiso   1.00
C831   C     0.41915   0.04960   0.52831   0.00000  Uiso   1.00
C832   C     0.38669   0.06901   0.53969   0.00000  Uiso   1.00
C833   C     0.35360   0.12162   0.55863   0.00000  Uiso   1.00
C834   C     0.38110   0.93697   0.48809   0.00000  Uiso   1.00
C835   C     0.40200   0.94855   0.46655   0.00000  Uiso   1.00
C836   C     0.36169   0.92175   0.44970   0.00000  Uiso   1.00
C837   C     0.98082   0.22244   0.74988   0.00000  Uiso   1.00
C838   C     0.40647   0.90928   0.52298   0.00000  Uiso   1.00
C839   C     0.11537   0.23089   0.86410   0.00000  Uiso   1.00
C840   C     0.09643   0.18077   0.87662   0.00000  Uiso   1.00
C841   C     0.08828   0.10514   0.89765   0.00000  Uiso   1.00
C842   C     0.30876   0.89343   0.51736   0.00000  Uiso   1.00
C843   C     0.33135   0.95483   0.52619   0.00000  Uiso   1.00
C844   C     0.29884   0.97416   0.53757   0.00000  Uiso   1.00
C845   C     0.32752   0.03191   0.54425   0.00000  Uiso   1.00
C846   C     0.32204   0.89994   0.49264   0.00000  Uiso   1.00
C847   C     0.28169   0.87311   0.47581   0.00000  Uiso   1.00
C848   C     0.30252   0.88465   0.45425   0.00000  Uiso   1.00
C849   C     0.34741   0.87225   0.52753   0.00000  Uiso   1.00
C850   C     0.32839   0.82213   0.54003   0.00000  Uiso   1.00
C851   C     0.03726   0.14367   0.88118   0.00000  Uiso   1.00
H852   H     0.46348   0.99044   0.50545   0.00000  Uiso   1.00
H853   H     0.79819   0.74491   0.19145   0.00000  Uiso   1.00
H854   H     0.11438   0.31054   0.79637   0.00000  Uiso   1.00
H855   H     0.49441   0.92623   0.52725   0.00000  Uiso   1.00
H856   H     0.77365   0.82593   0.21488   0.00000  Uiso   1.00
H857   H     0.07084   0.27953   0.75135   0.00000  Uiso   1.00
H858   H     0.50264   0.83871   0.55342   0.00000  Uiso   1.00
H859   H     0.26278   0.86460   0.52090   0.00000  Uiso   1.00
H860   H     0.25313   0.94549   0.54109   0.00000  Uiso   1.00
H861   H     0.23599   0.84445   0.47934   0.00000  Uiso   1.00
H862   H     0.28268   0.79348   0.54355   0.00000  Uiso   1.00
H863   H     0.26848   0.05151   0.56144   0.00000  Uiso   1.00
H864   H     0.23233   0.83845   0.43125   0.00000  Uiso   1.00
H865   H     0.99747   0.06429   0.89999   0.00000  Uiso   1.00
O866   O     0.35167   0.16088   0.56782   0.00000  Uiso   1.00
O867   O     0.97092   0.21467   0.73034   0.00000  Uiso   1.00
O868   O     0.43344   0.74032   0.57465   0.00000  Uiso   1.00
N869   N     0.40120   0.12280   0.54856   0.00000  Uiso   1.00
N870   N     0.03407   0.25694   0.76017   0.00000  Uiso   1.00
N871   N     0.45947   0.82310   0.55342   0.00000  Uiso   1.00
N872   N     0.30874   0.06482   0.55568   0.00000  Uiso   1.00
N873   N     0.27494   0.86563   0.43396   0.00000  Uiso   1.00
N874   N     0.03367   0.09846   0.89388   0.00000  Uiso   1.00
C875   C     0.03354   0.76723   0.37774   0.00000  Uiso   1.00
C876   C     0.00860   0.70852   0.38930   0.00000  Uiso   1.00
C877   C     0.03642   0.67639   0.39170   0.00000  Uiso   1.00
C878   C     0.00626   0.62373   0.40280   0.00000  Uiso   1.00
C879   C     0.64270   0.86890   0.75280   0.00000  Uiso   1.00
C880   C     0.98989   0.75954   0.35979   0.00000  Uiso   1.00
C881   C     0.00197   0.77031   0.33739   0.00000  Uiso   1.00
C882   C     0.95607   0.76061   0.32365   0.00000  Uiso   1.00
C883   C     0.89679   0.75169   0.29451   0.00000  Uiso   1.00
C884   C     0.03155   0.80869   0.39471   0.00000  Uiso   1.00
C885   C     0.07867   0.86080   0.40166   0.00000  Uiso   1.00
C886   C     0.06784   0.89248   0.41731   0.00000  Uiso   1.00
C887   C     0.07326   0.95988   0.44238   0.00000  Uiso   1.00
C888   C     0.93053   0.73084   0.39319   0.00000  Uiso   1.00
C889   C     0.95265   0.68876   0.39769   0.00000  Uiso   1.00
C890   C     0.92244   0.63613   0.40879   0.00000  Uiso   1.00
C891   C     0.95021   0.60393   0.41121   0.00000  Uiso   1.00
C892   C     0.93393   0.73978   0.36818   0.00000  Uiso   1.00
C893   C     0.88800   0.73006   0.35448   0.00000  Uiso   1.00
C894   C     0.90001   0.74081   0.33206   0.00000  Uiso   1.00
C895   C     0.97560   0.78893   0.40310   0.00000  Uiso   1.00
C896   C     0.96470   0.82054   0.41875   0.00000  Uiso   1.00
C897   C     0.01179   0.87268   0.42572   0.00000  Uiso   1.00
H898   H     0.07710   0.78262   0.37121   0.00000  Uiso   1.00
H899   H     0.07971   0.69170   0.38520   0.00000  Uiso   1.00
H900   H     0.04528   0.78561   0.33090   0.00000  Uiso   1.00
H901   H     0.12196   0.87608   0.39516   0.00000  Uiso   1.00
H902   H     0.72459   0.91550   0.73774   0.00000  Uiso   1.00
H903   H     0.98532   0.78021   0.28991   0.00000  Uiso   1.00
H904   H     0.14702   0.97099   0.42542   0.00000  Uiso   1.00
H905   H     0.88697   0.71546   0.39972   0.00000  Uiso   1.00
H906   H     0.87915   0.62085   0.41528   0.00000  Uiso   1.00
H907   H     0.84471   0.71476   0.36098   0.00000  Uiso   1.00
H908   H     0.92139   0.80523   0.42524   0.00000  Uiso   1.00
H909   H     0.89514   0.52467   0.42882   0.00000  Uiso   1.00
H910   H     0.82253   0.72271   0.31432   0.00000  Uiso   1.00
H911   H     0.98423   0.91348   0.44983   0.00000  Uiso   1.00
O912   O     0.64147   0.82572   0.75967   0.00000  Uiso   1.00
O913   O     0.87955   0.75222   0.27612   0.00000  Uiso   1.00
O914   O     0.09171   0.00251   0.45389   0.00000  Uiso   1.00
N915   N     0.68736   0.91496   0.74136   0.00000  Uiso   1.00
N916   N     0.95280   0.76678   0.30097   0.00000  Uiso   1.00
N917   N     0.10398   0.94514   0.42766   0.00000  Uiso   1.00
N918   N     0.93310   0.55068   0.42116   0.00000  Uiso   1.00
N919   N     0.86521   0.73583   0.31411   0.00000  Uiso   1.00
N920   N     0.01639   0.91420   0.44079   0.00000  Uiso   1.00
C921   C     0.08417   0.29495   0.84232   0.00000  Uiso   1.00
C922   C     0.05708   0.32520   0.85497   0.00000  Uiso   1.00
C923   C     0.08581   0.38293   0.86164   0.00000  Uiso   1.00
C924   C     0.05335   0.40235   0.87303   0.00000  Uiso   1.00
C925   C     0.02027   0.45496   0.89196   0.00000  Uiso   1.00
C926   C     0.04776   0.27031   0.82142   0.00000  Uiso   1.00
C927   C     0.06867   0.28188   0.79988   0.00000  Uiso   1.00
C928   C     0.02836   0.25508   0.78303   0.00000  Uiso   1.00
C929   C     0.64749   0.55577   0.08321   0.00000  Uiso   1.00
C930   C     0.07314   0.24261   0.85631   0.00000  Uiso   1.00
C931   C     0.78204   0.56423   0.19744   0.00000  Uiso   1.00
C932   C     0.76309   0.51411   0.20995   0.00000  Uiso   1.00
C933   C     0.75495   0.43847   0.23098   0.00000  Uiso   1.00
C934   C     0.97543   0.22676   0.85070   0.00000  Uiso   1.00
C935   C     0.99802   0.28816   0.85952   0.00000  Uiso   1.00
C936   C     0.96550   0.30749   0.87090   0.00000  Uiso   1.00
C937   C     0.99418   0.36525   0.87758   0.00000  Uiso   1.00
C938   C     0.98870   0.23327   0.82597   0.00000  Uiso   1.00
C939   C     0.94836   0.20645   0.80915   0.00000  Uiso   1.00
C940   C     0.96919   0.21798   0.78758   0.00000  Uiso   1.00
C941   C     0.01407   0.20558   0.86086   0.00000  Uiso   1.00
C942   C     0.99506   0.15546   0.87337   0.00000  Uiso   1.00
C943   C     0.70392   0.47700   0.21451   0.00000  Uiso   1.00
H944   H     0.13015   0.32378   0.83878   0.00000  Uiso   1.00
H945   H     0.46486   0.07824   0.52478   0.00000  Uiso   1.00
H946   H     0.78104   0.64387   0.12970   0.00000  Uiso   1.00
H947   H     0.16107   0.25956   0.86058   0.00000  Uiso   1.00
H948   H     0.44032   0.15926   0.54821   0.00000  Uiso   1.00
H949   H     0.73751   0.61286   0.08468   0.00000  Uiso   1.00
H950   H     0.16931   0.17204   0.88675   0.00000  Uiso   1.00
H951   H     0.92944   0.19793   0.85424   0.00000  Uiso   1.00
H952   H     0.91980   0.27883   0.87442   0.00000  Uiso   1.00
H953   H     0.90265   0.17779   0.81267   0.00000  Uiso   1.00
H954   H     0.94935   0.12681   0.87688   0.00000  Uiso   1.00
H955   H     0.93514   0.38485   0.89478   0.00000  Uiso   1.00
H956   H     0.89900   0.17178   0.76458   0.00000  Uiso   1.00
H957   H     0.66413   0.39763   0.23332   0.00000  Uiso   1.00
O958   O     0.01834   0.49421   0.90115   0.00000  Uiso   1.00
O959   O     0.63758   0.54801   0.06367   0.00000  Uiso   1.00
O960   O     0.10011   0.07365   0.90799   0.00000  Uiso   1.00
N961   N     0.06787   0.45613   0.88189   0.00000  Uiso   1.00
N962   N     0.70074   0.59027   0.09350   0.00000  Uiso   1.00
N963   N     0.12613   0.15643   0.88675   0.00000  Uiso   1.00
N964   N     0.97540   0.39815   0.88901   0.00000  Uiso   1.00
N965   N     0.94161   0.19896   0.76729   0.00000  Uiso   1.00
N966   N     0.70033   0.43179   0.22721   0.00000  Uiso   1.00
C967   C     0.70021   0.10056   0.71107   0.00000  Uiso   1.00
C968   C     0.67527   0.04185   0.72263   0.00000  Uiso   1.00
C969   C     0.70308   0.00972   0.72503   0.00000  Uiso   1.00
C970   C     0.67293   0.95706   0.73613   0.00000  Uiso   1.00
C971   C     0.30936   0.20223   0.08613   0.00000  Uiso   1.00
C972   C     0.65655   0.09287   0.69313   0.00000  Uiso   1.00
C973   C     0.66864   0.10365   0.67072   0.00000  Uiso   1.00
C974   C     0.62273   0.09394   0.65698   0.00000  Uiso   1.00
C975   C     0.56346   0.08502   0.62784   0.00000  Uiso   1.00
C976   C     0.69822   0.14202   0.72804   0.00000  Uiso   1.00
C977   C     0.74534   0.19413   0.73499   0.00000  Uiso   1.00
C978   C     0.73451   0.22582   0.75065   0.00000  Uiso   1.00
C979   C     0.73993   0.29321   0.77572   0.00000  Uiso   1.00
C980   C     0.59720   0.06418   0.72652   0.00000  Uiso   1.00
C981   C     0.61931   0.02209   0.73102   0.00000  Uiso   1.00
C982   C     0.58911   0.96947   0.74212   0.00000  Uiso   1.00
C983   C     0.61688   0.93726   0.74454   0.00000  Uiso   1.00
C984   C     0.60060   0.07311   0.70152   0.00000  Uiso   1.00
C985   C     0.55467   0.06339   0.68781   0.00000  Uiso   1.00
C986   C     0.56668   0.07414   0.66539   0.00000  Uiso   1.00
C987   C     0.64227   0.12226   0.73643   0.00000  Uiso   1.00
C988   C     0.63137   0.15387   0.75208   0.00000  Uiso   1.00
C989   C     0.67846   0.20602   0.75905   0.00000  Uiso   1.00
H990   H     0.74377   0.11595   0.70454   0.00000  Uiso   1.00
H991   H     0.74638   0.02503   0.71854   0.00000  Uiso   1.00
H992   H     0.71194   0.11895   0.66423   0.00000  Uiso   1.00
H993   H     0.78863   0.20941   0.72849   0.00000  Uiso   1.00
H994   H     0.39126   0.24884   0.07108   0.00000  Uiso   1.00
H995   H     0.65198   0.11355   0.62325   0.00000  Uiso   1.00
H996   H     0.81369   0.30432   0.75875   0.00000  Uiso   1.00
H997   H     0.55364   0.04879   0.73305   0.00000  Uiso   1.00
H998   H     0.54581   0.95418   0.74862   0.00000  Uiso   1.00
H999   H     0.51138   0.04810   0.69431   0.00000  Uiso   1.00
H1000  H     0.58806   0.13857   0.75857   0.00000  Uiso   1.00
H1001  H     0.56180   0.85800   0.76216   0.00000  Uiso   1.00
H1002  H     0.48919   0.05605   0.64766   0.00000  Uiso   1.00
H1003  H     0.65090   0.24682   0.78316   0.00000  Uiso   1.00
O1004  O     0.30814   0.15905   0.09300   0.00000  Uiso   1.00
O1005  O     0.54622   0.08556   0.60945   0.00000  Uiso   1.00
O1006  O     0.75837   0.33584   0.78723   0.00000  Uiso   1.00
N1007  N     0.35402   0.24829   0.07469   0.00000  Uiso   1.00
N1008  N     0.61947   0.10011   0.63431   0.00000  Uiso   1.00
N1009  N     0.77065   0.27847   0.76099   0.00000  Uiso   1.00
N1010  N     0.59976   0.88402   0.75450   0.00000  Uiso   1.00
N1011  N     0.53187   0.06917   0.64744   0.00000  Uiso   1.00
N1012  N     0.68306   0.24753   0.77413   0.00000  Uiso   1.00
C1013  C     0.75084   0.62828   0.17566   0.00000  Uiso   1.00
C1014  C     0.72375   0.65853   0.18831   0.00000  Uiso   1.00
C1015  C     0.75248   0.71626   0.19497   0.00000  Uiso   1.00
C1016  C     0.72002   0.73568   0.20636   0.00000  Uiso   1.00
C1017  C     0.68694   0.78829   0.22530   0.00000  Uiso   1.00
C1018  C     0.71443   0.60364   0.15476   0.00000  Uiso   1.00
C1019  C     0.73533   0.61521   0.13321   0.00000  Uiso   1.00
C1020  C     0.69503   0.58841   0.11636   0.00000  Uiso   1.00
C1021  C     0.31415   0.88911   0.41655   0.00000  Uiso   1.00
C1022  C     0.73981   0.57595   0.18965   0.00000  Uiso   1.00
C1023  C     0.44870   0.89756   0.53077   0.00000  Uiso   1.00
C1024  C     0.42976   0.84744   0.54329   0.00000  Uiso   1.00
C1025  C     0.42162   0.77180   0.56431   0.00000  Uiso   1.00
C1026  C     0.64209   0.56010   0.18403   0.00000  Uiso   1.00
C1027  C     0.66468   0.62150   0.19285   0.00000  Uiso   1.00
C1028  C     0.63217   0.64083   0.20424   0.00000  Uiso   1.00
C1029  C     0.66085   0.69858   0.21092   0.00000  Uiso   1.00
C1030  C     0.65537   0.56661   0.15930   0.00000  Uiso   1.00
C1031  C     0.61502   0.53978   0.14248   0.00000  Uiso   1.00
C1032  C     0.63586   0.55131   0.12092   0.00000  Uiso   1.00
C1033  C     0.68074   0.53891   0.19419   0.00000  Uiso   1.00
C1034  C     0.66173   0.48880   0.20670   0.00000  Uiso   1.00
C1035  C     0.37059   0.81034   0.54784   0.00000  Uiso   1.00
H1036  H     0.79682   0.65711   0.17212   0.00000  Uiso   1.00
H1037  H     0.13152   0.41158   0.85811   0.00000  Uiso   1.00
H1038  H     0.44771   0.97720   0.46303   0.00000  Uiso   1.00
H1039  H     0.82774   0.59290   0.19391   0.00000  Uiso   1.00
H1040  H     0.10699   0.49259   0.88154   0.00000  Uiso   1.00
H1041  H     0.40417   0.94620   0.41802   0.00000  Uiso   1.00
H1042  H     0.83598   0.50537   0.22009   0.00000  Uiso   1.00
H1043  H     0.59611   0.53126   0.18757   0.00000  Uiso   1.00
H1044  H     0.58646   0.61216   0.20775   0.00000  Uiso   1.00
H1045  H     0.56932   0.51112   0.14600   0.00000  Uiso   1.00
H1046  H     0.61602   0.46015   0.21022   0.00000  Uiso   1.00
H1047  H     0.60181   0.71818   0.22811   0.00000  Uiso   1.00
H1048  H     0.56566   0.50512   0.09791   0.00000  Uiso   1.00
H1049  H     0.33080   0.73096   0.56665   0.00000  Uiso   1.00
O1050  O     0.68501   0.82754   0.23448   0.00000  Uiso   1.00
O1051  O     0.30425   0.88134   0.39701   0.00000  Uiso   1.00
O1052  O     0.76678   0.40699   0.24132   0.00000  Uiso   1.00
N1053  N     0.73454   0.78946   0.21523   0.00000  Uiso   1.00
N1054  N     0.36741   0.92360   0.42683   0.00000  Uiso   1.00
N1055  N     0.79280   0.48977   0.22009   0.00000  Uiso   1.00
N1056  N     0.64207   0.73149   0.22235   0.00000  Uiso   1.00
N1057  N     0.60827   0.53229   0.10062   0.00000  Uiso   1.00
N1058  N     0.36700   0.76512   0.56054   0.00000  Uiso   1.00
C1059  C     0.36688   0.43390   0.04441   0.00000  Uiso   1.00
C1060  C     0.34193   0.37519   0.05597   0.00000  Uiso   1.00
C1061  C     0.36975   0.34306   0.05837   0.00000  Uiso   1.00
C1062  C     0.33960   0.29040   0.06947   0.00000  Uiso   1.00
C1063  C     0.97603   0.53556   0.41946   0.00000  Uiso   1.00
C1064  C     0.32322   0.42621   0.02646   0.00000  Uiso   1.00
C1065  C     0.33531   0.43698   0.00405   0.00000  Uiso   1.00
C1066  C     0.28940   0.42727   0.99032   0.00000  Uiso   1.00
C1067  C     0.23012   0.41836   0.96118   0.00000  Uiso   1.00
C1068  C     0.36489   0.47536   0.06138   0.00000  Uiso   1.00
C1069  C     0.41200   0.52747   0.06832   0.00000  Uiso   1.00
C1070  C     0.40118   0.55915   0.08398   0.00000  Uiso   1.00
C1071  C     0.40659   0.62655   0.10905   0.00000  Uiso   1.00
C1072  C     0.26387   0.39751   0.05985   0.00000  Uiso   1.00
C1073  C     0.28598   0.35542   0.06436   0.00000  Uiso   1.00
C1074  C     0.25578   0.30280   0.07546   0.00000  Uiso   1.00
C1075  C     0.28355   0.27060   0.07787   0.00000  Uiso   1.00
C1076  C     0.26727   0.40644   0.03485   0.00000  Uiso   1.00
C1077  C     0.22133   0.39672   0.02114   0.00000  Uiso   1.00
C1078  C     0.23335   0.40747   0.99872   0.00000  Uiso   1.00
C1079  C     0.30893   0.45559   0.06977   0.00000  Uiso   1.00
C1080  C     0.29803   0.48721   0.08542   0.00000  Uiso   1.00
C1081  C     0.34512   0.53935   0.09238   0.00000  Uiso   1.00
H1082  H     0.41044   0.44928   0.03787   0.00000  Uiso   1.00
H1083  H     0.41305   0.35836   0.05187   0.00000  Uiso   1.00
H1084  H     0.37861   0.45228   0.99757   0.00000  Uiso   1.00
H1085  H     0.45529   0.54275   0.06183   0.00000  Uiso   1.00
H1086  H     0.05792   0.58217   0.40441   0.00000  Uiso   1.00
H1087  H     0.31865   0.44688   0.95658   0.00000  Uiso   1.00
H1088  H     0.48036   0.63765   0.09208   0.00000  Uiso   1.00
H1089  H     0.22030   0.38212   0.06639   0.00000  Uiso   1.00
H1090  H     0.21248   0.28752   0.08195   0.00000  Uiso   1.00
H1091  H     0.17804   0.38143   0.02764   0.00000  Uiso   1.00
H1092  H     0.25473   0.47190   0.09190   0.00000  Uiso   1.00
H1093  H     0.22847   0.19133   0.09549   0.00000  Uiso   1.00
H1094  H     0.15586   0.38938   0.98099   0.00000  Uiso   1.00
H1095  H     0.31757   0.58015   0.11650   0.00000  Uiso   1.00
O1096  O     0.97481   0.49239   0.42633   0.00000  Uiso   1.00
O1097  O     0.21288   0.41889   0.94278   0.00000  Uiso   1.00
O1098  O     0.42504   0.66918   0.12056   0.00000  Uiso   1.00
N1099  N     0.02069   0.58163   0.40803   0.00000  Uiso   1.00
N1100  N     0.28614   0.43344   0.96764   0.00000  Uiso   1.00
N1101  N     0.43732   0.61181   0.09432   0.00000  Uiso   1.00
N1102  N     0.26643   0.21735   0.08783   0.00000  Uiso   1.00
N1103  N     0.19854   0.40250   0.98078   0.00000  Uiso   1.00
N1104  N     0.34972   0.58087   0.10746   0.00000  Uiso   1.00
C1105  C     0.03839   0.45589   0.50899   0.00000  Uiso   1.00
C1106  C     0.00814   0.39855   0.52164   0.00000  Uiso   1.00
C1107  C     0.95040   0.36955   0.52831   0.00000  Uiso   1.00
C1108  C     0.93099   0.31767   0.53969   0.00000  Uiso   1.00
C1109  C     0.87838   0.23198   0.55863   0.00000  Uiso   1.00
C1110  C     0.06303   0.44413   0.48809   0.00000  Uiso   1.00
C1111  C     0.05145   0.45345   0.46655   0.00000  Uiso   1.00
C1112  C     0.07825   0.43995   0.44970   0.00000  Uiso   1.00
C1113  C     0.77756   0.75838   0.74988   0.00000  Uiso   1.00
C1114  C     0.09072   0.49719   0.52298   0.00000  Uiso   1.00
C1115  C     0.76911   0.88448   0.86410   0.00000  Uiso   1.00
C1116  C     0.81923   0.91565   0.87662   0.00000  Uiso   1.00
C1117  C     0.89486   0.98315   0.89765   0.00000  Uiso   1.00
C1118  C     0.10657   0.41533   0.51736   0.00000  Uiso   1.00
C1119  C     0.04517   0.37652   0.52619   0.00000  Uiso   1.00
C1120  C     0.02584   0.32468   0.53757   0.00000  Uiso   1.00
C1121  C     0.96809   0.29560   0.54425   0.00000  Uiso   1.00
C1122  C     0.10006   0.42210   0.49264   0.00000  Uiso   1.00
C1123  C     0.12689   0.40858   0.47581   0.00000  Uiso   1.00
C1124  C     0.11535   0.41788   0.45425   0.00000  Uiso   1.00
C1125  C     0.12775   0.47516   0.52753   0.00000  Uiso   1.00
C1126  C     0.17787   0.50626   0.54003   0.00000  Uiso   1.00
C1127  C     0.85633   0.89358   0.88118   0.00000  Uiso   1.00
H1128  H     0.00956   0.47304   0.50545   0.00000  Uiso   1.00
H1129  H     0.25509   0.05328   0.19145   0.00000  Uiso   1.00
H1130  H     0.68946   0.80384   0.79637   0.00000  Uiso   1.00
H1131  H     0.07377   0.56818   0.52725   0.00000  Uiso   1.00
H1132  H     0.17407   0.94773   0.21488   0.00000  Uiso   1.00
H1133  H     0.72047   0.79131   0.75135   0.00000  Uiso   1.00
H1134  H     0.16129   0.66394   0.55342   0.00000  Uiso   1.00
H1135  H     0.13540   0.39818   0.52090   0.00000  Uiso   1.00
H1136  H     0.05451   0.30764   0.54109   0.00000  Uiso   1.00
H1137  H     0.15555   0.39153   0.47934   0.00000  Uiso   1.00
H1138  H     0.20652   0.48920   0.54355   0.00000  Uiso   1.00
H1139  H     0.94849   0.21696   0.56144   0.00000  Uiso   1.00
H1140  H     0.16155   0.39388   0.43125   0.00000  Uiso   1.00
H1141  H     0.93571   0.93317   0.89999   0.00000  Uiso   1.00
O1142  O     0.83912   0.19079   0.56782   0.00000  Uiso   1.00
O1143  O     0.78533   0.75624   0.73034   0.00000  Uiso   1.00
O1144  O     0.25968   0.69312   0.57465   0.00000  Uiso   1.00
N1145  N     0.87720   0.27841   0.54856   0.00000  Uiso   1.00
N1146  N     0.74306   0.77714   0.76017   0.00000  Uiso   1.00
N1147  N     0.17690   0.63637   0.55342   0.00000  Uiso   1.00
N1148  N     0.93518   0.24392   0.55568   0.00000  Uiso   1.00
N1149  N     0.13437   0.40931   0.43396   0.00000  Uiso   1.00
N1150  N     0.90154   0.93521   0.89388   0.00000  Uiso   1.00
C1151  C     0.23277   0.26631   0.37774   0.00000  Uiso   1.00
C1152  C     0.29148   0.30008   0.38930   0.00000  Uiso   1.00
C1153  C     0.32361   0.36002   0.39170   0.00000  Uiso   1.00
C1154  C     0.37627   0.38253   0.40280   0.00000  Uiso   1.00
C1155  C     0.13110   0.77380   0.75280   0.00000  Uiso   1.00
C1156  C     0.24046   0.23035   0.35979   0.00000  Uiso   1.00
C1157  C     0.22969   0.23166   0.33739   0.00000  Uiso   1.00
C1158  C     0.23939   0.19546   0.32365   0.00000  Uiso   1.00
C1159  C     0.24831   0.14510   0.29451   0.00000  Uiso   1.00
C1160  C     0.19131   0.22286   0.39471   0.00000  Uiso   1.00
C1161  C     0.13920   0.21787   0.40166   0.00000  Uiso   1.00
C1162  C     0.10752   0.17536   0.41731   0.00000  Uiso   1.00
C1163  C     0.04012   0.11338   0.44238   0.00000  Uiso   1.00
C1164  C     0.26916   0.19969   0.39319   0.00000  Uiso   1.00
C1165  C     0.31124   0.26389   0.39769   0.00000  Uiso   1.00
C1166  C     0.36387   0.28631   0.40879   0.00000  Uiso   1.00
C1167  C     0.39607   0.34628   0.41121   0.00000  Uiso   1.00
C1168  C     0.26022   0.19416   0.36818   0.00000  Uiso   1.00
C1169  C     0.26994   0.15795   0.35448   0.00000  Uiso   1.00
C1170  C     0.25919   0.15921   0.33206   0.00000  Uiso   1.00
C1171  C     0.21107   0.18667   0.40310   0.00000  Uiso   1.00
C1172  C     0.17946   0.14416   0.41875   0.00000  Uiso   1.00
C1173  C     0.12732   0.13911   0.42572   0.00000  Uiso   1.00
H1174  H     0.21738   0.29449   0.37121   0.00000  Uiso   1.00
H1175  H     0.30830   0.38802   0.38520   0.00000  Uiso   1.00
H1176  H     0.21439   0.25966   0.33090   0.00000  Uiso   1.00
H1177  H     0.12392   0.24588   0.39516   0.00000  Uiso   1.00
H1178  H     0.08450   0.80909   0.73774   0.00000  Uiso   1.00
H1179  H     0.21979   0.20510   0.28991   0.00000  Uiso   1.00
H1180  H     0.02901   0.17604   0.42542   0.00000  Uiso   1.00
H1181  H     0.28454   0.17151   0.39972   0.00000  Uiso   1.00
H1182  H     0.37915   0.25830   0.41528   0.00000  Uiso   1.00
H1183  H     0.28524   0.12994   0.36098   0.00000  Uiso   1.00
H1184  H     0.19477   0.11616   0.42524   0.00000  Uiso   1.00
H1185  H     0.47533   0.37047   0.42882   0.00000  Uiso   1.00
H1186  H     0.27729   0.09981   0.31432   0.00000  Uiso   1.00
H1187  H     0.08652   0.07075   0.44983   0.00000  Uiso   1.00
O1188  O     0.17428   0.81575   0.75967   0.00000  Uiso   1.00
O1189  O     0.24778   0.12733   0.27612   0.00000  Uiso   1.00
O1190  O     0.99749   0.08920   0.45389   0.00000  Uiso   1.00
N1191  N     0.08504   0.77240   0.74136   0.00000  Uiso   1.00
N1192  N     0.23322   0.18603   0.30097   0.00000  Uiso   1.00
N1193  N     0.05486   0.15884   0.42766   0.00000  Uiso   1.00
N1194  N     0.44932   0.38241   0.42116   0.00000  Uiso   1.00
N1195  N     0.26417   0.12937   0.31411   0.00000  Uiso   1.00
N1196  N     0.08580   0.10219   0.44079   0.00000  Uiso   1.00
C1197  C     0.70505   0.78922   0.84232   0.00000  Uiso   1.00
C1198  C     0.67480   0.73188   0.85497   0.00000  Uiso   1.00
C1199  C     0.61707   0.70288   0.86164   0.00000  Uiso   1.00
C1200  C     0.59765   0.65101   0.87303   0.00000  Uiso   1.00
C1201  C     0.54504   0.56531   0.89196   0.00000  Uiso   1.00
C1202  C     0.72969   0.77746   0.82142   0.00000  Uiso   1.00
C1203  C     0.71812   0.78679   0.79988   0.00000  Uiso   1.00
C1204  C     0.74492   0.77328   0.78303   0.00000  Uiso   1.00
C1205  C     0.44423   0.09171   0.08321   0.00000  Uiso   1.00
C1206  C     0.75739   0.83052   0.85631   0.00000  Uiso   1.00
C1207  C     0.43577   0.21781   0.19744   0.00000  Uiso   1.00
C1208  C     0.48589   0.24899   0.20995   0.00000  Uiso   1.00
C1209  C     0.56153   0.31648   0.23098   0.00000  Uiso   1.00
C1210  C     0.77324   0.74866   0.85070   0.00000  Uiso   1.00
C1211  C     0.71184   0.70986   0.85952   0.00000  Uiso   1.00
C1212  C     0.69251   0.65801   0.87090   0.00000  Uiso   1.00
C1213  C     0.63475   0.62894   0.87758   0.00000  Uiso   1.00
C1214  C     0.76673   0.75543   0.82597   0.00000  Uiso   1.00
C1215  C     0.79355   0.74191   0.80915   0.00000  Uiso   1.00
C1216  C     0.78202   0.75121   0.78758   0.00000  Uiso   1.00
C1217  C     0.79442   0.80849   0.86086   0.00000  Uiso   1.00
C1218  C     0.84454   0.83960   0.87337   0.00000  Uiso   1.00
C1219  C     0.52300   0.22692   0.21451   0.00000  Uiso   1.00
H1220  H     0.67622   0.80637   0.83878   0.00000  Uiso   1.00
H1221  H     0.92176   0.38661   0.52478   0.00000  Uiso   1.00
H1222  H     0.35613   0.13717   0.12970   0.00000  Uiso   1.00
H1223  H     0.74044   0.90151   0.86058   0.00000  Uiso   1.00
H1224  H     0.84074   0.28106   0.54821   0.00000  Uiso   1.00
H1225  H     0.38714   0.12464   0.08468   0.00000  Uiso   1.00
H1226  H     0.82796   0.99727   0.88675   0.00000  Uiso   1.00
H1227  H     0.80207   0.73151   0.85424   0.00000  Uiso   1.00
H1228  H     0.72117   0.64097   0.87442   0.00000  Uiso   1.00
H1229  H     0.82221   0.72487   0.81267   0.00000  Uiso   1.00
H1230  H     0.87319   0.82254   0.87688   0.00000  Uiso   1.00
H1231  H     0.61515   0.55030   0.89478   0.00000  Uiso   1.00
H1232  H     0.82822   0.72721   0.76458   0.00000  Uiso   1.00
H1233  H     0.60237   0.26651   0.23332   0.00000  Uiso   1.00
O1234  O     0.50579   0.52413   0.90115   0.00000  Uiso   1.00
O1235  O     0.45199   0.08958   0.06367   0.00000  Uiso   1.00
O1236  O     0.92635   0.02646   0.90799   0.00000  Uiso   1.00
N1237  N     0.54387   0.61174   0.88189   0.00000  Uiso   1.00
N1238  N     0.40973   0.11047   0.09350   0.00000  Uiso   1.00
N1239  N     0.84357   0.96970   0.88675   0.00000  Uiso   1.00
N1240  N     0.60185   0.57725   0.88901   0.00000  Uiso   1.00
N1241  N     0.80104   0.74265   0.76729   0.00000  Uiso   1.00
N1242  N     0.56821   0.26854   0.22721   0.00000  Uiso   1.00
C1243  C     0.89944   0.59965   0.71107   0.00000  Uiso   1.00
C1244  C     0.95815   0.63341   0.72263   0.00000  Uiso   1.00
C1245  C     0.99028   0.69336   0.72503   0.00000  Uiso   1.00
C1246  C     0.04294   0.71587   0.73613   0.00000  Uiso   1.00
C1247  C     0.79777   0.10713   0.08613   0.00000  Uiso   1.00
C1248  C     0.90713   0.56368   0.69313   0.00000  Uiso   1.00
C1249  C     0.89635   0.56499   0.67072   0.00000  Uiso   1.00
C1250  C     0.90606   0.52879   0.65698   0.00000  Uiso   1.00
C1251  C     0.91498   0.47843   0.62784   0.00000  Uiso   1.00
C1252  C     0.85798   0.55620   0.72804   0.00000  Uiso   1.00
C1253  C     0.80587   0.55120   0.73499   0.00000  Uiso   1.00
C1254  C     0.77418   0.50869   0.75065   0.00000  Uiso   1.00
C1255  C     0.70679   0.44672   0.77572   0.00000  Uiso   1.00
C1256  C     0.93582   0.53302   0.72652   0.00000  Uiso   1.00
C1257  C     0.97791   0.59722   0.73102   0.00000  Uiso   1.00
C1258  C     0.03053   0.61965   0.74212   0.00000  Uiso   1.00
C1259  C     0.06274   0.67962   0.74454   0.00000  Uiso   1.00
C1260  C     0.92689   0.52749   0.70152   0.00000  Uiso   1.00
C1261  C     0.93661   0.49128   0.68781   0.00000  Uiso   1.00
C1262  C     0.92586   0.49254   0.66539   0.00000  Uiso   1.00
C1263  C     0.87774   0.52001   0.73643   0.00000  Uiso   1.00
C1264  C     0.84613   0.47749   0.75208   0.00000  Uiso   1.00
C1265  C     0.79398   0.47244   0.75905   0.00000  Uiso   1.00
H1266  H     0.88405   0.62782   0.70454   0.00000  Uiso   1.00
H1267  H     0.97497   0.72135   0.71854   0.00000  Uiso   1.00
H1268  H     0.88105   0.59300   0.66423   0.00000  Uiso   1.00
H1269  H     0.79059   0.57921   0.72849   0.00000  Uiso   1.00
H1270  H     0.75116   0.14242   0.07108   0.00000  Uiso   1.00
H1271  H     0.88645   0.53843   0.62325   0.00000  Uiso   1.00
H1272  H     0.69568   0.50937   0.75875   0.00000  Uiso   1.00
H1273  H     0.95121   0.50485   0.73305   0.00000  Uiso   1.00
H1274  H     0.04582   0.59163   0.74862   0.00000  Uiso   1.00
H1275  H     0.95190   0.46328   0.69431   0.00000  Uiso   1.00
H1276  H     0.86143   0.44950   0.75857   0.00000  Uiso   1.00
H1277  H     0.14200   0.70380   0.76216   0.00000  Uiso   1.00
H1278  H     0.94395   0.43315   0.64766   0.00000  Uiso   1.00
H1279  H     0.75318   0.40408   0.78316   0.00000  Uiso   1.00
O1280  O     0.84095   0.14909   0.09300   0.00000  Uiso   1.00
O1281  O     0.91444   0.46066   0.60945   0.00000  Uiso   1.00
O1282  O     0.66416   0.42253   0.78723   0.00000  Uiso   1.00
N1283  N     0.75171   0.10573   0.07469   0.00000  Uiso   1.00
N1284  N     0.89989   0.51936   0.63431   0.00000  Uiso   1.00
N1285  N     0.72153   0.49218   0.76099   0.00000  Uiso   1.00
N1286  N     0.11598   0.71574   0.75450   0.00000  Uiso   1.00
N1287  N     0.93083   0.46271   0.64744   0.00000  Uiso   1.00
N1288  N     0.75247   0.43552   0.77413   0.00000  Uiso   1.00
C1289  C     0.37172   0.12256   0.17566   0.00000  Uiso   1.00
C1290  C     0.34147   0.06522   0.18831   0.00000  Uiso   1.00
C1291  C     0.28374   0.03622   0.19497   0.00000  Uiso   1.00
C1292  C     0.26432   0.98434   0.20636   0.00000  Uiso   1.00
C1293  C     0.21171   0.89865   0.22530   0.00000  Uiso   1.00
C1294  C     0.39636   0.11079   0.15476   0.00000  Uiso   1.00
C1295  C     0.38479   0.12012   0.13321   0.00000  Uiso   1.00
C1296  C     0.41159   0.10661   0.11636   0.00000  Uiso   1.00
C1297  C     0.11089   0.42505   0.41655   0.00000  Uiso   1.00
C1298  C     0.42405   0.16386   0.18965   0.00000  Uiso   1.00
C1299  C     0.10244   0.55114   0.53077   0.00000  Uiso   1.00
C1300  C     0.15256   0.58232   0.54329   0.00000  Uiso   1.00
C1301  C     0.22820   0.64981   0.56431   0.00000  Uiso   1.00
C1302  C     0.43990   0.08200   0.18403   0.00000  Uiso   1.00
C1303  C     0.37850   0.04319   0.19285   0.00000  Uiso   1.00
C1304  C     0.35917   0.99134   0.20424   0.00000  Uiso   1.00
C1305  C     0.30142   0.96227   0.21092   0.00000  Uiso   1.00
C1306  C     0.43339   0.08876   0.15930   0.00000  Uiso   1.00
C1307  C     0.46022   0.07524   0.14248   0.00000  Uiso   1.00
C1308  C     0.44869   0.08454   0.12092   0.00000  Uiso   1.00
C1309  C     0.46109   0.14183   0.19419   0.00000  Uiso   1.00
C1310  C     0.51120   0.17293   0.20670   0.00000  Uiso   1.00
C1311  C     0.18966   0.56025   0.54784   0.00000  Uiso   1.00
H1312  H     0.34289   0.13971   0.17212   0.00000  Uiso   1.00
H1313  H     0.58842   0.71994   0.85811   0.00000  Uiso   1.00
H1314  H     0.02280   0.47051   0.46303   0.00000  Uiso   1.00
H1315  H     0.40710   0.23484   0.19391   0.00000  Uiso   1.00
H1316  H     0.50741   0.61440   0.88154   0.00000  Uiso   1.00
H1317  H     0.05380   0.45798   0.41802   0.00000  Uiso   1.00
H1318  H     0.49463   0.33061   0.22009   0.00000  Uiso   1.00
H1319  H     0.46874   0.06484   0.18757   0.00000  Uiso   1.00
H1320  H     0.38784   0.97431   0.20775   0.00000  Uiso   1.00
H1321  H     0.48888   0.05820   0.14600   0.00000  Uiso   1.00
H1322  H     0.53985   0.15587   0.21022   0.00000  Uiso   1.00
H1323  H     0.28182   0.88363   0.22811   0.00000  Uiso   1.00
H1324  H     0.49488   0.06055   0.09791   0.00000  Uiso   1.00
H1325  H     0.26904   0.59984   0.56665   0.00000  Uiso   1.00
O1326  O     0.17246   0.85746   0.23448   0.00000  Uiso   1.00
O1327  O     0.11866   0.42291   0.39701   0.00000  Uiso   1.00
O1328  O     0.59301   0.35979   0.24132   0.00000  Uiso   1.00
N1329  N     0.21054   0.94507   0.21523   0.00000  Uiso   1.00
N1330  N     0.07640   0.44380   0.42683   0.00000  Uiso   1.00
N1331  N     0.51023   0.30303   0.22009   0.00000  Uiso   1.00
N1332  N     0.26851   0.91058   0.22235   0.00000  Uiso   1.00
N1333  N     0.46771   0.07598   0.10062   0.00000  Uiso   1.00
N1334  N     0.23488   0.60188   0.56054   0.00000  Uiso   1.00
C1335  C     0.56610   0.93298   0.04441   0.00000  Uiso   1.00
C1336  C     0.62481   0.96675   0.05597   0.00000  Uiso   1.00
C1337  C     0.65694   0.02669   0.05837   0.00000  Uiso   1.00
C1338  C     0.70960   0.04920   0.06947   0.00000  Uiso   1.00
C1339  C     0.46444   0.44047   0.41946   0.00000  Uiso   1.00
C1340  C     0.57379   0.89701   0.02646   0.00000  Uiso   1.00
C1341  C     0.56302   0.89832   0.00405   0.00000  Uiso   1.00
C1342  C     0.57273   0.86213   0.99032   0.00000  Uiso   1.00
C1343  C     0.58164   0.81177   0.96118   0.00000  Uiso   1.00
C1344  C     0.52464   0.88953   0.06138   0.00000  Uiso   1.00
C1345  C     0.47253   0.88454   0.06832   0.00000  Uiso   1.00
C1346  C     0.44085   0.84203   0.08398   0.00000  Uiso   1.00
C1347  C     0.37345   0.78005   0.10905   0.00000  Uiso   1.00
C1348  C     0.60249   0.86636   0.05985   0.00000  Uiso   1.00
C1349  C     0.64458   0.93055   0.06436   0.00000  Uiso   1.00
C1350  C     0.69720   0.95298   0.07546   0.00000  Uiso   1.00
C1351  C     0.72940   0.01295   0.07787   0.00000  Uiso   1.00
C1352  C     0.59356   0.86082   0.03485   0.00000  Uiso   1.00
C1353  C     0.60328   0.82461   0.02114   0.00000  Uiso   1.00
C1354  C     0.59253   0.82587   0.99872   0.00000  Uiso   1.00
C1355  C     0.54441   0.85334   0.06977   0.00000  Uiso   1.00
C1356  C     0.51279   0.81083   0.08542   0.00000  Uiso   1.00
C1357  C     0.46065   0.80577   0.09238   0.00000  Uiso   1.00
H1358  H     0.55072   0.96115   0.03787   0.00000  Uiso   1.00
H1359  H     0.64164   0.05468   0.05187   0.00000  Uiso   1.00
H1360  H     0.54772   0.92633   0.99757   0.00000  Uiso   1.00
H1361  H     0.45725   0.91255   0.06183   0.00000  Uiso   1.00
H1362  H     0.41783   0.47575   0.40441   0.00000  Uiso   1.00
H1363  H     0.55312   0.87177   0.95658   0.00000  Uiso   1.00
H1364  H     0.36235   0.84270   0.09208   0.00000  Uiso   1.00
H1365  H     0.61788   0.83818   0.06639   0.00000  Uiso   1.00
H1366  H     0.71248   0.92496   0.08195   0.00000  Uiso   1.00
H1367  H     0.61857   0.79661   0.02764   0.00000  Uiso   1.00
H1368  H     0.52810   0.78283   0.09190   0.00000  Uiso   1.00
H1369  H     0.80867   0.03714   0.09549   0.00000  Uiso   1.00
H1370  H     0.61062   0.76648   0.98099   0.00000  Uiso   1.00
H1371  H     0.41985   0.73742   0.11650   0.00000  Uiso   1.00
O1372  O     0.50761   0.48242   0.42633   0.00000  Uiso   1.00
O1373  O     0.58111   0.79399   0.94278   0.00000  Uiso   1.00
O1374  O     0.33082   0.75586   0.12056   0.00000  Uiso   1.00
N1375  N     0.41837   0.43906   0.40803   0.00000  Uiso   1.00
N1376  N     0.56656   0.85269   0.96764   0.00000  Uiso   1.00
N1377  N     0.38819   0.82551   0.09432   0.00000  Uiso   1.00
N1378  N     0.78265   0.04908   0.08783   0.00000  Uiso   1.00
N1379  N     0.59750   0.79604   0.98078   0.00000  Uiso   1.00
N1380  N     0.41913   0.76886   0.10746   0.00000  Uiso   1.00
C1381  C     0.54411   0.58250   0.50899   0.00000  Uiso   1.00
C1382  C     0.60145   0.60958   0.52164   0.00000  Uiso   1.00
C1383  C     0.63045   0.58085   0.52831   0.00000  Uiso   1.00
C1384  C     0.68233   0.61331   0.53969   0.00000  Uiso   1.00
C1385  C     0.76802   0.64640   0.55863   0.00000  Uiso   1.00
C1386  C     0.55587   0.61890   0.48809   0.00000  Uiso   1.00
C1387  C     0.54655   0.59800   0.46655   0.00000  Uiso   1.00
C1388  C     0.56005   0.63831   0.44970   0.00000  Uiso   1.00
C1389  C     0.24162   0.01918   0.74988   0.00000  Uiso   1.00
C1390  C     0.50281   0.59353   0.52298   0.00000  Uiso   1.00
C1391  C     0.11552   0.88463   0.86410   0.00000  Uiso   1.00
C1392  C     0.08435   0.90357   0.87662   0.00000  Uiso   1.00
C1393  C     0.01685   0.91172   0.89765   0.00000  Uiso   1.00
C1394  C     0.58467   0.69124   0.51736   0.00000  Uiso   1.00
C1395  C     0.62348   0.66865   0.52619   0.00000  Uiso   1.00
C1396  C     0.67532   0.70116   0.53757   0.00000  Uiso   1.00
C1397  C     0.70440   0.67248   0.54425   0.00000  Uiso   1.00
C1398  C     0.57790   0.67796   0.49264   0.00000  Uiso   1.00
C1399  C     0.59142   0.71831   0.47581   0.00000  Uiso   1.00
C1400  C     0.58212   0.69748   0.45425   0.00000  Uiso   1.00
C1401  C     0.52484   0.65259   0.52753   0.00000  Uiso   1.00
C1402  C     0.49374   0.67161   0.54003   0.00000  Uiso   1.00
C1403  C     0.10642   0.96274   0.88118   0.00000  Uiso   1.00
H1404  H     0.52696   0.53652   0.50545   0.00000  Uiso   1.00
H1405  H     0.94672   0.20181   0.19145   0.00000  Uiso   1.00
H1406  H     0.19616   0.88562   0.79637   0.00000  Uiso   1.00
H1407  H     0.43182   0.50559   0.52725   0.00000  Uiso   1.00
H1408  H     0.05227   0.22635   0.21488   0.00000  Uiso   1.00
H1409  H     0.20869   0.92916   0.75135   0.00000  Uiso   1.00
H1410  H     0.33606   0.49736   0.55342   0.00000  Uiso   1.00
H1411  H     0.60182   0.73722   0.52090   0.00000  Uiso   1.00
H1412  H     0.69236   0.74687   0.54109   0.00000  Uiso   1.00
H1413  H     0.60847   0.76401   0.47934   0.00000  Uiso   1.00
H1414  H     0.51080   0.71732   0.54355   0.00000  Uiso   1.00
H1415  H     0.78304   0.73152   0.56144   0.00000  Uiso   1.00
H1416  H     0.60612   0.76767   0.43125   0.00000  Uiso   1.00
H1417  H     0.06683   0.00253   0.89999   0.00000  Uiso   1.00
O1418  O     0.80921   0.64833   0.56782   0.00000  Uiso   1.00
O1419  O     0.24376   0.02908   0.73034   0.00000  Uiso   1.00
O1420  O     0.30688   0.56656   0.57465   0.00000  Uiso   1.00
N1421  N     0.72159   0.59880   0.54856   0.00000  Uiso   1.00
N1422  N     0.22286   0.96593   0.76017   0.00000  Uiso   1.00
N1423  N     0.36363   0.54053   0.55342   0.00000  Uiso   1.00
N1424  N     0.75608   0.69126   0.55568   0.00000  Uiso   1.00
N1425  N     0.59069   0.72506   0.43396   0.00000  Uiso   1.00
N1426  N     0.06479   0.96633   0.89388   0.00000  Uiso   1.00
C1427  C     0.73369   0.96646   0.37774   0.00000  Uiso   1.00
C1428  C     0.69992   0.99140   0.38930   0.00000  Uiso   1.00
C1429  C     0.63998   0.96358   0.39170   0.00000  Uiso   1.00
C1430  C     0.61747   0.99374   0.40280   0.00000  Uiso   1.00
C1431  C     0.22620   0.35730   0.75280   0.00000  Uiso   1.00
C1432  C     0.76965   0.01011   0.35979   0.00000  Uiso   1.00
C1433  C     0.76834   0.99803   0.33739   0.00000  Uiso   1.00
C1434  C     0.80454   0.04393   0.32365   0.00000  Uiso   1.00
C1435  C     0.85490   0.10321   0.29451   0.00000  Uiso   1.00
C1436  C     0.77714   0.96845   0.39471   0.00000  Uiso   1.00
C1437  C     0.78213   0.92133   0.40166   0.00000  Uiso   1.00
C1438  C     0.82464   0.93216   0.41731   0.00000  Uiso   1.00
C1439  C     0.88662   0.92674   0.44238   0.00000  Uiso   1.00
C1440  C     0.80031   0.06947   0.39319   0.00000  Uiso   1.00
C1441  C     0.73611   0.04735   0.39769   0.00000  Uiso   1.00
C1442  C     0.71369   0.07756   0.40879   0.00000  Uiso   1.00
C1443  C     0.65372   0.04979   0.41121   0.00000  Uiso   1.00
C1444  C     0.80584   0.06607   0.36818   0.00000  Uiso   1.00
C1445  C     0.84205   0.11200   0.35448   0.00000  Uiso   1.00
C1446  C     0.84079   0.09999   0.33206   0.00000  Uiso   1.00
C1447  C     0.81333   0.02440   0.40310   0.00000  Uiso   1.00
C1448  C     0.85584   0.03530   0.41875   0.00000  Uiso   1.00
C1449  C     0.86089   0.98821   0.42572   0.00000  Uiso   1.00
H1450  H     0.70551   0.92290   0.37121   0.00000  Uiso   1.00
H1451  H     0.61198   0.92029   0.38520   0.00000  Uiso   1.00
H1452  H     0.74034   0.95472   0.33090   0.00000  Uiso   1.00
H1453  H     0.75412   0.87804   0.39516   0.00000  Uiso   1.00
H1454  H     0.19091   0.27541   0.73774   0.00000  Uiso   1.00
H1455  H     0.79490   0.01468   0.28991   0.00000  Uiso   1.00
H1456  H     0.82396   0.85298   0.42542   0.00000  Uiso   1.00
H1457  H     0.82849   0.11303   0.39972   0.00000  Uiso   1.00
H1458  H     0.74170   0.12085   0.41528   0.00000  Uiso   1.00
H1459  H     0.87006   0.15529   0.36098   0.00000  Uiso   1.00
H1460  H     0.88384   0.07861   0.42524   0.00000  Uiso   1.00
H1461  H     0.62953   0.10486   0.42882   0.00000  Uiso   1.00
H1462  H     0.90019   0.17747   0.31432   0.00000  Uiso   1.00
H1463  H     0.92925   0.01577   0.44983   0.00000  Uiso   1.00
O1464  O     0.18425   0.35853   0.75967   0.00000  Uiso   1.00
O1465  O     0.87267   0.12045   0.27612   0.00000  Uiso   1.00
O1466  O     0.91080   0.90829   0.45389   0.00000  Uiso   1.00
N1467  N     0.22760   0.31264   0.74136   0.00000  Uiso   1.00
N1468  N     0.81397   0.04720   0.30097   0.00000  Uiso   1.00
N1469  N     0.84116   0.89602   0.42766   0.00000  Uiso   1.00
N1470  N     0.61759   0.06690   0.42116   0.00000  Uiso   1.00
N1471  N     0.87063   0.13479   0.31411   0.00000  Uiso   1.00
N1472  N     0.89781   0.98361   0.44079   0.00000  Uiso   1.00
C1473  C     0.21078   0.91583   0.84232   0.00000  Uiso   1.00
C1474  C     0.26812   0.94292   0.85497   0.00000  Uiso   1.00
C1475  C     0.29712   0.91419   0.86164   0.00000  Uiso   1.00
C1476  C     0.34899   0.94665   0.87303   0.00000  Uiso   1.00
C1477  C     0.43469   0.97973   0.89196   0.00000  Uiso   1.00
C1478  C     0.22254   0.95224   0.82142   0.00000  Uiso   1.00
C1479  C     0.21321   0.93133   0.79988   0.00000  Uiso   1.00
C1480  C     0.22672   0.97164   0.78303   0.00000  Uiso   1.00
C1481  C     0.90829   0.35251   0.08321   0.00000  Uiso   1.00
C1482  C     0.16948   0.92686   0.85631   0.00000  Uiso   1.00
C1483  C     0.78219   0.21796   0.19744   0.00000  Uiso   1.00
C1484  C     0.75101   0.23691   0.20995   0.00000  Uiso   1.00
C1485  C     0.68352   0.24505   0.23098   0.00000  Uiso   1.00
C1486  C     0.25134   0.02457   0.85070   0.00000  Uiso   1.00
C1487  C     0.29014   0.00198   0.85952   0.00000  Uiso   1.00
C1488  C     0.34199   0.03450   0.87090   0.00000  Uiso   1.00
C1489  C     0.37106   0.00582   0.87758   0.00000  Uiso   1.00
C1490  C     0.24457   0.01130   0.82597   0.00000  Uiso   1.00
C1491  C     0.25809   0.05164   0.80915   0.00000  Uiso   1.00
C1492  C     0.24879   0.03081   0.78758   0.00000  Uiso   1.00
C1493  C     0.19151   0.98593   0.86086   0.00000  Uiso   1.00
C1494  C     0.16040   0.00494   0.87337   0.00000  Uiso   1.00
C1495  C     0.77308   0.29608   0.21451   0.00000  Uiso   1.00
H1496  H     0.19363   0.86985   0.83878   0.00000  Uiso   1.00
H1497  H     0.61339   0.53514   0.52478   0.00000  Uiso   1.00
H1498  H     0.86283   0.21896   0.12970   0.00000  Uiso   1.00
H1499  H     0.09849   0.83893   0.86058   0.00000  Uiso   1.00
H1500  H     0.71894   0.55968   0.54821   0.00000  Uiso   1.00
H1501  H     0.87536   0.26249   0.08468   0.00000  Uiso   1.00
H1502  H     0.00273   0.83069   0.88675   0.00000  Uiso   1.00
H1503  H     0.26849   0.07056   0.85424   0.00000  Uiso   1.00
H1504  H     0.35903   0.08020   0.87442   0.00000  Uiso   1.00
H1505  H     0.27513   0.09735   0.81267   0.00000  Uiso   1.00
H1506  H     0.17746   0.05065   0.87688   0.00000  Uiso   1.00
H1507  H     0.44970   0.06486   0.89478   0.00000  Uiso   1.00
H1508  H     0.27279   0.10100   0.76458   0.00000  Uiso   1.00
H1509  H     0.73349   0.33587   0.23332   0.00000  Uiso   1.00
O1510  O     0.47587   0.98166   0.90115   0.00000  Uiso   1.00
O1511  O     0.91042   0.36242   0.06367   0.00000  Uiso   1.00
O1512  O     0.97354   0.89989   0.90799   0.00000  Uiso   1.00
N1513  N     0.38826   0.93213   0.88189   0.00000  Uiso   1.00
N1514  N     0.88953   0.29926   0.09350   0.00000  Uiso   1.00
N1515  N     0.03030   0.87387   0.88675   0.00000  Uiso   1.00
N1516  N     0.42275   0.02460   0.88901   0.00000  Uiso   1.00
N1517  N     0.25735   0.05839   0.76729   0.00000  Uiso   1.00
N1518  N     0.73146   0.29967   0.22721   0.00000  Uiso   1.00
C1519  C     0.40035   0.29979   0.71107   0.00000  Uiso   1.00
C1520  C     0.36659   0.32473   0.72263   0.00000  Uiso   1.00
C1521  C     0.30664   0.29692   0.72503   0.00000  Uiso   1.00
C1522  C     0.28413   0.32707   0.73613   0.00000  Uiso   1.00
C1523  C     0.89287   0.69064   0.08613   0.00000  Uiso   1.00
C1524  C     0.43632   0.34345   0.69313   0.00000  Uiso   1.00
C1525  C     0.43501   0.33136   0.67072   0.00000  Uiso   1.00
C1526  C     0.47121   0.37727   0.65698   0.00000  Uiso   1.00
C1527  C     0.52157   0.43654   0.62784   0.00000  Uiso   1.00
C1528  C     0.44380   0.30178   0.72804   0.00000  Uiso   1.00
C1529  C     0.44880   0.25466   0.73499   0.00000  Uiso   1.00
C1530  C     0.49131   0.26549   0.75065   0.00000  Uiso   1.00
C1531  C     0.55328   0.26007   0.77572   0.00000  Uiso   1.00
C1532  C     0.46698   0.40280   0.72652   0.00000  Uiso   1.00
C1533  C     0.40278   0.38069   0.73102   0.00000  Uiso   1.00
C1534  C     0.38035   0.41089   0.74212   0.00000  Uiso   1.00
C1535  C     0.32038   0.38312   0.74454   0.00000  Uiso   1.00
C1536  C     0.47251   0.39940   0.70152   0.00000  Uiso   1.00
C1537  C     0.50872   0.44533   0.68781   0.00000  Uiso   1.00
C1538  C     0.50746   0.43332   0.66539   0.00000  Uiso   1.00
C1539  C     0.47999   0.35773   0.73643   0.00000  Uiso   1.00
C1540  C     0.52251   0.36863   0.75208   0.00000  Uiso   1.00
C1541  C     0.52756   0.32154   0.75905   0.00000  Uiso   1.00
H1542  H     0.37218   0.25623   0.70454   0.00000  Uiso   1.00
H1543  H     0.27865   0.25362   0.71854   0.00000  Uiso   1.00
H1544  H     0.40700   0.28806   0.66423   0.00000  Uiso   1.00
H1545  H     0.42079   0.21137   0.72849   0.00000  Uiso   1.00
H1546  H     0.85758   0.60874   0.07108   0.00000  Uiso   1.00
H1547  H     0.46157   0.34802   0.62325   0.00000  Uiso   1.00
H1548  H     0.49063   0.18631   0.75875   0.00000  Uiso   1.00
H1549  H     0.49515   0.44636   0.73305   0.00000  Uiso   1.00
H1550  H     0.40837   0.45419   0.74862   0.00000  Uiso   1.00
H1551  H     0.53672   0.48862   0.69431   0.00000  Uiso   1.00
H1552  H     0.55050   0.41194   0.75857   0.00000  Uiso   1.00
H1553  H     0.29620   0.43820   0.76216   0.00000  Uiso   1.00
H1554  H     0.56685   0.51081   0.64766   0.00000  Uiso   1.00
H1555  H     0.59592   0.34910   0.78316   0.00000  Uiso   1.00
O1556  O     0.85091   0.69186   0.09300   0.00000  Uiso   1.00
O1557  O     0.53934   0.45378   0.60945   0.00000  Uiso   1.00
O1558  O     0.57747   0.24163   0.78723   0.00000  Uiso   1.00
N1559  N     0.89427   0.64598   0.07469   0.00000  Uiso   1.00
N1560  N     0.48064   0.38053   0.63431   0.00000  Uiso   1.00
N1561  N     0.50782   0.22935   0.76099   0.00000  Uiso   1.00
N1562  N     0.28426   0.40024   0.75450   0.00000  Uiso   1.00
N1563  N     0.53729   0.46813   0.64744   0.00000  Uiso   1.00
N1564  N     0.56448   0.31694   0.77413   0.00000  Uiso   1.00
C1565  C     0.87744   0.24916   0.17566   0.00000  Uiso   1.00
C1566  C     0.93478   0.27625   0.18831   0.00000  Uiso   1.00
C1567  C     0.96378   0.24752   0.19497   0.00000  Uiso   1.00
C1568  C     0.01566   0.27998   0.20636   0.00000  Uiso   1.00
C1569  C     0.10135   0.31306   0.22530   0.00000  Uiso   1.00
C1570  C     0.88921   0.28557   0.15476   0.00000  Uiso   1.00
C1571  C     0.87988   0.26467   0.13321   0.00000  Uiso   1.00
C1572  C     0.89339   0.30497   0.11636   0.00000  Uiso   1.00
C1573  C     0.57495   0.68585   0.41655   0.00000  Uiso   1.00
C1574  C     0.83614   0.26019   0.18965   0.00000  Uiso   1.00
C1575  C     0.44886   0.55130   0.53077   0.00000  Uiso   1.00
C1576  C     0.41768   0.57024   0.54329   0.00000  Uiso   1.00
C1577  C     0.35019   0.57838   0.56431   0.00000  Uiso   1.00
C1578  C     0.91800   0.35791   0.18403   0.00000  Uiso   1.00
C1579  C     0.95681   0.33532   0.19285   0.00000  Uiso   1.00
C1580  C     0.00866   0.36783   0.20424   0.00000  Uiso   1.00
C1581  C     0.03773   0.33915   0.21092   0.00000  Uiso   1.00
C1582  C     0.91124   0.34463   0.15930   0.00000  Uiso   1.00
C1583  C     0.92476   0.38498   0.14248   0.00000  Uiso   1.00
C1584  C     0.91546   0.36414   0.12092   0.00000  Uiso   1.00
C1585  C     0.85817   0.31926   0.19419   0.00000  Uiso   1.00
C1586  C     0.82707   0.33827   0.20670   0.00000  Uiso   1.00
C1587  C     0.43975   0.62941   0.54784   0.00000  Uiso   1.00
H1588  H     0.86029   0.20318   0.17212   0.00000  Uiso   1.00
H1589  H     0.28006   0.86848   0.85811   0.00000  Uiso   1.00
H1590  H     0.52949   0.55229   0.46303   0.00000  Uiso   1.00
H1591  H     0.76516   0.17226   0.19391   0.00000  Uiso   1.00
H1592  H     0.38560   0.89301   0.88154   0.00000  Uiso   1.00
H1593  H     0.54202   0.59583   0.41802   0.00000  Uiso   1.00
H1594  H     0.66939   0.16402   0.22009   0.00000  Uiso   1.00
H1595  H     0.93516   0.40389   0.18757   0.00000  Uiso   1.00
H1596  H     0.02569   0.41354   0.20775   0.00000  Uiso   1.00
H1597  H     0.94180   0.43068   0.14600   0.00000  Uiso   1.00
H1598  H     0.84413   0.38398   0.21022   0.00000  Uiso   1.00
H1599  H     0.11637   0.39819   0.22811   0.00000  Uiso   1.00
H1600  H     0.93945   0.43434   0.09791   0.00000  Uiso   1.00
H1601  H     0.40016   0.66920   0.56665   0.00000  Uiso   1.00
O1602  O     0.14254   0.31499   0.23448   0.00000  Uiso   1.00
O1603  O     0.57709   0.69575   0.39701   0.00000  Uiso   1.00
O1604  O     0.64021   0.23322   0.24132   0.00000  Uiso   1.00
N1605  N     0.05493   0.26546   0.21523   0.00000  Uiso   1.00
N1606  N     0.55620   0.63259   0.42683   0.00000  Uiso   1.00
N1607  N     0.69697   0.20720   0.22009   0.00000  Uiso   1.00
N1608  N     0.08942   0.35793   0.22235   0.00000  Uiso   1.00
N1609  N     0.92402   0.39173   0.10062   0.00000  Uiso   1.00
N1610  N     0.39812   0.63300   0.56054   0.00000  Uiso   1.00
C1611  C     0.06702   0.63312   0.04441   0.00000  Uiso   1.00
C1612  C     0.03325   0.65807   0.05597   0.00000  Uiso   1.00
C1613  C     0.97331   0.63025   0.05837   0.00000  Uiso   1.00
C1614  C     0.95080   0.66040   0.06947   0.00000  Uiso   1.00
C1615  C     0.55953   0.02397   0.41946   0.00000  Uiso   1.00
C1616  C     0.10299   0.67678   0.02646   0.00000  Uiso   1.00
C1617  C     0.10168   0.66469   0.00405   0.00000  Uiso   1.00
C1618  C     0.13787   0.71060   0.99032   0.00000  Uiso   1.00
C1619  C     0.18823   0.76988   0.96118   0.00000  Uiso   1.00
C1620  C     0.11047   0.63511   0.06138   0.00000  Uiso   1.00
C1621  C     0.11546   0.58800   0.06832   0.00000  Uiso   1.00
C1622  C     0.15797   0.59882   0.08398   0.00000  Uiso   1.00
C1623  C     0.21995   0.59341   0.10905   0.00000  Uiso   1.00
C1624  C     0.13364   0.73613   0.05985   0.00000  Uiso   1.00
C1625  C     0.06945   0.71402   0.06436   0.00000  Uiso   1.00
C1626  C     0.04702   0.74422   0.07546   0.00000  Uiso   1.00
C1627  C     0.98705   0.71645   0.07787   0.00000  Uiso   1.00
C1628  C     0.13918   0.73273   0.03485   0.00000  Uiso   1.00
C1629  C     0.17539   0.77867   0.02114   0.00000  Uiso   1.00
C1630  C     0.17413   0.76665   0.99872   0.00000  Uiso   1.00
C1631  C     0.14666   0.69107   0.06977   0.00000  Uiso   1.00
C1632  C     0.18917   0.70197   0.08542   0.00000  Uiso   1.00
C1633  C     0.19423   0.65488   0.09238   0.00000  Uiso   1.00
H1634  H     0.03885   0.58956   0.03787   0.00000  Uiso   1.00
H1635  H     0.94532   0.58695   0.05187   0.00000  Uiso   1.00
H1636  H     0.07367   0.62139   0.99757   0.00000  Uiso   1.00
H1637  H     0.08745   0.54471   0.06183   0.00000  Uiso   1.00
H1638  H     0.52425   0.94208   0.40441   0.00000  Uiso   1.00
H1639  H     0.12823   0.68135   0.95658   0.00000  Uiso   1.00
H1640  H     0.15730   0.51964   0.09208   0.00000  Uiso   1.00
H1641  H     0.16182   0.77970   0.06639   0.00000  Uiso   1.00
H1642  H     0.07504   0.78752   0.08195   0.00000  Uiso   1.00
H1643  H     0.20339   0.82196   0.02764   0.00000  Uiso   1.00
H1644  H     0.21717   0.74527   0.09190   0.00000  Uiso   1.00
H1645  H     0.96286   0.77153   0.09549   0.00000  Uiso   1.00
H1646  H     0.23352   0.84414   0.98099   0.00000  Uiso   1.00
H1647  H     0.26258   0.68243   0.11650   0.00000  Uiso   1.00
O1648  O     0.51758   0.02519   0.42633   0.00000  Uiso   1.00
O1649  O     0.20601   0.78712   0.94278   0.00000  Uiso   1.00
O1650  O     0.24414   0.57496   0.12056   0.00000  Uiso   1.00
N1651  N     0.56094   0.97931   0.40803   0.00000  Uiso   1.00
N1652  N     0.14731   0.71386   0.96764   0.00000  Uiso   1.00
N1653  N     0.17449   0.56268   0.09432   0.00000  Uiso   1.00
N1654  N     0.95092   0.73357   0.08783   0.00000  Uiso   1.00
N1655  N     0.20396   0.80146   0.98078   0.00000  Uiso   1.00
N1656  N     0.23114   0.65028   0.10746   0.00000  Uiso   1.00
