data_job_01273
_audit_creation_date              2018-12-19
_audit_creation_method            'Materials Studio'
_symmetry_space_group_name_H-M    'P1'
_symmetry_Int_Tables_number       1
_symmetry_cell_setting            triclinic
loop_
_symmetry_equiv_pos_as_xyz
  x,y,z
_cell_length_a                    17.8458
_cell_length_b                    17.8458
_cell_length_c                    42.2376
_cell_angle_alpha                 90.0000
_cell_angle_beta                  90.0000
_cell_angle_gamma                 90.0000
loop_
_atom_site_label
_atom_site_type_symbol
_atom_site_fract_x
_atom_site_fract_y
_atom_site_fract_z
_atom_site_U_iso_or_equiv
_atom_site_adp_type
_atom_site_occupancy
C1     C     0.89817   0.58402   0.93252   0.00000  Uiso   1.00
C2     C     0.81675   0.56270   0.93876   0.00000  Uiso   1.00
C3     C     0.78728   0.49082   0.93728   0.00000  Uiso   1.00
C4     C     0.71142   0.48298   0.94378   0.00000  Uiso   1.00
C5     C     0.59179   0.44046   0.95227   0.00000  Uiso   1.00
C6     C     0.89631   0.64279   0.90633   0.00000  Uiso   1.00
C7     C     0.93375   0.63826   0.87759   0.00000  Uiso   1.00
C8     C     0.92488   0.69786   0.85679   0.00000  Uiso   1.00
C9     C     0.92881   0.77972   0.81495   0.00000  Uiso   1.00
C10    C     0.92504   0.62463   0.96219   0.00000  Uiso   1.00
C11    C     0.98664   0.60484   0.98042   0.00000  Uiso   1.00
C12    C     0.00196   0.64915   0.00665   0.00000  Uiso   1.00
C13    C     0.05050   0.70281   0.05154   0.00000  Uiso   1.00
C14    C     0.81586   0.69792   0.94669   0.00000  Uiso   1.00
C15    C     0.77204   0.62457   0.94645   0.00000  Uiso   1.00
C16    C     0.69621   0.61684   0.95296   0.00000  Uiso   1.00
C17    C     0.66663   0.54496   0.95149   0.00000  Uiso   1.00
C18    C     0.85161   0.70466   0.91402   0.00000  Uiso   1.00
C19    C     0.84268   0.76428   0.89326   0.00000  Uiso   1.00
C20    C     0.88009   0.75984   0.86450   0.00000  Uiso   1.00
C21    C     0.88033   0.68650   0.96989   0.00000  Uiso   1.00
C22    C     0.89556   0.73085   0.99609   0.00000  Uiso   1.00
C23    C     0.95717   0.71113   0.01436   0.00000  Uiso   1.00
H24    H     0.93298   0.53586   0.92653   0.00000  Uiso   1.00
H25    H     0.82190   0.44295   0.93132   0.00000  Uiso   1.00
H26    H     0.96835   0.59038   0.87164   0.00000  Uiso   1.00
H27    H     0.02122   0.55696   0.97446   0.00000  Uiso   1.00
H28    H     0.67901   0.36724   0.94002   0.00000  Uiso   1.00
H29    H     0.98784   0.67811   0.81418   0.00000  Uiso   1.00
H30    H     0.09934   0.60763   0.03099   0.00000  Uiso   1.00
H31    H     0.78105   0.74609   0.95268   0.00000  Uiso   1.00
H32    H     0.66162   0.66472   0.95891   0.00000  Uiso   1.00
H33    H     0.80808   0.81215   0.89923   0.00000  Uiso   1.00
H34    H     0.86095   0.77873   0.00204   0.00000  Uiso   1.00
H35    H     0.54893   0.54724   0.96241   0.00000  Uiso   1.00
H36    H     0.85776   0.85811   0.83657   0.00000  Uiso   1.00
H37    H     0.96926   0.78763   0.05337   0.00000  Uiso   1.00
O38    O     0.53815   0.39992   0.95483   0.00000  Uiso   1.00
O39    O     0.94333   0.80777   0.78974   0.00000  Uiso   1.00
O40    O     0.08961   0.71531   0.07418   0.00000  Uiso   1.00
N41    N     0.66479   0.42077   0.94444   0.00000  Uiso   1.00
N42    N     0.95352   0.71141   0.82679   0.00000  Uiso   1.00
N43    N     0.05777   0.64553   0.02948   0.00000  Uiso   1.00
N44    N     0.59479   0.51762   0.95649   0.00000  Uiso   1.00
N45    N     0.88352   0.80826   0.83884   0.00000  Uiso   1.00
N46    N     0.98778   0.74238   0.04152   0.00000  Uiso   1.00
C47    C     0.39817   0.08402   0.43252   0.00000  Uiso   1.00
C48    C     0.31675   0.06270   0.43876   0.00000  Uiso   1.00
C49    C     0.28728   0.99082   0.43728   0.00000  Uiso   1.00
C50    C     0.21142   0.98298   0.44378   0.00000  Uiso   1.00
C51    C     0.09179   0.94046   0.45227   0.00000  Uiso   1.00
C52    C     0.39631   0.14279   0.40633   0.00000  Uiso   1.00
C53    C     0.43375   0.13826   0.37759   0.00000  Uiso   1.00
C54    C     0.42488   0.19786   0.35679   0.00000  Uiso   1.00
C55    C     0.42881   0.27972   0.31495   0.00000  Uiso   1.00
C56    C     0.42504   0.12463   0.46219   0.00000  Uiso   1.00
C57    C     0.48664   0.10484   0.48042   0.00000  Uiso   1.00
C58    C     0.50196   0.14915   0.50665   0.00000  Uiso   1.00
C59    C     0.55050   0.20281   0.55154   0.00000  Uiso   1.00
C60    C     0.31586   0.19792   0.44669   0.00000  Uiso   1.00
C61    C     0.27204   0.12457   0.44645   0.00000  Uiso   1.00
C62    C     0.19621   0.11684   0.45296   0.00000  Uiso   1.00
C63    C     0.16663   0.04496   0.45149   0.00000  Uiso   1.00
C64    C     0.35161   0.20466   0.41402   0.00000  Uiso   1.00
C65    C     0.34268   0.26428   0.39326   0.00000  Uiso   1.00
C66    C     0.38009   0.25984   0.36450   0.00000  Uiso   1.00
C67    C     0.38033   0.18650   0.46989   0.00000  Uiso   1.00
C68    C     0.39556   0.23085   0.49609   0.00000  Uiso   1.00
C69    C     0.45717   0.21113   0.51436   0.00000  Uiso   1.00
H70    H     0.43298   0.03586   0.42653   0.00000  Uiso   1.00
H71    H     0.32190   0.94295   0.43132   0.00000  Uiso   1.00
H72    H     0.46835   0.09038   0.37164   0.00000  Uiso   1.00
H73    H     0.52122   0.05696   0.47446   0.00000  Uiso   1.00
H74    H     0.17901   0.86724   0.44002   0.00000  Uiso   1.00
H75    H     0.48784   0.17811   0.31418   0.00000  Uiso   1.00
H76    H     0.59934   0.10763   0.53099   0.00000  Uiso   1.00
H77    H     0.28105   0.24609   0.45268   0.00000  Uiso   1.00
H78    H     0.16162   0.16472   0.45891   0.00000  Uiso   1.00
H79    H     0.30808   0.31215   0.39923   0.00000  Uiso   1.00
H80    H     0.36095   0.27873   0.50204   0.00000  Uiso   1.00
H81    H     0.04893   0.04724   0.46241   0.00000  Uiso   1.00
H82    H     0.35776   0.35811   0.33657   0.00000  Uiso   1.00
H83    H     0.46926   0.28763   0.55337   0.00000  Uiso   1.00
O84    O     0.03815   0.89992   0.45483   0.00000  Uiso   1.00
O85    O     0.44333   0.30777   0.28974   0.00000  Uiso   1.00
O86    O     0.58961   0.21531   0.57418   0.00000  Uiso   1.00
N87    N     0.16479   0.92077   0.44444   0.00000  Uiso   1.00
N88    N     0.45352   0.21141   0.32679   0.00000  Uiso   1.00
N89    N     0.55777   0.14553   0.52948   0.00000  Uiso   1.00
N90    N     0.09479   0.01762   0.45649   0.00000  Uiso   1.00
N91    N     0.38352   0.30826   0.33884   0.00000  Uiso   1.00
N92    N     0.48778   0.24238   0.54152   0.00000  Uiso   1.00
C93    C     0.10183   0.41598   0.93252   0.00000  Uiso   1.00
C94    C     0.18325   0.43730   0.93876   0.00000  Uiso   1.00
C95    C     0.21272   0.50918   0.93728   0.00000  Uiso   1.00
C96    C     0.28858   0.51702   0.94378   0.00000  Uiso   1.00
C97    C     0.40821   0.55954   0.95227   0.00000  Uiso   1.00
C98    C     0.10369   0.35721   0.90633   0.00000  Uiso   1.00
C99    C     0.06625   0.36174   0.87759   0.00000  Uiso   1.00
C100   C     0.07512   0.30214   0.85679   0.00000  Uiso   1.00
C101   C     0.07119   0.22028   0.81495   0.00000  Uiso   1.00
C102   C     0.07496   0.37537   0.96219   0.00000  Uiso   1.00
C103   C     0.01336   0.39516   0.98042   0.00000  Uiso   1.00
C104   C     0.99804   0.35085   0.00665   0.00000  Uiso   1.00
C105   C     0.94950   0.29719   0.05154   0.00000  Uiso   1.00
C106   C     0.18414   0.30208   0.94669   0.00000  Uiso   1.00
C107   C     0.22796   0.37543   0.94645   0.00000  Uiso   1.00
C108   C     0.30379   0.38316   0.95296   0.00000  Uiso   1.00
C109   C     0.33337   0.45504   0.95149   0.00000  Uiso   1.00
C110   C     0.14839   0.29534   0.91402   0.00000  Uiso   1.00
C111   C     0.15732   0.23572   0.89326   0.00000  Uiso   1.00
C112   C     0.11991   0.24016   0.86450   0.00000  Uiso   1.00
C113   C     0.11967   0.31350   0.96989   0.00000  Uiso   1.00
C114   C     0.10444   0.26915   0.99609   0.00000  Uiso   1.00
C115   C     0.04283   0.28887   0.01436   0.00000  Uiso   1.00
H116   H     0.06702   0.46414   0.92653   0.00000  Uiso   1.00
H117   H     0.17810   0.55705   0.93132   0.00000  Uiso   1.00
H118   H     0.03165   0.40962   0.87164   0.00000  Uiso   1.00
H119   H     0.97878   0.44304   0.97446   0.00000  Uiso   1.00
H120   H     0.32099   0.63276   0.94002   0.00000  Uiso   1.00
H121   H     0.01216   0.32189   0.81418   0.00000  Uiso   1.00
H122   H     0.90066   0.39237   0.03099   0.00000  Uiso   1.00
H123   H     0.21895   0.25391   0.95268   0.00000  Uiso   1.00
H124   H     0.33838   0.33528   0.95891   0.00000  Uiso   1.00
H125   H     0.19192   0.18785   0.89923   0.00000  Uiso   1.00
H126   H     0.13905   0.22127   0.00204   0.00000  Uiso   1.00
H127   H     0.45107   0.45276   0.96241   0.00000  Uiso   1.00
H128   H     0.14224   0.14189   0.83657   0.00000  Uiso   1.00
H129   H     0.03074   0.21237   0.05337   0.00000  Uiso   1.00
O130   O     0.46185   0.60008   0.95483   0.00000  Uiso   1.00
O131   O     0.05667   0.19223   0.78974   0.00000  Uiso   1.00
O132   O     0.91039   0.28469   0.07418   0.00000  Uiso   1.00
N133   N     0.33521   0.57923   0.94444   0.00000  Uiso   1.00
N134   N     0.04648   0.28859   0.82679   0.00000  Uiso   1.00
N135   N     0.94223   0.35447   0.02948   0.00000  Uiso   1.00
N136   N     0.40521   0.48238   0.95649   0.00000  Uiso   1.00
N137   N     0.11648   0.19174   0.83884   0.00000  Uiso   1.00
N138   N     0.01222   0.25762   0.04152   0.00000  Uiso   1.00
C139   C     0.60183   0.91598   0.43252   0.00000  Uiso   1.00
C140   C     0.68325   0.93730   0.43876   0.00000  Uiso   1.00
C141   C     0.71272   0.00918   0.43728   0.00000  Uiso   1.00
C142   C     0.78858   0.01702   0.44378   0.00000  Uiso   1.00
C143   C     0.90821   0.05954   0.45227   0.00000  Uiso   1.00
C144   C     0.60369   0.85721   0.40633   0.00000  Uiso   1.00
C145   C     0.56625   0.86174   0.37759   0.00000  Uiso   1.00
C146   C     0.57512   0.80214   0.35679   0.00000  Uiso   1.00
C147   C     0.57119   0.72028   0.31495   0.00000  Uiso   1.00
C148   C     0.57496   0.87537   0.46219   0.00000  Uiso   1.00
C149   C     0.51336   0.89516   0.48042   0.00000  Uiso   1.00
C150   C     0.49804   0.85085   0.50665   0.00000  Uiso   1.00
C151   C     0.44950   0.79719   0.55154   0.00000  Uiso   1.00
C152   C     0.68414   0.80208   0.44669   0.00000  Uiso   1.00
C153   C     0.72796   0.87543   0.44645   0.00000  Uiso   1.00
C154   C     0.80379   0.88316   0.45296   0.00000  Uiso   1.00
C155   C     0.83337   0.95504   0.45149   0.00000  Uiso   1.00
C156   C     0.64839   0.79534   0.41402   0.00000  Uiso   1.00
C157   C     0.65732   0.73572   0.39326   0.00000  Uiso   1.00
C158   C     0.61991   0.74016   0.36450   0.00000  Uiso   1.00
C159   C     0.61967   0.81350   0.46989   0.00000  Uiso   1.00
C160   C     0.60444   0.76915   0.49609   0.00000  Uiso   1.00
C161   C     0.54283   0.78887   0.51436   0.00000  Uiso   1.00
H162   H     0.56702   0.96414   0.42653   0.00000  Uiso   1.00
H163   H     0.67810   0.05705   0.43132   0.00000  Uiso   1.00
H164   H     0.53165   0.90962   0.37164   0.00000  Uiso   1.00
H165   H     0.47878   0.94304   0.47446   0.00000  Uiso   1.00
H166   H     0.82099   0.13276   0.44002   0.00000  Uiso   1.00
H167   H     0.51216   0.82189   0.31418   0.00000  Uiso   1.00
H168   H     0.40066   0.89237   0.53099   0.00000  Uiso   1.00
H169   H     0.71895   0.75391   0.45268   0.00000  Uiso   1.00
H170   H     0.83838   0.83528   0.45891   0.00000  Uiso   1.00
H171   H     0.69192   0.68785   0.39923   0.00000  Uiso   1.00
H172   H     0.63905   0.72127   0.50204   0.00000  Uiso   1.00
H173   H     0.95107   0.95276   0.46241   0.00000  Uiso   1.00
H174   H     0.64224   0.64189   0.33657   0.00000  Uiso   1.00
H175   H     0.53074   0.71237   0.55337   0.00000  Uiso   1.00
O176   O     0.96185   0.10008   0.45483   0.00000  Uiso   1.00
O177   O     0.55667   0.69223   0.28974   0.00000  Uiso   1.00
O178   O     0.41039   0.78469   0.57418   0.00000  Uiso   1.00
N179   N     0.83521   0.07923   0.44444   0.00000  Uiso   1.00
N180   N     0.54648   0.78859   0.32679   0.00000  Uiso   1.00
N181   N     0.44223   0.85447   0.52948   0.00000  Uiso   1.00
N182   N     0.90521   0.98238   0.45649   0.00000  Uiso   1.00
N183   N     0.61648   0.69174   0.33884   0.00000  Uiso   1.00
N184   N     0.51222   0.75762   0.54152   0.00000  Uiso   1.00
C185   C     0.58402   0.10183   0.06748   0.00000  Uiso   1.00
C186   C     0.56270   0.18325   0.06124   0.00000  Uiso   1.00
C187   C     0.49082   0.21272   0.06272   0.00000  Uiso   1.00
C188   C     0.48298   0.28858   0.05622   0.00000  Uiso   1.00
C189   C     0.44046   0.40821   0.04773   0.00000  Uiso   1.00
C190   C     0.64279   0.10369   0.09367   0.00000  Uiso   1.00
C191   C     0.63826   0.06625   0.12241   0.00000  Uiso   1.00
C192   C     0.69786   0.07512   0.14321   0.00000  Uiso   1.00
C193   C     0.77972   0.07119   0.18505   0.00000  Uiso   1.00
C194   C     0.62463   0.07496   0.03781   0.00000  Uiso   1.00
C195   C     0.60484   0.01336   0.01958   0.00000  Uiso   1.00
C196   C     0.64915   0.99804   0.99335   0.00000  Uiso   1.00
C197   C     0.70281   0.94950   0.94846   0.00000  Uiso   1.00
C198   C     0.69792   0.18414   0.05331   0.00000  Uiso   1.00
C199   C     0.62457   0.22796   0.05355   0.00000  Uiso   1.00
C200   C     0.61684   0.30379   0.04704   0.00000  Uiso   1.00
C201   C     0.54496   0.33337   0.04851   0.00000  Uiso   1.00
C202   C     0.70466   0.14839   0.08598   0.00000  Uiso   1.00
C203   C     0.76428   0.15732   0.10674   0.00000  Uiso   1.00
C204   C     0.75984   0.11991   0.13550   0.00000  Uiso   1.00
C205   C     0.68650   0.11967   0.03011   0.00000  Uiso   1.00
C206   C     0.73085   0.10444   0.00391   0.00000  Uiso   1.00
C207   C     0.71113   0.04283   0.98564   0.00000  Uiso   1.00
H208   H     0.53586   0.06702   0.07347   0.00000  Uiso   1.00
H209   H     0.44295   0.17810   0.06868   0.00000  Uiso   1.00
H210   H     0.59038   0.03165   0.12836   0.00000  Uiso   1.00
H211   H     0.55696   0.97878   0.02554   0.00000  Uiso   1.00
H212   H     0.36724   0.32099   0.05998   0.00000  Uiso   1.00
H213   H     0.67811   0.01216   0.18582   0.00000  Uiso   1.00
H214   H     0.60763   0.90066   0.96901   0.00000  Uiso   1.00
H215   H     0.74609   0.21895   0.04732   0.00000  Uiso   1.00
H216   H     0.66472   0.33838   0.04109   0.00000  Uiso   1.00
H217   H     0.81215   0.19192   0.10077   0.00000  Uiso   1.00
H218   H     0.77873   0.13905   0.99796   0.00000  Uiso   1.00
H219   H     0.54724   0.45107   0.03759   0.00000  Uiso   1.00
H220   H     0.85811   0.14224   0.16343   0.00000  Uiso   1.00
H221   H     0.78763   0.03074   0.94663   0.00000  Uiso   1.00
O222   O     0.39992   0.46185   0.04517   0.00000  Uiso   1.00
O223   O     0.80777   0.05667   0.21026   0.00000  Uiso   1.00
O224   O     0.71531   0.91039   0.92582   0.00000  Uiso   1.00
N225   N     0.42077   0.33521   0.05556   0.00000  Uiso   1.00
N226   N     0.71141   0.04648   0.17321   0.00000  Uiso   1.00
N227   N     0.64553   0.94223   0.97052   0.00000  Uiso   1.00
N228   N     0.51762   0.40521   0.04351   0.00000  Uiso   1.00
N229   N     0.80826   0.11648   0.16116   0.00000  Uiso   1.00
N230   N     0.74238   0.01222   0.95848   0.00000  Uiso   1.00
C231   C     0.08402   0.60183   0.56748   0.00000  Uiso   1.00
C232   C     0.06270   0.68325   0.56124   0.00000  Uiso   1.00
C233   C     0.99082   0.71272   0.56272   0.00000  Uiso   1.00
C234   C     0.98298   0.78858   0.55622   0.00000  Uiso   1.00
C235   C     0.94046   0.90821   0.54773   0.00000  Uiso   1.00
C236   C     0.14279   0.60369   0.59367   0.00000  Uiso   1.00
C237   C     0.13826   0.56625   0.62241   0.00000  Uiso   1.00
C238   C     0.19786   0.57512   0.64321   0.00000  Uiso   1.00
C239   C     0.27972   0.57119   0.68505   0.00000  Uiso   1.00
C240   C     0.12463   0.57496   0.53781   0.00000  Uiso   1.00
C241   C     0.10484   0.51336   0.51958   0.00000  Uiso   1.00
C242   C     0.14915   0.49804   0.49335   0.00000  Uiso   1.00
C243   C     0.20281   0.44950   0.44846   0.00000  Uiso   1.00
C244   C     0.19792   0.68414   0.55331   0.00000  Uiso   1.00
C245   C     0.12457   0.72796   0.55355   0.00000  Uiso   1.00
C246   C     0.11684   0.80379   0.54704   0.00000  Uiso   1.00
C247   C     0.04496   0.83337   0.54851   0.00000  Uiso   1.00
C248   C     0.20466   0.64839   0.58598   0.00000  Uiso   1.00
C249   C     0.26428   0.65732   0.60674   0.00000  Uiso   1.00
C250   C     0.25984   0.61991   0.63550   0.00000  Uiso   1.00
C251   C     0.18650   0.61967   0.53011   0.00000  Uiso   1.00
C252   C     0.23085   0.60444   0.50391   0.00000  Uiso   1.00
C253   C     0.21113   0.54283   0.48564   0.00000  Uiso   1.00
H254   H     0.03586   0.56702   0.57347   0.00000  Uiso   1.00
H255   H     0.94295   0.67810   0.56868   0.00000  Uiso   1.00
H256   H     0.09038   0.53165   0.62836   0.00000  Uiso   1.00
H257   H     0.05696   0.47878   0.52554   0.00000  Uiso   1.00
H258   H     0.86724   0.82099   0.55998   0.00000  Uiso   1.00
H259   H     0.17811   0.51216   0.68582   0.00000  Uiso   1.00
H260   H     0.10763   0.40066   0.46901   0.00000  Uiso   1.00
H261   H     0.24609   0.71895   0.54732   0.00000  Uiso   1.00
H262   H     0.16472   0.83838   0.54109   0.00000  Uiso   1.00
H263   H     0.31215   0.69192   0.60077   0.00000  Uiso   1.00
H264   H     0.27873   0.63905   0.49796   0.00000  Uiso   1.00
H265   H     0.04724   0.95107   0.53759   0.00000  Uiso   1.00
H266   H     0.35811   0.64224   0.66343   0.00000  Uiso   1.00
H267   H     0.28763   0.53074   0.44663   0.00000  Uiso   1.00
O268   O     0.89992   0.96185   0.54517   0.00000  Uiso   1.00
O269   O     0.30777   0.55667   0.71026   0.00000  Uiso   1.00
O270   O     0.21531   0.41039   0.42582   0.00000  Uiso   1.00
N271   N     0.92077   0.83521   0.55556   0.00000  Uiso   1.00
N272   N     0.21141   0.54648   0.67321   0.00000  Uiso   1.00
N273   N     0.14553   0.44223   0.47052   0.00000  Uiso   1.00
N274   N     0.01762   0.90521   0.54351   0.00000  Uiso   1.00
N275   N     0.30826   0.61648   0.66116   0.00000  Uiso   1.00
N276   N     0.24238   0.51222   0.45848   0.00000  Uiso   1.00
C277   C     0.41598   0.89817   0.06748   0.00000  Uiso   1.00
C278   C     0.43730   0.81675   0.06124   0.00000  Uiso   1.00
C279   C     0.50918   0.78728   0.06272   0.00000  Uiso   1.00
C280   C     0.51702   0.71142   0.05622   0.00000  Uiso   1.00
C281   C     0.55954   0.59179   0.04773   0.00000  Uiso   1.00
C282   C     0.35721   0.89631   0.09367   0.00000  Uiso   1.00
C283   C     0.36174   0.93375   0.12241   0.00000  Uiso   1.00
C284   C     0.30214   0.92488   0.14321   0.00000  Uiso   1.00
C285   C     0.22028   0.92881   0.18505   0.00000  Uiso   1.00
C286   C     0.37537   0.92504   0.03781   0.00000  Uiso   1.00
C287   C     0.39516   0.98664   0.01958   0.00000  Uiso   1.00
C288   C     0.35085   0.00196   0.99335   0.00000  Uiso   1.00
C289   C     0.29719   0.05050   0.94846   0.00000  Uiso   1.00
C290   C     0.30208   0.81586   0.05331   0.00000  Uiso   1.00
C291   C     0.37543   0.77204   0.05355   0.00000  Uiso   1.00
C292   C     0.38316   0.69621   0.04704   0.00000  Uiso   1.00
C293   C     0.45504   0.66663   0.04851   0.00000  Uiso   1.00
C294   C     0.29534   0.85161   0.08598   0.00000  Uiso   1.00
C295   C     0.23572   0.84268   0.10674   0.00000  Uiso   1.00
C296   C     0.24016   0.88009   0.13550   0.00000  Uiso   1.00
C297   C     0.31350   0.88033   0.03011   0.00000  Uiso   1.00
C298   C     0.26915   0.89556   0.00391   0.00000  Uiso   1.00
C299   C     0.28887   0.95717   0.98564   0.00000  Uiso   1.00
H300   H     0.46414   0.93298   0.07347   0.00000  Uiso   1.00
H301   H     0.55705   0.82190   0.06868   0.00000  Uiso   1.00
H302   H     0.40962   0.96835   0.12836   0.00000  Uiso   1.00
H303   H     0.44304   0.02122   0.02554   0.00000  Uiso   1.00
H304   H     0.63276   0.67901   0.05998   0.00000  Uiso   1.00
H305   H     0.32189   0.98784   0.18582   0.00000  Uiso   1.00
H306   H     0.39237   0.09934   0.96901   0.00000  Uiso   1.00
H307   H     0.25391   0.78105   0.04732   0.00000  Uiso   1.00
H308   H     0.33528   0.66162   0.04109   0.00000  Uiso   1.00
H309   H     0.18785   0.80808   0.10077   0.00000  Uiso   1.00
H310   H     0.22127   0.86095   0.99796   0.00000  Uiso   1.00
H311   H     0.45276   0.54893   0.03759   0.00000  Uiso   1.00
H312   H     0.14189   0.85776   0.16343   0.00000  Uiso   1.00
H313   H     0.21237   0.96926   0.94663   0.00000  Uiso   1.00
O314   O     0.60008   0.53815   0.04517   0.00000  Uiso   1.00
O315   O     0.19223   0.94333   0.21026   0.00000  Uiso   1.00
O316   O     0.28469   0.08961   0.92582   0.00000  Uiso   1.00
N317   N     0.57923   0.66479   0.05556   0.00000  Uiso   1.00
N318   N     0.28859   0.95352   0.17321   0.00000  Uiso   1.00
N319   N     0.35447   0.05777   0.97052   0.00000  Uiso   1.00
N320   N     0.48238   0.59479   0.04351   0.00000  Uiso   1.00
N321   N     0.19174   0.88352   0.16116   0.00000  Uiso   1.00
N322   N     0.25762   0.98778   0.95848   0.00000  Uiso   1.00
C323   C     0.91598   0.39817   0.56748   0.00000  Uiso   1.00
C324   C     0.93730   0.31675   0.56124   0.00000  Uiso   1.00
C325   C     0.00918   0.28728   0.56272   0.00000  Uiso   1.00
C326   C     0.01702   0.21142   0.55622   0.00000  Uiso   1.00
C327   C     0.05954   0.09179   0.54773   0.00000  Uiso   1.00
C328   C     0.85721   0.39631   0.59367   0.00000  Uiso   1.00
C329   C     0.86174   0.43375   0.62241   0.00000  Uiso   1.00
C330   C     0.80214   0.42488   0.64321   0.00000  Uiso   1.00
C331   C     0.72028   0.42881   0.68505   0.00000  Uiso   1.00
C332   C     0.87537   0.42504   0.53781   0.00000  Uiso   1.00
C333   C     0.89516   0.48664   0.51958   0.00000  Uiso   1.00
C334   C     0.85085   0.50196   0.49335   0.00000  Uiso   1.00
C335   C     0.79719   0.55050   0.44846   0.00000  Uiso   1.00
C336   C     0.80208   0.31586   0.55331   0.00000  Uiso   1.00
C337   C     0.87543   0.27204   0.55355   0.00000  Uiso   1.00
C338   C     0.88316   0.19621   0.54704   0.00000  Uiso   1.00
C339   C     0.95504   0.16663   0.54851   0.00000  Uiso   1.00
C340   C     0.79534   0.35161   0.58598   0.00000  Uiso   1.00
C341   C     0.73572   0.34268   0.60674   0.00000  Uiso   1.00
C342   C     0.74016   0.38009   0.63550   0.00000  Uiso   1.00
C343   C     0.81350   0.38033   0.53011   0.00000  Uiso   1.00
C344   C     0.76915   0.39556   0.50391   0.00000  Uiso   1.00
C345   C     0.78887   0.45717   0.48564   0.00000  Uiso   1.00
H346   H     0.96414   0.43298   0.57347   0.00000  Uiso   1.00
H347   H     0.05705   0.32190   0.56868   0.00000  Uiso   1.00
H348   H     0.90962   0.46835   0.62836   0.00000  Uiso   1.00
H349   H     0.94304   0.52122   0.52554   0.00000  Uiso   1.00
H350   H     0.13276   0.17901   0.55998   0.00000  Uiso   1.00
H351   H     0.82189   0.48784   0.68582   0.00000  Uiso   1.00
H352   H     0.89237   0.59934   0.46901   0.00000  Uiso   1.00
H353   H     0.75391   0.28105   0.54732   0.00000  Uiso   1.00
H354   H     0.83528   0.16162   0.54109   0.00000  Uiso   1.00
H355   H     0.68785   0.30808   0.60077   0.00000  Uiso   1.00
H356   H     0.72127   0.36095   0.49796   0.00000  Uiso   1.00
H357   H     0.95276   0.04893   0.53759   0.00000  Uiso   1.00
H358   H     0.64189   0.35776   0.66343   0.00000  Uiso   1.00
H359   H     0.71237   0.46926   0.44663   0.00000  Uiso   1.00
O360   O     0.10008   0.03815   0.54517   0.00000  Uiso   1.00
O361   O     0.69223   0.44333   0.71026   0.00000  Uiso   1.00
O362   O     0.78469   0.58961   0.42582   0.00000  Uiso   1.00
N363   N     0.07923   0.16479   0.55556   0.00000  Uiso   1.00
N364   N     0.78859   0.45352   0.67321   0.00000  Uiso   1.00
N365   N     0.85447   0.55777   0.47052   0.00000  Uiso   1.00
N366   N     0.98238   0.09479   0.54351   0.00000  Uiso   1.00
N367   N     0.69174   0.38352   0.66116   0.00000  Uiso   1.00
N368   N     0.75762   0.48778   0.45848   0.00000  Uiso   1.00
C369   C     0.60183   0.58402   0.81748   0.00000  Uiso   1.00
C370   C     0.68325   0.56270   0.81124   0.00000  Uiso   1.00
C371   C     0.71272   0.49082   0.81272   0.00000  Uiso   1.00
C372   C     0.78858   0.48298   0.80622   0.00000  Uiso   1.00
C373   C     0.90821   0.44046   0.79773   0.00000  Uiso   1.00
C374   C     0.60369   0.64279   0.84367   0.00000  Uiso   1.00
C375   C     0.56625   0.63826   0.87241   0.00000  Uiso   1.00
C376   C     0.57512   0.69786   0.89321   0.00000  Uiso   1.00
C377   C     0.57119   0.77972   0.93505   0.00000  Uiso   1.00
C378   C     0.57496   0.62463   0.78781   0.00000  Uiso   1.00
C379   C     0.51336   0.60484   0.76958   0.00000  Uiso   1.00
C380   C     0.49804   0.64915   0.74335   0.00000  Uiso   1.00
C381   C     0.44950   0.70281   0.69846   0.00000  Uiso   1.00
C382   C     0.68414   0.69792   0.80331   0.00000  Uiso   1.00
C383   C     0.72796   0.62457   0.80355   0.00000  Uiso   1.00
C384   C     0.80379   0.61684   0.79704   0.00000  Uiso   1.00
C385   C     0.83337   0.54496   0.79851   0.00000  Uiso   1.00
C386   C     0.64839   0.70466   0.83598   0.00000  Uiso   1.00
C387   C     0.65732   0.76428   0.85674   0.00000  Uiso   1.00
C388   C     0.61991   0.75984   0.88550   0.00000  Uiso   1.00
C389   C     0.61967   0.68650   0.78011   0.00000  Uiso   1.00
C390   C     0.60444   0.73085   0.75391   0.00000  Uiso   1.00
C391   C     0.54283   0.71113   0.73564   0.00000  Uiso   1.00
H392   H     0.56702   0.53586   0.82347   0.00000  Uiso   1.00
H393   H     0.67810   0.44295   0.81868   0.00000  Uiso   1.00
H394   H     0.53165   0.59038   0.87836   0.00000  Uiso   1.00
H395   H     0.47878   0.55696   0.77554   0.00000  Uiso   1.00
H396   H     0.82099   0.36724   0.80998   0.00000  Uiso   1.00
H397   H     0.51216   0.67811   0.93582   0.00000  Uiso   1.00
H398   H     0.40066   0.60763   0.71901   0.00000  Uiso   1.00
H399   H     0.71895   0.74609   0.79732   0.00000  Uiso   1.00
H400   H     0.83838   0.66472   0.79109   0.00000  Uiso   1.00
H401   H     0.69192   0.81215   0.85077   0.00000  Uiso   1.00
H402   H     0.63905   0.77873   0.74796   0.00000  Uiso   1.00
H403   H     0.95107   0.54724   0.78759   0.00000  Uiso   1.00
H404   H     0.64224   0.85811   0.91343   0.00000  Uiso   1.00
H405   H     0.53074   0.78763   0.69663   0.00000  Uiso   1.00
O406   O     0.96185   0.39992   0.79517   0.00000  Uiso   1.00
O407   O     0.55667   0.80777   0.96026   0.00000  Uiso   1.00
O408   O     0.41039   0.71531   0.67582   0.00000  Uiso   1.00
N409   N     0.83521   0.42077   0.80556   0.00000  Uiso   1.00
N410   N     0.54648   0.71141   0.92321   0.00000  Uiso   1.00
N411   N     0.44223   0.64553   0.72052   0.00000  Uiso   1.00
N412   N     0.90521   0.51762   0.79351   0.00000  Uiso   1.00
N413   N     0.61648   0.80826   0.91116   0.00000  Uiso   1.00
N414   N     0.51222   0.74238   0.70848   0.00000  Uiso   1.00
C415   C     0.10183   0.08402   0.31748   0.00000  Uiso   1.00
C416   C     0.18325   0.06270   0.31124   0.00000  Uiso   1.00
C417   C     0.21272   0.99082   0.31272   0.00000  Uiso   1.00
C418   C     0.28858   0.98298   0.30622   0.00000  Uiso   1.00
C419   C     0.40821   0.94046   0.29773   0.00000  Uiso   1.00
C420   C     0.10369   0.14279   0.34367   0.00000  Uiso   1.00
C421   C     0.06625   0.13826   0.37241   0.00000  Uiso   1.00
C422   C     0.07512   0.19786   0.39321   0.00000  Uiso   1.00
C423   C     0.07119   0.27972   0.43505   0.00000  Uiso   1.00
C424   C     0.07496   0.12463   0.28781   0.00000  Uiso   1.00
C425   C     0.01336   0.10484   0.26958   0.00000  Uiso   1.00
C426   C     0.99804   0.14915   0.24335   0.00000  Uiso   1.00
C427   C     0.94950   0.20281   0.19846   0.00000  Uiso   1.00
C428   C     0.18414   0.19792   0.30331   0.00000  Uiso   1.00
C429   C     0.22796   0.12457   0.30355   0.00000  Uiso   1.00
C430   C     0.30379   0.11684   0.29704   0.00000  Uiso   1.00
C431   C     0.33337   0.04496   0.29851   0.00000  Uiso   1.00
C432   C     0.14839   0.20466   0.33598   0.00000  Uiso   1.00
C433   C     0.15732   0.26428   0.35674   0.00000  Uiso   1.00
C434   C     0.11991   0.25984   0.38550   0.00000  Uiso   1.00
C435   C     0.11967   0.18650   0.28011   0.00000  Uiso   1.00
C436   C     0.10444   0.23085   0.25391   0.00000  Uiso   1.00
C437   C     0.04283   0.21113   0.23564   0.00000  Uiso   1.00
H438   H     0.06702   0.03586   0.32347   0.00000  Uiso   1.00
H439   H     0.17810   0.94295   0.31868   0.00000  Uiso   1.00
H440   H     0.03165   0.09038   0.37836   0.00000  Uiso   1.00
H441   H     0.97878   0.05696   0.27554   0.00000  Uiso   1.00
H442   H     0.32099   0.86724   0.30998   0.00000  Uiso   1.00
H443   H     0.01216   0.17811   0.43582   0.00000  Uiso   1.00
H444   H     0.90066   0.10763   0.21901   0.00000  Uiso   1.00
H445   H     0.21895   0.24609   0.29732   0.00000  Uiso   1.00
H446   H     0.33838   0.16472   0.29109   0.00000  Uiso   1.00
H447   H     0.19192   0.31215   0.35077   0.00000  Uiso   1.00
H448   H     0.13905   0.27873   0.24796   0.00000  Uiso   1.00
H449   H     0.45107   0.04724   0.28759   0.00000  Uiso   1.00
H450   H     0.14224   0.35811   0.41343   0.00000  Uiso   1.00
H451   H     0.03074   0.28763   0.19663   0.00000  Uiso   1.00
O452   O     0.46185   0.89992   0.29517   0.00000  Uiso   1.00
O453   O     0.05667   0.30777   0.46026   0.00000  Uiso   1.00
O454   O     0.91039   0.21531   0.17582   0.00000  Uiso   1.00
N455   N     0.33521   0.92077   0.30556   0.00000  Uiso   1.00
N456   N     0.04648   0.21141   0.42321   0.00000  Uiso   1.00
N457   N     0.94223   0.14553   0.22052   0.00000  Uiso   1.00
N458   N     0.40521   0.01762   0.29351   0.00000  Uiso   1.00
N459   N     0.11648   0.30826   0.41116   0.00000  Uiso   1.00
N460   N     0.01222   0.24238   0.20848   0.00000  Uiso   1.00
C461   C     0.39817   0.41598   0.81748   0.00000  Uiso   1.00
C462   C     0.31675   0.43730   0.81124   0.00000  Uiso   1.00
C463   C     0.28728   0.50918   0.81272   0.00000  Uiso   1.00
C464   C     0.21142   0.51702   0.80622   0.00000  Uiso   1.00
C465   C     0.09179   0.55954   0.79773   0.00000  Uiso   1.00
C466   C     0.39631   0.35721   0.84367   0.00000  Uiso   1.00
C467   C     0.43375   0.36174   0.87241   0.00000  Uiso   1.00
C468   C     0.42488   0.30214   0.89321   0.00000  Uiso   1.00
C469   C     0.42881   0.22028   0.93505   0.00000  Uiso   1.00
C470   C     0.42504   0.37537   0.78781   0.00000  Uiso   1.00
C471   C     0.48664   0.39516   0.76958   0.00000  Uiso   1.00
C472   C     0.50196   0.35085   0.74335   0.00000  Uiso   1.00
C473   C     0.55050   0.29719   0.69846   0.00000  Uiso   1.00
C474   C     0.31586   0.30208   0.80331   0.00000  Uiso   1.00
C475   C     0.27204   0.37543   0.80355   0.00000  Uiso   1.00
C476   C     0.19621   0.38316   0.79704   0.00000  Uiso   1.00
C477   C     0.16663   0.45504   0.79851   0.00000  Uiso   1.00
C478   C     0.35161   0.29534   0.83598   0.00000  Uiso   1.00
C479   C     0.34268   0.23572   0.85674   0.00000  Uiso   1.00
C480   C     0.38009   0.24016   0.88550   0.00000  Uiso   1.00
C481   C     0.38033   0.31350   0.78011   0.00000  Uiso   1.00
C482   C     0.39556   0.26915   0.75391   0.00000  Uiso   1.00
C483   C     0.45717   0.28887   0.73564   0.00000  Uiso   1.00
H484   H     0.43298   0.46414   0.82347   0.00000  Uiso   1.00
H485   H     0.32190   0.55705   0.81868   0.00000  Uiso   1.00
H486   H     0.46835   0.40962   0.87836   0.00000  Uiso   1.00
H487   H     0.52122   0.44304   0.77554   0.00000  Uiso   1.00
H488   H     0.17901   0.63276   0.80998   0.00000  Uiso   1.00
H489   H     0.48784   0.32189   0.93582   0.00000  Uiso   1.00
H490   H     0.59934   0.39237   0.71901   0.00000  Uiso   1.00
H491   H     0.28105   0.25391   0.79732   0.00000  Uiso   1.00
H492   H     0.16162   0.33528   0.79109   0.00000  Uiso   1.00
H493   H     0.30808   0.18785   0.85077   0.00000  Uiso   1.00
H494   H     0.36095   0.22127   0.74796   0.00000  Uiso   1.00
H495   H     0.04893   0.45276   0.78759   0.00000  Uiso   1.00
H496   H     0.35776   0.14189   0.91343   0.00000  Uiso   1.00
H497   H     0.46926   0.21237   0.69663   0.00000  Uiso   1.00
O498   O     0.03815   0.60008   0.79517   0.00000  Uiso   1.00
O499   O     0.44333   0.19223   0.96026   0.00000  Uiso   1.00
O500   O     0.58961   0.28469   0.67582   0.00000  Uiso   1.00
N501   N     0.16479   0.57923   0.80556   0.00000  Uiso   1.00
N502   N     0.45352   0.28859   0.92321   0.00000  Uiso   1.00
N503   N     0.55777   0.35447   0.72052   0.00000  Uiso   1.00
N504   N     0.09479   0.48238   0.79351   0.00000  Uiso   1.00
N505   N     0.38352   0.19174   0.91116   0.00000  Uiso   1.00
N506   N     0.48778   0.25762   0.70848   0.00000  Uiso   1.00
C507   C     0.89817   0.91598   0.31748   0.00000  Uiso   1.00
C508   C     0.81675   0.93730   0.31124   0.00000  Uiso   1.00
C509   C     0.78728   0.00918   0.31272   0.00000  Uiso   1.00
C510   C     0.71142   0.01702   0.30622   0.00000  Uiso   1.00
C511   C     0.59179   0.05954   0.29773   0.00000  Uiso   1.00
C512   C     0.89631   0.85721   0.34367   0.00000  Uiso   1.00
C513   C     0.93375   0.86174   0.37241   0.00000  Uiso   1.00
C514   C     0.92488   0.80214   0.39321   0.00000  Uiso   1.00
C515   C     0.92881   0.72028   0.43505   0.00000  Uiso   1.00
C516   C     0.92504   0.87537   0.28781   0.00000  Uiso   1.00
C517   C     0.98664   0.89516   0.26958   0.00000  Uiso   1.00
C518   C     0.00196   0.85085   0.24335   0.00000  Uiso   1.00
C519   C     0.05050   0.79719   0.19846   0.00000  Uiso   1.00
C520   C     0.81586   0.80208   0.30331   0.00000  Uiso   1.00
C521   C     0.77204   0.87543   0.30355   0.00000  Uiso   1.00
C522   C     0.69621   0.88316   0.29704   0.00000  Uiso   1.00
C523   C     0.66663   0.95504   0.29851   0.00000  Uiso   1.00
C524   C     0.85161   0.79534   0.33598   0.00000  Uiso   1.00
C525   C     0.84268   0.73572   0.35674   0.00000  Uiso   1.00
C526   C     0.88009   0.74016   0.38550   0.00000  Uiso   1.00
C527   C     0.88033   0.81350   0.28011   0.00000  Uiso   1.00
C528   C     0.89556   0.76915   0.25391   0.00000  Uiso   1.00
C529   C     0.95717   0.78887   0.23564   0.00000  Uiso   1.00
H530   H     0.93298   0.96414   0.32347   0.00000  Uiso   1.00
H531   H     0.82190   0.05705   0.31868   0.00000  Uiso   1.00
H532   H     0.96835   0.90962   0.37836   0.00000  Uiso   1.00
H533   H     0.02122   0.94304   0.27554   0.00000  Uiso   1.00
H534   H     0.67901   0.13276   0.30998   0.00000  Uiso   1.00
H535   H     0.98784   0.82189   0.43582   0.00000  Uiso   1.00
H536   H     0.09934   0.89237   0.21901   0.00000  Uiso   1.00
H537   H     0.78105   0.75391   0.29732   0.00000  Uiso   1.00
H538   H     0.66162   0.83528   0.29109   0.00000  Uiso   1.00
H539   H     0.80808   0.68785   0.35077   0.00000  Uiso   1.00
H540   H     0.86095   0.72127   0.24796   0.00000  Uiso   1.00
H541   H     0.54893   0.95276   0.28759   0.00000  Uiso   1.00
H542   H     0.85776   0.64189   0.41343   0.00000  Uiso   1.00
H543   H     0.96926   0.71237   0.19663   0.00000  Uiso   1.00
O544   O     0.53815   0.10008   0.29517   0.00000  Uiso   1.00
O545   O     0.94333   0.69223   0.46026   0.00000  Uiso   1.00
O546   O     0.08961   0.78469   0.17582   0.00000  Uiso   1.00
N547   N     0.66479   0.07923   0.30556   0.00000  Uiso   1.00
N548   N     0.95352   0.78859   0.42321   0.00000  Uiso   1.00
N549   N     0.05777   0.85447   0.22052   0.00000  Uiso   1.00
N550   N     0.59479   0.98238   0.29351   0.00000  Uiso   1.00
N551   N     0.88352   0.69174   0.41116   0.00000  Uiso   1.00
N552   N     0.98778   0.75762   0.20848   0.00000  Uiso   1.00
C553   C     0.91598   0.10183   0.68252   0.00000  Uiso   1.00
C554   C     0.93730   0.18325   0.68876   0.00000  Uiso   1.00
C555   C     0.00918   0.21272   0.68728   0.00000  Uiso   1.00
C556   C     0.01702   0.28858   0.69378   0.00000  Uiso   1.00
C557   C     0.05954   0.40821   0.70227   0.00000  Uiso   1.00
C558   C     0.85721   0.10369   0.65633   0.00000  Uiso   1.00
C559   C     0.86174   0.06625   0.62759   0.00000  Uiso   1.00
C560   C     0.80214   0.07512   0.60679   0.00000  Uiso   1.00
C561   C     0.72028   0.07119   0.56495   0.00000  Uiso   1.00
C562   C     0.87537   0.07496   0.71219   0.00000  Uiso   1.00
C563   C     0.89516   0.01336   0.73042   0.00000  Uiso   1.00
C564   C     0.85085   0.99804   0.75665   0.00000  Uiso   1.00
C565   C     0.79719   0.94950   0.80154   0.00000  Uiso   1.00
C566   C     0.80208   0.18414   0.69669   0.00000  Uiso   1.00
C567   C     0.87543   0.22796   0.69645   0.00000  Uiso   1.00
C568   C     0.88316   0.30379   0.70296   0.00000  Uiso   1.00
C569   C     0.95504   0.33337   0.70149   0.00000  Uiso   1.00
C570   C     0.79534   0.14839   0.66402   0.00000  Uiso   1.00
C571   C     0.73572   0.15732   0.64326   0.00000  Uiso   1.00
C572   C     0.74016   0.11991   0.61450   0.00000  Uiso   1.00
C573   C     0.81350   0.11967   0.71989   0.00000  Uiso   1.00
C574   C     0.76915   0.10444   0.74609   0.00000  Uiso   1.00
C575   C     0.78887   0.04283   0.76436   0.00000  Uiso   1.00
H576   H     0.96414   0.06702   0.67653   0.00000  Uiso   1.00
H577   H     0.05705   0.17810   0.68132   0.00000  Uiso   1.00
H578   H     0.90962   0.03165   0.62164   0.00000  Uiso   1.00
H579   H     0.94304   0.97878   0.72446   0.00000  Uiso   1.00
H580   H     0.13276   0.32099   0.69002   0.00000  Uiso   1.00
H581   H     0.82189   0.01216   0.56418   0.00000  Uiso   1.00
H582   H     0.89237   0.90066   0.78099   0.00000  Uiso   1.00
H583   H     0.75391   0.21895   0.70268   0.00000  Uiso   1.00
H584   H     0.83528   0.33838   0.70891   0.00000  Uiso   1.00
H585   H     0.68785   0.19192   0.64923   0.00000  Uiso   1.00
H586   H     0.72127   0.13905   0.75204   0.00000  Uiso   1.00
H587   H     0.95276   0.45107   0.71241   0.00000  Uiso   1.00
H588   H     0.64189   0.14224   0.58657   0.00000  Uiso   1.00
H589   H     0.71237   0.03074   0.80337   0.00000  Uiso   1.00
O590   O     0.10008   0.46185   0.70483   0.00000  Uiso   1.00
O591   O     0.69223   0.05667   0.53974   0.00000  Uiso   1.00
O592   O     0.78469   0.91039   0.82418   0.00000  Uiso   1.00
N593   N     0.07923   0.33521   0.69444   0.00000  Uiso   1.00
N594   N     0.78859   0.04648   0.57679   0.00000  Uiso   1.00
N595   N     0.85447   0.94223   0.77948   0.00000  Uiso   1.00
N596   N     0.98238   0.40521   0.70649   0.00000  Uiso   1.00
N597   N     0.69174   0.11648   0.58884   0.00000  Uiso   1.00
N598   N     0.75762   0.01222   0.79152   0.00000  Uiso   1.00
C599   C     0.41598   0.60183   0.18252   0.00000  Uiso   1.00
C600   C     0.43730   0.68325   0.18876   0.00000  Uiso   1.00
C601   C     0.50918   0.71272   0.18728   0.00000  Uiso   1.00
C602   C     0.51702   0.78858   0.19378   0.00000  Uiso   1.00
C603   C     0.55954   0.90821   0.20227   0.00000  Uiso   1.00
C604   C     0.35721   0.60369   0.15633   0.00000  Uiso   1.00
C605   C     0.36174   0.56625   0.12759   0.00000  Uiso   1.00
C606   C     0.30214   0.57512   0.10679   0.00000  Uiso   1.00
C607   C     0.22028   0.57119   0.06495   0.00000  Uiso   1.00
C608   C     0.37537   0.57496   0.21219   0.00000  Uiso   1.00
C609   C     0.39516   0.51336   0.23042   0.00000  Uiso   1.00
C610   C     0.35085   0.49804   0.25665   0.00000  Uiso   1.00
C611   C     0.29719   0.44950   0.30154   0.00000  Uiso   1.00
C612   C     0.30208   0.68414   0.19669   0.00000  Uiso   1.00
C613   C     0.37543   0.72796   0.19645   0.00000  Uiso   1.00
C614   C     0.38316   0.80379   0.20296   0.00000  Uiso   1.00
C615   C     0.45504   0.83337   0.20149   0.00000  Uiso   1.00
C616   C     0.29534   0.64839   0.16402   0.00000  Uiso   1.00
C617   C     0.23572   0.65732   0.14326   0.00000  Uiso   1.00
C618   C     0.24016   0.61991   0.11450   0.00000  Uiso   1.00
C619   C     0.31350   0.61967   0.21989   0.00000  Uiso   1.00
C620   C     0.26915   0.60444   0.24609   0.00000  Uiso   1.00
C621   C     0.28887   0.54283   0.26436   0.00000  Uiso   1.00
H622   H     0.46414   0.56702   0.17653   0.00000  Uiso   1.00
H623   H     0.55705   0.67810   0.18132   0.00000  Uiso   1.00
H624   H     0.40962   0.53165   0.12164   0.00000  Uiso   1.00
H625   H     0.44304   0.47878   0.22446   0.00000  Uiso   1.00
H626   H     0.63276   0.82099   0.19002   0.00000  Uiso   1.00
H627   H     0.32189   0.51216   0.06418   0.00000  Uiso   1.00
H628   H     0.39237   0.40066   0.28099   0.00000  Uiso   1.00
H629   H     0.25391   0.71895   0.20268   0.00000  Uiso   1.00
H630   H     0.33528   0.83838   0.20891   0.00000  Uiso   1.00
H631   H     0.18785   0.69192   0.14923   0.00000  Uiso   1.00
H632   H     0.22127   0.63905   0.25204   0.00000  Uiso   1.00
H633   H     0.45276   0.95107   0.21241   0.00000  Uiso   1.00
H634   H     0.14189   0.64224   0.08657   0.00000  Uiso   1.00
H635   H     0.21237   0.53074   0.30337   0.00000  Uiso   1.00
O636   O     0.60008   0.96185   0.20483   0.00000  Uiso   1.00
O637   O     0.19223   0.55667   0.03974   0.00000  Uiso   1.00
O638   O     0.28469   0.41039   0.32418   0.00000  Uiso   1.00
N639   N     0.57923   0.83521   0.19444   0.00000  Uiso   1.00
N640   N     0.28859   0.54648   0.07679   0.00000  Uiso   1.00
N641   N     0.35447   0.44223   0.27948   0.00000  Uiso   1.00
N642   N     0.48238   0.90521   0.20649   0.00000  Uiso   1.00
N643   N     0.19174   0.61648   0.08884   0.00000  Uiso   1.00
N644   N     0.25762   0.51222   0.29152   0.00000  Uiso   1.00
C645   C     0.08402   0.89817   0.68252   0.00000  Uiso   1.00
C646   C     0.06270   0.81675   0.68876   0.00000  Uiso   1.00
C647   C     0.99082   0.78728   0.68728   0.00000  Uiso   1.00
C648   C     0.98298   0.71142   0.69378   0.00000  Uiso   1.00
C649   C     0.94046   0.59179   0.70227   0.00000  Uiso   1.00
C650   C     0.14279   0.89631   0.65633   0.00000  Uiso   1.00
C651   C     0.13826   0.93375   0.62759   0.00000  Uiso   1.00
C652   C     0.19786   0.92488   0.60679   0.00000  Uiso   1.00
C653   C     0.27972   0.92881   0.56495   0.00000  Uiso   1.00
C654   C     0.12463   0.92504   0.71219   0.00000  Uiso   1.00
C655   C     0.10484   0.98664   0.73042   0.00000  Uiso   1.00
C656   C     0.14915   0.00196   0.75665   0.00000  Uiso   1.00
C657   C     0.20281   0.05050   0.80154   0.00000  Uiso   1.00
C658   C     0.19792   0.81586   0.69669   0.00000  Uiso   1.00
C659   C     0.12457   0.77204   0.69645   0.00000  Uiso   1.00
C660   C     0.11684   0.69621   0.70296   0.00000  Uiso   1.00
C661   C     0.04496   0.66663   0.70149   0.00000  Uiso   1.00
C662   C     0.20466   0.85161   0.66402   0.00000  Uiso   1.00
C663   C     0.26428   0.84268   0.64326   0.00000  Uiso   1.00
C664   C     0.25984   0.88009   0.61450   0.00000  Uiso   1.00
C665   C     0.18650   0.88033   0.71989   0.00000  Uiso   1.00
C666   C     0.23085   0.89556   0.74609   0.00000  Uiso   1.00
C667   C     0.21113   0.95717   0.76436   0.00000  Uiso   1.00
H668   H     0.03586   0.93298   0.67653   0.00000  Uiso   1.00
H669   H     0.94295   0.82190   0.68132   0.00000  Uiso   1.00
H670   H     0.09038   0.96835   0.62164   0.00000  Uiso   1.00
H671   H     0.05696   0.02122   0.72446   0.00000  Uiso   1.00
H672   H     0.86724   0.67901   0.69002   0.00000  Uiso   1.00
H673   H     0.17811   0.98784   0.56418   0.00000  Uiso   1.00
H674   H     0.10763   0.09934   0.78099   0.00000  Uiso   1.00
H675   H     0.24609   0.78105   0.70268   0.00000  Uiso   1.00
H676   H     0.16472   0.66162   0.70891   0.00000  Uiso   1.00
H677   H     0.31215   0.80808   0.64923   0.00000  Uiso   1.00
H678   H     0.27873   0.86095   0.75204   0.00000  Uiso   1.00
H679   H     0.04724   0.54893   0.71241   0.00000  Uiso   1.00
H680   H     0.35811   0.85776   0.58657   0.00000  Uiso   1.00
H681   H     0.28763   0.96926   0.80337   0.00000  Uiso   1.00
O682   O     0.89992   0.53815   0.70483   0.00000  Uiso   1.00
O683   O     0.30777   0.94333   0.53974   0.00000  Uiso   1.00
O684   O     0.21531   0.08961   0.82418   0.00000  Uiso   1.00
N685   N     0.92077   0.66479   0.69444   0.00000  Uiso   1.00
N686   N     0.21141   0.95352   0.57679   0.00000  Uiso   1.00
N687   N     0.14553   0.05777   0.77948   0.00000  Uiso   1.00
N688   N     0.01762   0.59479   0.70649   0.00000  Uiso   1.00
N689   N     0.30826   0.88352   0.58884   0.00000  Uiso   1.00
N690   N     0.24238   0.98778   0.79152   0.00000  Uiso   1.00
C691   C     0.58402   0.39817   0.18252   0.00000  Uiso   1.00
C692   C     0.56270   0.31675   0.18876   0.00000  Uiso   1.00
C693   C     0.49082   0.28728   0.18728   0.00000  Uiso   1.00
C694   C     0.48298   0.21142   0.19378   0.00000  Uiso   1.00
C695   C     0.44046   0.09179   0.20227   0.00000  Uiso   1.00
C696   C     0.64279   0.39631   0.15633   0.00000  Uiso   1.00
C697   C     0.63826   0.43375   0.12759   0.00000  Uiso   1.00
C698   C     0.69786   0.42488   0.10679   0.00000  Uiso   1.00
C699   C     0.77972   0.42881   0.06495   0.00000  Uiso   1.00
C700   C     0.62463   0.42504   0.21219   0.00000  Uiso   1.00
C701   C     0.60484   0.48664   0.23042   0.00000  Uiso   1.00
C702   C     0.64915   0.50196   0.25665   0.00000  Uiso   1.00
C703   C     0.70281   0.55050   0.30154   0.00000  Uiso   1.00
C704   C     0.69792   0.31586   0.19669   0.00000  Uiso   1.00
C705   C     0.62457   0.27204   0.19645   0.00000  Uiso   1.00
C706   C     0.61684   0.19621   0.20296   0.00000  Uiso   1.00
C707   C     0.54496   0.16663   0.20149   0.00000  Uiso   1.00
C708   C     0.70466   0.35161   0.16402   0.00000  Uiso   1.00
C709   C     0.76428   0.34268   0.14326   0.00000  Uiso   1.00
C710   C     0.75984   0.38009   0.11450   0.00000  Uiso   1.00
C711   C     0.68650   0.38033   0.21989   0.00000  Uiso   1.00
C712   C     0.73085   0.39556   0.24609   0.00000  Uiso   1.00
C713   C     0.71113   0.45717   0.26436   0.00000  Uiso   1.00
H714   H     0.53586   0.43298   0.17653   0.00000  Uiso   1.00
H715   H     0.44295   0.32190   0.18132   0.00000  Uiso   1.00
H716   H     0.59038   0.46835   0.12164   0.00000  Uiso   1.00
H717   H     0.55696   0.52122   0.22446   0.00000  Uiso   1.00
H718   H     0.36724   0.17901   0.19002   0.00000  Uiso   1.00
H719   H     0.67811   0.48784   0.06418   0.00000  Uiso   1.00
H720   H     0.60763   0.59934   0.28099   0.00000  Uiso   1.00
H721   H     0.74609   0.28105   0.20268   0.00000  Uiso   1.00
H722   H     0.66472   0.16162   0.20891   0.00000  Uiso   1.00
H723   H     0.81215   0.30808   0.14923   0.00000  Uiso   1.00
H724   H     0.77873   0.36095   0.25204   0.00000  Uiso   1.00
H725   H     0.54724   0.04893   0.21241   0.00000  Uiso   1.00
H726   H     0.85811   0.35776   0.08657   0.00000  Uiso   1.00
H727   H     0.78763   0.46926   0.30337   0.00000  Uiso   1.00
O728   O     0.39992   0.03815   0.20483   0.00000  Uiso   1.00
O729   O     0.80777   0.44333   0.03974   0.00000  Uiso   1.00
O730   O     0.71531   0.58961   0.32418   0.00000  Uiso   1.00
N731   N     0.42077   0.16479   0.19444   0.00000  Uiso   1.00
N732   N     0.71141   0.45352   0.07679   0.00000  Uiso   1.00
N733   N     0.64553   0.55777   0.27948   0.00000  Uiso   1.00
N734   N     0.51762   0.09479   0.20649   0.00000  Uiso   1.00
N735   N     0.80826   0.38352   0.08884   0.00000  Uiso   1.00
N736   N     0.74238   0.48778   0.29152   0.00000  Uiso   1.00
