data_job_04058
_audit_creation_date              2018-12-19
_audit_creation_method            'Materials Studio'
_symmetry_space_group_name_H-M    'P1'
_symmetry_Int_Tables_number       1
_symmetry_cell_setting            triclinic
loop_
_symmetry_equiv_pos_as_xyz
  x,y,z
_cell_length_a                    18.6445
_cell_length_b                    18.6445
_cell_length_c                    29.9786
_cell_angle_alpha                 90.0000
_cell_angle_beta                  90.0000
_cell_angle_gamma                 90.0000
loop_
_atom_site_label
_atom_site_type_symbol
_atom_site_fract_x
_atom_site_fract_y
_atom_site_fract_z
_atom_site_U_iso_or_equiv
_atom_site_adp_type
_atom_site_occupancy
C1     C     0.67899   0.63991   0.72291   0.00000  Uiso   1.00
C2     C     0.62935   0.68880   0.74955   0.00000  Uiso   1.00
C3     C     0.60477   0.75561   0.73603   0.00000  Uiso   1.00
C4     C     0.55978   0.79196   0.76520   0.00000  Uiso   1.00
C5     C     0.48572   0.87238   0.80031   0.00000  Uiso   1.00
C6     C     0.74330   0.62508   0.75295   0.00000  Uiso   1.00
C7     C     0.81452   0.63830   0.74229   0.00000  Uiso   1.00
C8     C     0.86545   0.62099   0.77432   0.00000  Uiso   1.00
C9     C     0.96830   0.60243   0.81470   0.00000  Uiso   1.00
C10    C     0.63952   0.56868   0.71819   0.00000  Uiso   1.00
C11    C     0.62350   0.53446   0.67831   0.00000  Uiso   1.00
C12    C     0.58708   0.46966   0.68107   0.00000  Uiso   1.00
C13    C     0.52880   0.36352   0.66749   0.00000  Uiso   1.00
C14    C     0.64280   0.58566   0.79875   0.00000  Uiso   1.00
C15    C     0.60970   0.65934   0.79075   0.00000  Uiso   1.00
C16    C     0.56473   0.69559   0.81994   0.00000  Uiso   1.00
C17    C     0.54008   0.76244   0.80647   0.00000  Uiso   1.00
C18    C     0.72365   0.59561   0.79415   0.00000  Uiso   1.00
C19    C     0.77448   0.57828   0.82620   0.00000  Uiso   1.00
C20    C     0.84576   0.59147   0.81559   0.00000  Uiso   1.00
C21    C     0.61987   0.53921   0.75939   0.00000  Uiso   1.00
C22    C     0.58346   0.47445   0.76222   0.00000  Uiso   1.00
C23    C     0.56739   0.44014   0.72234   0.00000  Uiso   1.00
H24    H     0.69430   0.66285   0.69084   0.00000  Uiso   1.00
H25    H     0.62000   0.77840   0.70415   0.00000  Uiso   1.00
H26    H     0.82971   0.66109   0.71041   0.00000  Uiso   1.00
H27    H     0.63872   0.55728   0.64643   0.00000  Uiso   1.00
H28    H     0.52897   0.89352   0.73709   0.00000  Uiso   1.00
H29    H     0.97117   0.64616   0.75027   0.00000  Uiso   1.00
H30    H     0.56844   0.42724   0.61537   0.00000  Uiso   1.00
H31    H     0.62750   0.56272   0.83082   0.00000  Uiso   1.00
H32    H     0.54953   0.67278   0.85182   0.00000  Uiso   1.00
H33    H     0.75925   0.55547   0.85807   0.00000  Uiso   1.00
H34    H     0.56826   0.45166   0.79410   0.00000  Uiso   1.00
H35    H     0.47178   0.80780   0.85694   0.00000  Uiso   1.00
H36    H     0.91399   0.56043   0.87012   0.00000  Uiso   1.00
H37    H     0.51125   0.34152   0.73522   0.00000  Uiso   1.00
O38    O     0.45031   0.92488   0.80830   0.00000  Uiso   1.00
O39    O     0.03046   0.60033   0.82560   0.00000  Uiso   1.00
O40    O     0.50208   0.31313   0.64861   0.00000  Uiso   1.00
N41    N     0.52620   0.85824   0.76241   0.00000  Uiso   1.00
N42    N     0.93963   0.62698   0.77474   0.00000  Uiso   1.00
N43    N     0.56313   0.42230   0.64862   0.00000  Uiso   1.00
N44    N     0.49543   0.81211   0.82690   0.00000  Uiso   1.00
N45    N     0.90886   0.58085   0.83923   0.00000  Uiso   1.00
N46    N     0.53235   0.37617   0.71311   0.00000  Uiso   1.00
C47    C     0.17899   0.13991   0.22291   0.00000  Uiso   1.00
C48    C     0.12935   0.18880   0.24955   0.00000  Uiso   1.00
C49    C     0.10477   0.25561   0.23603   0.00000  Uiso   1.00
C50    C     0.05978   0.29196   0.26520   0.00000  Uiso   1.00
C51    C     0.98572   0.37238   0.30031   0.00000  Uiso   1.00
C52    C     0.24330   0.12508   0.25295   0.00000  Uiso   1.00
C53    C     0.31452   0.13830   0.24229   0.00000  Uiso   1.00
C54    C     0.36545   0.12099   0.27432   0.00000  Uiso   1.00
C55    C     0.46830   0.10243   0.31470   0.00000  Uiso   1.00
C56    C     0.13952   0.06868   0.21819   0.00000  Uiso   1.00
C57    C     0.12350   0.03446   0.17831   0.00000  Uiso   1.00
C58    C     0.08708   0.96966   0.18107   0.00000  Uiso   1.00
C59    C     0.02880   0.86352   0.16749   0.00000  Uiso   1.00
C60    C     0.14280   0.08566   0.29875   0.00000  Uiso   1.00
C61    C     0.10970   0.15934   0.29075   0.00000  Uiso   1.00
C62    C     0.06473   0.19559   0.31994   0.00000  Uiso   1.00
C63    C     0.04008   0.26244   0.30647   0.00000  Uiso   1.00
C64    C     0.22365   0.09561   0.29415   0.00000  Uiso   1.00
C65    C     0.27448   0.07828   0.32620   0.00000  Uiso   1.00
C66    C     0.34576   0.09147   0.31559   0.00000  Uiso   1.00
C67    C     0.11987   0.03921   0.25939   0.00000  Uiso   1.00
C68    C     0.08346   0.97445   0.26222   0.00000  Uiso   1.00
C69    C     0.06739   0.94014   0.22234   0.00000  Uiso   1.00
H70    H     0.19430   0.16285   0.19084   0.00000  Uiso   1.00
H71    H     0.12000   0.27840   0.20415   0.00000  Uiso   1.00
H72    H     0.32971   0.16109   0.21041   0.00000  Uiso   1.00
H73    H     0.13872   0.05728   0.14643   0.00000  Uiso   1.00
H74    H     0.02897   0.39352   0.23709   0.00000  Uiso   1.00
H75    H     0.47117   0.14616   0.25027   0.00000  Uiso   1.00
H76    H     0.06844   0.92724   0.11537   0.00000  Uiso   1.00
H77    H     0.12750   0.06272   0.33082   0.00000  Uiso   1.00
H78    H     0.04953   0.17278   0.35182   0.00000  Uiso   1.00
H79    H     0.25925   0.05547   0.35807   0.00000  Uiso   1.00
H80    H     0.06826   0.95166   0.29410   0.00000  Uiso   1.00
H81    H     0.97178   0.30780   0.35694   0.00000  Uiso   1.00
H82    H     0.41399   0.06043   0.37012   0.00000  Uiso   1.00
H83    H     0.01125   0.84152   0.23522   0.00000  Uiso   1.00
O84    O     0.95031   0.42488   0.30830   0.00000  Uiso   1.00
O85    O     0.53046   0.10033   0.32560   0.00000  Uiso   1.00
O86    O     0.00208   0.81313   0.14861   0.00000  Uiso   1.00
N87    N     0.02620   0.35824   0.26241   0.00000  Uiso   1.00
N88    N     0.43963   0.12698   0.27474   0.00000  Uiso   1.00
N89    N     0.06313   0.92230   0.14862   0.00000  Uiso   1.00
N90    N     0.99543   0.31211   0.32690   0.00000  Uiso   1.00
N91    N     0.40886   0.08085   0.33923   0.00000  Uiso   1.00
N92    N     0.03235   0.87617   0.21311   0.00000  Uiso   1.00
C93    C     0.82101   0.86009   0.22291   0.00000  Uiso   1.00
C94    C     0.87065   0.81120   0.24955   0.00000  Uiso   1.00
C95    C     0.89523   0.74439   0.23603   0.00000  Uiso   1.00
C96    C     0.94022   0.70804   0.26520   0.00000  Uiso   1.00
C97    C     0.01428   0.62762   0.30031   0.00000  Uiso   1.00
C98    C     0.75670   0.87492   0.25295   0.00000  Uiso   1.00
C99    C     0.68548   0.86170   0.24229   0.00000  Uiso   1.00
C100   C     0.63455   0.87901   0.27432   0.00000  Uiso   1.00
C101   C     0.53170   0.89757   0.31470   0.00000  Uiso   1.00
C102   C     0.86048   0.93132   0.21819   0.00000  Uiso   1.00
C103   C     0.87650   0.96554   0.17831   0.00000  Uiso   1.00
C104   C     0.91292   0.03034   0.18107   0.00000  Uiso   1.00
C105   C     0.97120   0.13648   0.16749   0.00000  Uiso   1.00
C106   C     0.85720   0.91434   0.29875   0.00000  Uiso   1.00
C107   C     0.89030   0.84066   0.29075   0.00000  Uiso   1.00
C108   C     0.93527   0.80441   0.31994   0.00000  Uiso   1.00
C109   C     0.95992   0.73756   0.30647   0.00000  Uiso   1.00
C110   C     0.77635   0.90439   0.29415   0.00000  Uiso   1.00
C111   C     0.72552   0.92172   0.32620   0.00000  Uiso   1.00
C112   C     0.65424   0.90853   0.31559   0.00000  Uiso   1.00
C113   C     0.88013   0.96079   0.25939   0.00000  Uiso   1.00
C114   C     0.91654   0.02555   0.26222   0.00000  Uiso   1.00
C115   C     0.93261   0.05986   0.22234   0.00000  Uiso   1.00
H116   H     0.80570   0.83715   0.19084   0.00000  Uiso   1.00
H117   H     0.88000   0.72160   0.20415   0.00000  Uiso   1.00
H118   H     0.67029   0.83891   0.21041   0.00000  Uiso   1.00
H119   H     0.86128   0.94272   0.14643   0.00000  Uiso   1.00
H120   H     0.97103   0.60648   0.23709   0.00000  Uiso   1.00
H121   H     0.52883   0.85384   0.25027   0.00000  Uiso   1.00
H122   H     0.93156   0.07276   0.11537   0.00000  Uiso   1.00
H123   H     0.87250   0.93728   0.33082   0.00000  Uiso   1.00
H124   H     0.95047   0.82722   0.35182   0.00000  Uiso   1.00
H125   H     0.74075   0.94453   0.35807   0.00000  Uiso   1.00
H126   H     0.93174   0.04834   0.29410   0.00000  Uiso   1.00
H127   H     0.02822   0.69220   0.35694   0.00000  Uiso   1.00
H128   H     0.58601   0.93957   0.37012   0.00000  Uiso   1.00
H129   H     0.98875   0.15848   0.23522   0.00000  Uiso   1.00
O130   O     0.04969   0.57512   0.30830   0.00000  Uiso   1.00
O131   O     0.46954   0.89967   0.32560   0.00000  Uiso   1.00
O132   O     0.99792   0.18687   0.14861   0.00000  Uiso   1.00
N133   N     0.97380   0.64176   0.26241   0.00000  Uiso   1.00
N134   N     0.56037   0.87302   0.27474   0.00000  Uiso   1.00
N135   N     0.93687   0.07770   0.14862   0.00000  Uiso   1.00
N136   N     0.00457   0.68789   0.32690   0.00000  Uiso   1.00
N137   N     0.59114   0.91915   0.33923   0.00000  Uiso   1.00
N138   N     0.96765   0.12383   0.21311   0.00000  Uiso   1.00
C139   C     0.32101   0.36009   0.72291   0.00000  Uiso   1.00
C140   C     0.37065   0.31120   0.74955   0.00000  Uiso   1.00
C141   C     0.39523   0.24439   0.73603   0.00000  Uiso   1.00
C142   C     0.44022   0.20804   0.76520   0.00000  Uiso   1.00
C143   C     0.51428   0.12762   0.80031   0.00000  Uiso   1.00
C144   C     0.25670   0.37492   0.75295   0.00000  Uiso   1.00
C145   C     0.18548   0.36170   0.74229   0.00000  Uiso   1.00
C146   C     0.13455   0.37901   0.77432   0.00000  Uiso   1.00
C147   C     0.03170   0.39757   0.81470   0.00000  Uiso   1.00
C148   C     0.36048   0.43132   0.71819   0.00000  Uiso   1.00
C149   C     0.37650   0.46554   0.67831   0.00000  Uiso   1.00
C150   C     0.41292   0.53034   0.68107   0.00000  Uiso   1.00
C151   C     0.47120   0.63648   0.66749   0.00000  Uiso   1.00
C152   C     0.35720   0.41434   0.79875   0.00000  Uiso   1.00
C153   C     0.39030   0.34066   0.79075   0.00000  Uiso   1.00
C154   C     0.43527   0.30441   0.81994   0.00000  Uiso   1.00
C155   C     0.45992   0.23756   0.80647   0.00000  Uiso   1.00
C156   C     0.27635   0.40439   0.79415   0.00000  Uiso   1.00
C157   C     0.22552   0.42172   0.82620   0.00000  Uiso   1.00
C158   C     0.15424   0.40853   0.81559   0.00000  Uiso   1.00
C159   C     0.38013   0.46079   0.75939   0.00000  Uiso   1.00
C160   C     0.41654   0.52555   0.76222   0.00000  Uiso   1.00
C161   C     0.43261   0.55986   0.72234   0.00000  Uiso   1.00
H162   H     0.30570   0.33715   0.69084   0.00000  Uiso   1.00
H163   H     0.38000   0.22160   0.70415   0.00000  Uiso   1.00
H164   H     0.17029   0.33891   0.71041   0.00000  Uiso   1.00
H165   H     0.36128   0.44272   0.64643   0.00000  Uiso   1.00
H166   H     0.47103   0.10648   0.73709   0.00000  Uiso   1.00
H167   H     0.02883   0.35384   0.75027   0.00000  Uiso   1.00
H168   H     0.43156   0.57276   0.61537   0.00000  Uiso   1.00
H169   H     0.37250   0.43728   0.83082   0.00000  Uiso   1.00
H170   H     0.45047   0.32722   0.85182   0.00000  Uiso   1.00
H171   H     0.24075   0.44453   0.85807   0.00000  Uiso   1.00
H172   H     0.43174   0.54834   0.79410   0.00000  Uiso   1.00
H173   H     0.52822   0.19220   0.85694   0.00000  Uiso   1.00
H174   H     0.08601   0.43957   0.87012   0.00000  Uiso   1.00
H175   H     0.48875   0.65848   0.73522   0.00000  Uiso   1.00
O176   O     0.54969   0.07512   0.80830   0.00000  Uiso   1.00
O177   O     0.96954   0.39967   0.82560   0.00000  Uiso   1.00
O178   O     0.49792   0.68687   0.64861   0.00000  Uiso   1.00
N179   N     0.47380   0.14176   0.76241   0.00000  Uiso   1.00
N180   N     0.06037   0.37302   0.77474   0.00000  Uiso   1.00
N181   N     0.43687   0.57770   0.64862   0.00000  Uiso   1.00
N182   N     0.50457   0.18789   0.82690   0.00000  Uiso   1.00
N183   N     0.09114   0.41915   0.83923   0.00000  Uiso   1.00
N184   N     0.46765   0.62383   0.71311   0.00000  Uiso   1.00
C185   C     0.36009   0.17899   0.97291   0.00000  Uiso   1.00
C186   C     0.31120   0.12935   0.99955   0.00000  Uiso   1.00
C187   C     0.24439   0.10477   0.98603   0.00000  Uiso   1.00
C188   C     0.20804   0.05978   0.01520   0.00000  Uiso   1.00
C189   C     0.12762   0.98572   0.05031   0.00000  Uiso   1.00
C190   C     0.37492   0.24330   0.00295   0.00000  Uiso   1.00
C191   C     0.36170   0.31452   0.99229   0.00000  Uiso   1.00
C192   C     0.37901   0.36545   0.02432   0.00000  Uiso   1.00
C193   C     0.39757   0.46830   0.06470   0.00000  Uiso   1.00
C194   C     0.43132   0.13952   0.96819   0.00000  Uiso   1.00
C195   C     0.46554   0.12350   0.92831   0.00000  Uiso   1.00
C196   C     0.53034   0.08708   0.93107   0.00000  Uiso   1.00
C197   C     0.63648   0.02880   0.91749   0.00000  Uiso   1.00
C198   C     0.41434   0.14280   0.04875   0.00000  Uiso   1.00
C199   C     0.34066   0.10970   0.04075   0.00000  Uiso   1.00
C200   C     0.30441   0.06473   0.06994   0.00000  Uiso   1.00
C201   C     0.23756   0.04008   0.05647   0.00000  Uiso   1.00
C202   C     0.40439   0.22365   0.04415   0.00000  Uiso   1.00
C203   C     0.42172   0.27448   0.07620   0.00000  Uiso   1.00
C204   C     0.40853   0.34576   0.06559   0.00000  Uiso   1.00
C205   C     0.46079   0.11987   0.00939   0.00000  Uiso   1.00
C206   C     0.52555   0.08346   0.01222   0.00000  Uiso   1.00
C207   C     0.55986   0.06739   0.97234   0.00000  Uiso   1.00
H208   H     0.33715   0.19430   0.94084   0.00000  Uiso   1.00
H209   H     0.22160   0.12000   0.95415   0.00000  Uiso   1.00
H210   H     0.33891   0.32971   0.96041   0.00000  Uiso   1.00
H211   H     0.44272   0.13872   0.89643   0.00000  Uiso   1.00
H212   H     0.10648   0.02897   0.98709   0.00000  Uiso   1.00
H213   H     0.35384   0.47117   0.00027   0.00000  Uiso   1.00
H214   H     0.57276   0.06844   0.86537   0.00000  Uiso   1.00
H215   H     0.43728   0.12750   0.08082   0.00000  Uiso   1.00
H216   H     0.32722   0.04953   0.10182   0.00000  Uiso   1.00
H217   H     0.44453   0.25925   0.10807   0.00000  Uiso   1.00
H218   H     0.54834   0.06826   0.04410   0.00000  Uiso   1.00
H219   H     0.19220   0.97178   0.10694   0.00000  Uiso   1.00
H220   H     0.43957   0.41399   0.12012   0.00000  Uiso   1.00
H221   H     0.65848   0.01125   0.98522   0.00000  Uiso   1.00
O222   O     0.07512   0.95031   0.05830   0.00000  Uiso   1.00
O223   O     0.39967   0.53046   0.07560   0.00000  Uiso   1.00
O224   O     0.68687   0.00208   0.89861   0.00000  Uiso   1.00
N225   N     0.14176   0.02620   0.01241   0.00000  Uiso   1.00
N226   N     0.37302   0.43963   0.02474   0.00000  Uiso   1.00
N227   N     0.57770   0.06313   0.89862   0.00000  Uiso   1.00
N228   N     0.18789   0.99543   0.07690   0.00000  Uiso   1.00
N229   N     0.41915   0.40886   0.08923   0.00000  Uiso   1.00
N230   N     0.62383   0.03235   0.96311   0.00000  Uiso   1.00
C231   C     0.86009   0.67899   0.47291   0.00000  Uiso   1.00
C232   C     0.81120   0.62935   0.49955   0.00000  Uiso   1.00
C233   C     0.74439   0.60477   0.48603   0.00000  Uiso   1.00
C234   C     0.70804   0.55978   0.51520   0.00000  Uiso   1.00
C235   C     0.62762   0.48572   0.55031   0.00000  Uiso   1.00
C236   C     0.87492   0.74330   0.50295   0.00000  Uiso   1.00
C237   C     0.86170   0.81452   0.49229   0.00000  Uiso   1.00
C238   C     0.87901   0.86545   0.52432   0.00000  Uiso   1.00
C239   C     0.89757   0.96830   0.56470   0.00000  Uiso   1.00
C240   C     0.93132   0.63952   0.46819   0.00000  Uiso   1.00
C241   C     0.96554   0.62350   0.42831   0.00000  Uiso   1.00
C242   C     0.03034   0.58708   0.43107   0.00000  Uiso   1.00
C243   C     0.13648   0.52880   0.41749   0.00000  Uiso   1.00
C244   C     0.91434   0.64280   0.54875   0.00000  Uiso   1.00
C245   C     0.84066   0.60970   0.54075   0.00000  Uiso   1.00
C246   C     0.80441   0.56473   0.56994   0.00000  Uiso   1.00
C247   C     0.73756   0.54008   0.55647   0.00000  Uiso   1.00
C248   C     0.90439   0.72365   0.54415   0.00000  Uiso   1.00
C249   C     0.92172   0.77448   0.57620   0.00000  Uiso   1.00
C250   C     0.90853   0.84576   0.56559   0.00000  Uiso   1.00
C251   C     0.96079   0.61987   0.50939   0.00000  Uiso   1.00
C252   C     0.02555   0.58346   0.51222   0.00000  Uiso   1.00
C253   C     0.05986   0.56739   0.47234   0.00000  Uiso   1.00
H254   H     0.83715   0.69430   0.44084   0.00000  Uiso   1.00
H255   H     0.72160   0.62000   0.45415   0.00000  Uiso   1.00
H256   H     0.83891   0.82971   0.46041   0.00000  Uiso   1.00
H257   H     0.94272   0.63872   0.39643   0.00000  Uiso   1.00
H258   H     0.60648   0.52897   0.48709   0.00000  Uiso   1.00
H259   H     0.85384   0.97117   0.50027   0.00000  Uiso   1.00
H260   H     0.07276   0.56844   0.36537   0.00000  Uiso   1.00
H261   H     0.93728   0.62750   0.58082   0.00000  Uiso   1.00
H262   H     0.82722   0.54953   0.60182   0.00000  Uiso   1.00
H263   H     0.94453   0.75925   0.60807   0.00000  Uiso   1.00
H264   H     0.04834   0.56826   0.54410   0.00000  Uiso   1.00
H265   H     0.69220   0.47178   0.60694   0.00000  Uiso   1.00
H266   H     0.93957   0.91399   0.62012   0.00000  Uiso   1.00
H267   H     0.15848   0.51125   0.48522   0.00000  Uiso   1.00
O268   O     0.57512   0.45031   0.55830   0.00000  Uiso   1.00
O269   O     0.89967   0.03046   0.57560   0.00000  Uiso   1.00
O270   O     0.18687   0.50208   0.39861   0.00000  Uiso   1.00
N271   N     0.64176   0.52620   0.51241   0.00000  Uiso   1.00
N272   N     0.87302   0.93963   0.52474   0.00000  Uiso   1.00
N273   N     0.07770   0.56313   0.39862   0.00000  Uiso   1.00
N274   N     0.68789   0.49543   0.57690   0.00000  Uiso   1.00
N275   N     0.91915   0.90886   0.58923   0.00000  Uiso   1.00
N276   N     0.12383   0.53235   0.46311   0.00000  Uiso   1.00
C277   C     0.13991   0.32101   0.47291   0.00000  Uiso   1.00
C278   C     0.18880   0.37065   0.49955   0.00000  Uiso   1.00
C279   C     0.25561   0.39523   0.48603   0.00000  Uiso   1.00
C280   C     0.29196   0.44022   0.51520   0.00000  Uiso   1.00
C281   C     0.37238   0.51428   0.55031   0.00000  Uiso   1.00
C282   C     0.12508   0.25670   0.50295   0.00000  Uiso   1.00
C283   C     0.13830   0.18548   0.49229   0.00000  Uiso   1.00
C284   C     0.12099   0.13455   0.52432   0.00000  Uiso   1.00
C285   C     0.10243   0.03170   0.56470   0.00000  Uiso   1.00
C286   C     0.06868   0.36048   0.46819   0.00000  Uiso   1.00
C287   C     0.03446   0.37650   0.42831   0.00000  Uiso   1.00
C288   C     0.96966   0.41292   0.43107   0.00000  Uiso   1.00
C289   C     0.86352   0.47120   0.41749   0.00000  Uiso   1.00
C290   C     0.08566   0.35720   0.54875   0.00000  Uiso   1.00
C291   C     0.15934   0.39030   0.54075   0.00000  Uiso   1.00
C292   C     0.19559   0.43527   0.56994   0.00000  Uiso   1.00
C293   C     0.26244   0.45992   0.55647   0.00000  Uiso   1.00
C294   C     0.09561   0.27635   0.54415   0.00000  Uiso   1.00
C295   C     0.07828   0.22552   0.57620   0.00000  Uiso   1.00
C296   C     0.09147   0.15424   0.56559   0.00000  Uiso   1.00
C297   C     0.03921   0.38013   0.50939   0.00000  Uiso   1.00
C298   C     0.97445   0.41654   0.51222   0.00000  Uiso   1.00
C299   C     0.94014   0.43261   0.47234   0.00000  Uiso   1.00
H300   H     0.16285   0.30570   0.44084   0.00000  Uiso   1.00
H301   H     0.27840   0.38000   0.45415   0.00000  Uiso   1.00
H302   H     0.16109   0.17029   0.46041   0.00000  Uiso   1.00
H303   H     0.05728   0.36128   0.39643   0.00000  Uiso   1.00
H304   H     0.39352   0.47103   0.48709   0.00000  Uiso   1.00
H305   H     0.14616   0.02883   0.50027   0.00000  Uiso   1.00
H306   H     0.92724   0.43156   0.36537   0.00000  Uiso   1.00
H307   H     0.06272   0.37250   0.58082   0.00000  Uiso   1.00
H308   H     0.17278   0.45047   0.60182   0.00000  Uiso   1.00
H309   H     0.05547   0.24075   0.60807   0.00000  Uiso   1.00
H310   H     0.95166   0.43174   0.54410   0.00000  Uiso   1.00
H311   H     0.30780   0.52822   0.60694   0.00000  Uiso   1.00
H312   H     0.06043   0.08601   0.62012   0.00000  Uiso   1.00
H313   H     0.84152   0.48875   0.48522   0.00000  Uiso   1.00
O314   O     0.42488   0.54969   0.55830   0.00000  Uiso   1.00
O315   O     0.10033   0.96954   0.57560   0.00000  Uiso   1.00
O316   O     0.81313   0.49792   0.39861   0.00000  Uiso   1.00
N317   N     0.35824   0.47380   0.51241   0.00000  Uiso   1.00
N318   N     0.12698   0.06037   0.52474   0.00000  Uiso   1.00
N319   N     0.92230   0.43687   0.39862   0.00000  Uiso   1.00
N320   N     0.31211   0.50457   0.57690   0.00000  Uiso   1.00
N321   N     0.08085   0.09114   0.58923   0.00000  Uiso   1.00
N322   N     0.87617   0.46765   0.46311   0.00000  Uiso   1.00
C323   C     0.63991   0.82101   0.97291   0.00000  Uiso   1.00
C324   C     0.68880   0.87065   0.99955   0.00000  Uiso   1.00
C325   C     0.75561   0.89523   0.98603   0.00000  Uiso   1.00
C326   C     0.79196   0.94022   0.01520   0.00000  Uiso   1.00
C327   C     0.87238   0.01428   0.05031   0.00000  Uiso   1.00
C328   C     0.62508   0.75670   0.00295   0.00000  Uiso   1.00
C329   C     0.63830   0.68548   0.99229   0.00000  Uiso   1.00
C330   C     0.62099   0.63455   0.02432   0.00000  Uiso   1.00
C331   C     0.60243   0.53170   0.06470   0.00000  Uiso   1.00
C332   C     0.56868   0.86048   0.96819   0.00000  Uiso   1.00
C333   C     0.53446   0.87650   0.92831   0.00000  Uiso   1.00
C334   C     0.46966   0.91292   0.93107   0.00000  Uiso   1.00
C335   C     0.36352   0.97120   0.91749   0.00000  Uiso   1.00
C336   C     0.58566   0.85720   0.04875   0.00000  Uiso   1.00
C337   C     0.65934   0.89030   0.04075   0.00000  Uiso   1.00
C338   C     0.69559   0.93527   0.06994   0.00000  Uiso   1.00
C339   C     0.76244   0.95992   0.05647   0.00000  Uiso   1.00
C340   C     0.59561   0.77635   0.04415   0.00000  Uiso   1.00
C341   C     0.57828   0.72552   0.07620   0.00000  Uiso   1.00
C342   C     0.59147   0.65424   0.06559   0.00000  Uiso   1.00
C343   C     0.53921   0.88013   0.00939   0.00000  Uiso   1.00
C344   C     0.47445   0.91654   0.01222   0.00000  Uiso   1.00
C345   C     0.44014   0.93261   0.97234   0.00000  Uiso   1.00
H346   H     0.66285   0.80570   0.94084   0.00000  Uiso   1.00
H347   H     0.77840   0.88000   0.95415   0.00000  Uiso   1.00
H348   H     0.66109   0.67029   0.96041   0.00000  Uiso   1.00
H349   H     0.55728   0.86128   0.89643   0.00000  Uiso   1.00
H350   H     0.89352   0.97103   0.98709   0.00000  Uiso   1.00
H351   H     0.64616   0.52883   0.00027   0.00000  Uiso   1.00
H352   H     0.42724   0.93156   0.86537   0.00000  Uiso   1.00
H353   H     0.56272   0.87250   0.08082   0.00000  Uiso   1.00
H354   H     0.67278   0.95047   0.10182   0.00000  Uiso   1.00
H355   H     0.55547   0.74075   0.10807   0.00000  Uiso   1.00
H356   H     0.45166   0.93174   0.04410   0.00000  Uiso   1.00
H357   H     0.80780   0.02822   0.10694   0.00000  Uiso   1.00
H358   H     0.56043   0.58601   0.12012   0.00000  Uiso   1.00
H359   H     0.34152   0.98875   0.98522   0.00000  Uiso   1.00
O360   O     0.92488   0.04969   0.05830   0.00000  Uiso   1.00
O361   O     0.60033   0.46954   0.07560   0.00000  Uiso   1.00
O362   O     0.31313   0.99792   0.89861   0.00000  Uiso   1.00
N363   N     0.85824   0.97380   0.01241   0.00000  Uiso   1.00
N364   N     0.62698   0.56037   0.02474   0.00000  Uiso   1.00
N365   N     0.42230   0.93687   0.89862   0.00000  Uiso   1.00
N366   N     0.81211   0.00457   0.07690   0.00000  Uiso   1.00
N367   N     0.58085   0.59114   0.08923   0.00000  Uiso   1.00
N368   N     0.37617   0.96765   0.96311   0.00000  Uiso   1.00
C369   C     0.32101   0.86009   0.52709   0.00000  Uiso   1.00
C370   C     0.37065   0.81120   0.50045   0.00000  Uiso   1.00
C371   C     0.39523   0.74439   0.51397   0.00000  Uiso   1.00
C372   C     0.44022   0.70804   0.48480   0.00000  Uiso   1.00
C373   C     0.51428   0.62762   0.44969   0.00000  Uiso   1.00
C374   C     0.25670   0.87492   0.49705   0.00000  Uiso   1.00
C375   C     0.18548   0.86170   0.50771   0.00000  Uiso   1.00
C376   C     0.13455   0.87901   0.47568   0.00000  Uiso   1.00
C377   C     0.03170   0.89757   0.43530   0.00000  Uiso   1.00
C378   C     0.36048   0.93132   0.53181   0.00000  Uiso   1.00
C379   C     0.37650   0.96554   0.57169   0.00000  Uiso   1.00
C380   C     0.41292   0.03034   0.56893   0.00000  Uiso   1.00
C381   C     0.47120   0.13648   0.58251   0.00000  Uiso   1.00
C382   C     0.35720   0.91434   0.45125   0.00000  Uiso   1.00
C383   C     0.39030   0.84066   0.45925   0.00000  Uiso   1.00
C384   C     0.43527   0.80441   0.43006   0.00000  Uiso   1.00
C385   C     0.45992   0.73756   0.44353   0.00000  Uiso   1.00
C386   C     0.27635   0.90439   0.45585   0.00000  Uiso   1.00
C387   C     0.22552   0.92172   0.42380   0.00000  Uiso   1.00
C388   C     0.15424   0.90853   0.43441   0.00000  Uiso   1.00
C389   C     0.38013   0.96079   0.49061   0.00000  Uiso   1.00
C390   C     0.41654   0.02555   0.48778   0.00000  Uiso   1.00
C391   C     0.43261   0.05986   0.52766   0.00000  Uiso   1.00
H392   H     0.30570   0.83715   0.55916   0.00000  Uiso   1.00
H393   H     0.38000   0.72160   0.54585   0.00000  Uiso   1.00
H394   H     0.17029   0.83891   0.53959   0.00000  Uiso   1.00
H395   H     0.36128   0.94272   0.60357   0.00000  Uiso   1.00
H396   H     0.47103   0.60648   0.51291   0.00000  Uiso   1.00
H397   H     0.02883   0.85384   0.49973   0.00000  Uiso   1.00
H398   H     0.43156   0.07276   0.63463   0.00000  Uiso   1.00
H399   H     0.37250   0.93728   0.41918   0.00000  Uiso   1.00
H400   H     0.45047   0.82722   0.39818   0.00000  Uiso   1.00
H401   H     0.24075   0.94453   0.39193   0.00000  Uiso   1.00
H402   H     0.43174   0.04834   0.45590   0.00000  Uiso   1.00
H403   H     0.52822   0.69220   0.39306   0.00000  Uiso   1.00
H404   H     0.08601   0.93957   0.37988   0.00000  Uiso   1.00
H405   H     0.48875   0.15848   0.51478   0.00000  Uiso   1.00
O406   O     0.54969   0.57512   0.44170   0.00000  Uiso   1.00
O407   O     0.96954   0.89967   0.42440   0.00000  Uiso   1.00
O408   O     0.49792   0.18687   0.60139   0.00000  Uiso   1.00
N409   N     0.47380   0.64176   0.48759   0.00000  Uiso   1.00
N410   N     0.06037   0.87302   0.47526   0.00000  Uiso   1.00
N411   N     0.43687   0.07770   0.60138   0.00000  Uiso   1.00
N412   N     0.50457   0.68789   0.42310   0.00000  Uiso   1.00
N413   N     0.09114   0.91915   0.41077   0.00000  Uiso   1.00
N414   N     0.46765   0.12383   0.53689   0.00000  Uiso   1.00
C415   C     0.82101   0.36009   0.02709   0.00000  Uiso   1.00
C416   C     0.87065   0.31120   0.00045   0.00000  Uiso   1.00
C417   C     0.89523   0.24439   0.01397   0.00000  Uiso   1.00
C418   C     0.94022   0.20804   0.98480   0.00000  Uiso   1.00
C419   C     0.01428   0.12762   0.94969   0.00000  Uiso   1.00
C420   C     0.75670   0.37492   0.99705   0.00000  Uiso   1.00
C421   C     0.68548   0.36170   0.00771   0.00000  Uiso   1.00
C422   C     0.63455   0.37901   0.97568   0.00000  Uiso   1.00
C423   C     0.53170   0.39757   0.93530   0.00000  Uiso   1.00
C424   C     0.86048   0.43132   0.03181   0.00000  Uiso   1.00
C425   C     0.87650   0.46554   0.07169   0.00000  Uiso   1.00
C426   C     0.91292   0.53034   0.06893   0.00000  Uiso   1.00
C427   C     0.97120   0.63648   0.08251   0.00000  Uiso   1.00
C428   C     0.85720   0.41434   0.95125   0.00000  Uiso   1.00
C429   C     0.89030   0.34066   0.95925   0.00000  Uiso   1.00
C430   C     0.93527   0.30441   0.93006   0.00000  Uiso   1.00
C431   C     0.95992   0.23756   0.94353   0.00000  Uiso   1.00
C432   C     0.77635   0.40439   0.95585   0.00000  Uiso   1.00
C433   C     0.72552   0.42172   0.92380   0.00000  Uiso   1.00
C434   C     0.65424   0.40853   0.93441   0.00000  Uiso   1.00
C435   C     0.88013   0.46079   0.99061   0.00000  Uiso   1.00
C436   C     0.91654   0.52555   0.98778   0.00000  Uiso   1.00
C437   C     0.93261   0.55986   0.02766   0.00000  Uiso   1.00
H438   H     0.80570   0.33715   0.05916   0.00000  Uiso   1.00
H439   H     0.88000   0.22160   0.04585   0.00000  Uiso   1.00
H440   H     0.67029   0.33891   0.03959   0.00000  Uiso   1.00
H441   H     0.86128   0.44272   0.10357   0.00000  Uiso   1.00
H442   H     0.97103   0.10648   0.01291   0.00000  Uiso   1.00
H443   H     0.52883   0.35384   0.99973   0.00000  Uiso   1.00
H444   H     0.93156   0.57276   0.13463   0.00000  Uiso   1.00
H445   H     0.87250   0.43728   0.91918   0.00000  Uiso   1.00
H446   H     0.95047   0.32722   0.89818   0.00000  Uiso   1.00
H447   H     0.74075   0.44453   0.89193   0.00000  Uiso   1.00
H448   H     0.93174   0.54834   0.95590   0.00000  Uiso   1.00
H449   H     0.02822   0.19220   0.89306   0.00000  Uiso   1.00
H450   H     0.58601   0.43957   0.87988   0.00000  Uiso   1.00
H451   H     0.98875   0.65848   0.01478   0.00000  Uiso   1.00
O452   O     0.04969   0.07512   0.94170   0.00000  Uiso   1.00
O453   O     0.46954   0.39967   0.92440   0.00000  Uiso   1.00
O454   O     0.99792   0.68687   0.10139   0.00000  Uiso   1.00
N455   N     0.97380   0.14176   0.98759   0.00000  Uiso   1.00
N456   N     0.56037   0.37302   0.97526   0.00000  Uiso   1.00
N457   N     0.93687   0.57770   0.10138   0.00000  Uiso   1.00
N458   N     0.00457   0.18789   0.92310   0.00000  Uiso   1.00
N459   N     0.59114   0.41915   0.91077   0.00000  Uiso   1.00
N460   N     0.96765   0.62383   0.03689   0.00000  Uiso   1.00
C461   C     0.17899   0.63991   0.02709   0.00000  Uiso   1.00
C462   C     0.12935   0.68880   0.00045   0.00000  Uiso   1.00
C463   C     0.10477   0.75561   0.01397   0.00000  Uiso   1.00
C464   C     0.05978   0.79196   0.98480   0.00000  Uiso   1.00
C465   C     0.98572   0.87238   0.94969   0.00000  Uiso   1.00
C466   C     0.24330   0.62508   0.99705   0.00000  Uiso   1.00
C467   C     0.31452   0.63830   0.00771   0.00000  Uiso   1.00
C468   C     0.36545   0.62099   0.97568   0.00000  Uiso   1.00
C469   C     0.46830   0.60243   0.93530   0.00000  Uiso   1.00
C470   C     0.13952   0.56868   0.03181   0.00000  Uiso   1.00
C471   C     0.12350   0.53446   0.07169   0.00000  Uiso   1.00
C472   C     0.08708   0.46966   0.06893   0.00000  Uiso   1.00
C473   C     0.02880   0.36352   0.08251   0.00000  Uiso   1.00
C474   C     0.14280   0.58566   0.95125   0.00000  Uiso   1.00
C475   C     0.10970   0.65934   0.95925   0.00000  Uiso   1.00
C476   C     0.06473   0.69559   0.93006   0.00000  Uiso   1.00
C477   C     0.04008   0.76244   0.94353   0.00000  Uiso   1.00
C478   C     0.22365   0.59561   0.95585   0.00000  Uiso   1.00
C479   C     0.27448   0.57828   0.92380   0.00000  Uiso   1.00
C480   C     0.34576   0.59147   0.93441   0.00000  Uiso   1.00
C481   C     0.11987   0.53921   0.99061   0.00000  Uiso   1.00
C482   C     0.08346   0.47445   0.98778   0.00000  Uiso   1.00
C483   C     0.06739   0.44014   0.02766   0.00000  Uiso   1.00
H484   H     0.19430   0.66285   0.05916   0.00000  Uiso   1.00
H485   H     0.12000   0.77840   0.04585   0.00000  Uiso   1.00
H486   H     0.32971   0.66109   0.03959   0.00000  Uiso   1.00
H487   H     0.13872   0.55728   0.10357   0.00000  Uiso   1.00
H488   H     0.02897   0.89352   0.01291   0.00000  Uiso   1.00
H489   H     0.47117   0.64616   0.99973   0.00000  Uiso   1.00
H490   H     0.06844   0.42724   0.13463   0.00000  Uiso   1.00
H491   H     0.12750   0.56272   0.91918   0.00000  Uiso   1.00
H492   H     0.04953   0.67278   0.89818   0.00000  Uiso   1.00
H493   H     0.25925   0.55547   0.89193   0.00000  Uiso   1.00
H494   H     0.06826   0.45166   0.95590   0.00000  Uiso   1.00
H495   H     0.97178   0.80780   0.89306   0.00000  Uiso   1.00
H496   H     0.41399   0.56043   0.87988   0.00000  Uiso   1.00
H497   H     0.01125   0.34152   0.01478   0.00000  Uiso   1.00
O498   O     0.95031   0.92488   0.94170   0.00000  Uiso   1.00
O499   O     0.53046   0.60033   0.92440   0.00000  Uiso   1.00
O500   O     0.00208   0.31313   0.10139   0.00000  Uiso   1.00
N501   N     0.02620   0.85824   0.98759   0.00000  Uiso   1.00
N502   N     0.43963   0.62698   0.97526   0.00000  Uiso   1.00
N503   N     0.06313   0.42230   0.10138   0.00000  Uiso   1.00
N504   N     0.99543   0.81211   0.92310   0.00000  Uiso   1.00
N505   N     0.40886   0.58085   0.91077   0.00000  Uiso   1.00
N506   N     0.03235   0.37617   0.03689   0.00000  Uiso   1.00
C507   C     0.67899   0.13991   0.52709   0.00000  Uiso   1.00
C508   C     0.62935   0.18880   0.50045   0.00000  Uiso   1.00
C509   C     0.60477   0.25561   0.51397   0.00000  Uiso   1.00
C510   C     0.55978   0.29196   0.48480   0.00000  Uiso   1.00
C511   C     0.48572   0.37238   0.44969   0.00000  Uiso   1.00
C512   C     0.74330   0.12508   0.49705   0.00000  Uiso   1.00
C513   C     0.81452   0.13830   0.50771   0.00000  Uiso   1.00
C514   C     0.86545   0.12099   0.47568   0.00000  Uiso   1.00
C515   C     0.96830   0.10243   0.43530   0.00000  Uiso   1.00
C516   C     0.63952   0.06868   0.53181   0.00000  Uiso   1.00
C517   C     0.62350   0.03446   0.57169   0.00000  Uiso   1.00
C518   C     0.58708   0.96966   0.56893   0.00000  Uiso   1.00
C519   C     0.52880   0.86352   0.58251   0.00000  Uiso   1.00
C520   C     0.64280   0.08566   0.45125   0.00000  Uiso   1.00
C521   C     0.60970   0.15934   0.45925   0.00000  Uiso   1.00
C522   C     0.56473   0.19559   0.43006   0.00000  Uiso   1.00
C523   C     0.54008   0.26244   0.44353   0.00000  Uiso   1.00
C524   C     0.72365   0.09561   0.45585   0.00000  Uiso   1.00
C525   C     0.77448   0.07828   0.42380   0.00000  Uiso   1.00
C526   C     0.84576   0.09147   0.43441   0.00000  Uiso   1.00
C527   C     0.61987   0.03921   0.49061   0.00000  Uiso   1.00
C528   C     0.58346   0.97445   0.48778   0.00000  Uiso   1.00
C529   C     0.56739   0.94014   0.52766   0.00000  Uiso   1.00
H530   H     0.69430   0.16285   0.55916   0.00000  Uiso   1.00
H531   H     0.62000   0.27840   0.54585   0.00000  Uiso   1.00
H532   H     0.82971   0.16109   0.53959   0.00000  Uiso   1.00
H533   H     0.63872   0.05728   0.60357   0.00000  Uiso   1.00
H534   H     0.52897   0.39352   0.51291   0.00000  Uiso   1.00
H535   H     0.97117   0.14616   0.49973   0.00000  Uiso   1.00
H536   H     0.56844   0.92724   0.63463   0.00000  Uiso   1.00
H537   H     0.62750   0.06272   0.41918   0.00000  Uiso   1.00
H538   H     0.54953   0.17278   0.39818   0.00000  Uiso   1.00
H539   H     0.75925   0.05547   0.39193   0.00000  Uiso   1.00
H540   H     0.56826   0.95166   0.45590   0.00000  Uiso   1.00
H541   H     0.47178   0.30780   0.39306   0.00000  Uiso   1.00
H542   H     0.91399   0.06043   0.37988   0.00000  Uiso   1.00
H543   H     0.51125   0.84152   0.51478   0.00000  Uiso   1.00
O544   O     0.45031   0.42488   0.44170   0.00000  Uiso   1.00
O545   O     0.03046   0.10033   0.42440   0.00000  Uiso   1.00
O546   O     0.50208   0.81313   0.60139   0.00000  Uiso   1.00
N547   N     0.52620   0.35824   0.48759   0.00000  Uiso   1.00
N548   N     0.93963   0.12698   0.47526   0.00000  Uiso   1.00
N549   N     0.56313   0.92230   0.60138   0.00000  Uiso   1.00
N550   N     0.49543   0.31211   0.42310   0.00000  Uiso   1.00
N551   N     0.90886   0.08085   0.41077   0.00000  Uiso   1.00
N552   N     0.53235   0.87617   0.53689   0.00000  Uiso   1.00
C553   C     0.63991   0.32101   0.27709   0.00000  Uiso   1.00
C554   C     0.68880   0.37065   0.25045   0.00000  Uiso   1.00
C555   C     0.75561   0.39523   0.26397   0.00000  Uiso   1.00
C556   C     0.79196   0.44022   0.23480   0.00000  Uiso   1.00
C557   C     0.87238   0.51428   0.19969   0.00000  Uiso   1.00
C558   C     0.62508   0.25670   0.24705   0.00000  Uiso   1.00
C559   C     0.63830   0.18548   0.25771   0.00000  Uiso   1.00
C560   C     0.62099   0.13455   0.22568   0.00000  Uiso   1.00
C561   C     0.60243   0.03170   0.18530   0.00000  Uiso   1.00
C562   C     0.56868   0.36048   0.28181   0.00000  Uiso   1.00
C563   C     0.53446   0.37650   0.32169   0.00000  Uiso   1.00
C564   C     0.46966   0.41292   0.31893   0.00000  Uiso   1.00
C565   C     0.36352   0.47120   0.33251   0.00000  Uiso   1.00
C566   C     0.58566   0.35720   0.20125   0.00000  Uiso   1.00
C567   C     0.65934   0.39030   0.20925   0.00000  Uiso   1.00
C568   C     0.69559   0.43527   0.18006   0.00000  Uiso   1.00
C569   C     0.76244   0.45992   0.19353   0.00000  Uiso   1.00
C570   C     0.59561   0.27635   0.20585   0.00000  Uiso   1.00
C571   C     0.57828   0.22552   0.17380   0.00000  Uiso   1.00
C572   C     0.59147   0.15424   0.18441   0.00000  Uiso   1.00
C573   C     0.53921   0.38013   0.24061   0.00000  Uiso   1.00
C574   C     0.47445   0.41654   0.23778   0.00000  Uiso   1.00
C575   C     0.44014   0.43261   0.27766   0.00000  Uiso   1.00
H576   H     0.66285   0.30570   0.30916   0.00000  Uiso   1.00
H577   H     0.77840   0.38000   0.29585   0.00000  Uiso   1.00
H578   H     0.66109   0.17029   0.28959   0.00000  Uiso   1.00
H579   H     0.55728   0.36128   0.35357   0.00000  Uiso   1.00
H580   H     0.89352   0.47103   0.26291   0.00000  Uiso   1.00
H581   H     0.64616   0.02883   0.24973   0.00000  Uiso   1.00
H582   H     0.42724   0.43156   0.38463   0.00000  Uiso   1.00
H583   H     0.56272   0.37250   0.16918   0.00000  Uiso   1.00
H584   H     0.67278   0.45047   0.14818   0.00000  Uiso   1.00
H585   H     0.55547   0.24075   0.14193   0.00000  Uiso   1.00
H586   H     0.45166   0.43174   0.20590   0.00000  Uiso   1.00
H587   H     0.80780   0.52822   0.14306   0.00000  Uiso   1.00
H588   H     0.56043   0.08601   0.12988   0.00000  Uiso   1.00
H589   H     0.34152   0.48875   0.26478   0.00000  Uiso   1.00
O590   O     0.92488   0.54969   0.19170   0.00000  Uiso   1.00
O591   O     0.60033   0.96954   0.17440   0.00000  Uiso   1.00
O592   O     0.31313   0.49792   0.35139   0.00000  Uiso   1.00
N593   N     0.85824   0.47380   0.23759   0.00000  Uiso   1.00
N594   N     0.62698   0.06037   0.22526   0.00000  Uiso   1.00
N595   N     0.42230   0.43687   0.35138   0.00000  Uiso   1.00
N596   N     0.81211   0.50457   0.17310   0.00000  Uiso   1.00
N597   N     0.58085   0.09114   0.16077   0.00000  Uiso   1.00
N598   N     0.37617   0.46765   0.28689   0.00000  Uiso   1.00
C599   C     0.13991   0.82101   0.77709   0.00000  Uiso   1.00
C600   C     0.18880   0.87065   0.75045   0.00000  Uiso   1.00
C601   C     0.25561   0.89523   0.76397   0.00000  Uiso   1.00
C602   C     0.29196   0.94022   0.73480   0.00000  Uiso   1.00
C603   C     0.37238   0.01428   0.69969   0.00000  Uiso   1.00
C604   C     0.12508   0.75670   0.74705   0.00000  Uiso   1.00
C605   C     0.13830   0.68548   0.75771   0.00000  Uiso   1.00
C606   C     0.12099   0.63455   0.72568   0.00000  Uiso   1.00
C607   C     0.10243   0.53170   0.68530   0.00000  Uiso   1.00
C608   C     0.06868   0.86048   0.78181   0.00000  Uiso   1.00
C609   C     0.03446   0.87650   0.82169   0.00000  Uiso   1.00
C610   C     0.96966   0.91292   0.81893   0.00000  Uiso   1.00
C611   C     0.86352   0.97120   0.83251   0.00000  Uiso   1.00
C612   C     0.08566   0.85720   0.70125   0.00000  Uiso   1.00
C613   C     0.15934   0.89030   0.70925   0.00000  Uiso   1.00
C614   C     0.19559   0.93527   0.68006   0.00000  Uiso   1.00
C615   C     0.26244   0.95992   0.69353   0.00000  Uiso   1.00
C616   C     0.09561   0.77635   0.70585   0.00000  Uiso   1.00
C617   C     0.07828   0.72552   0.67380   0.00000  Uiso   1.00
C618   C     0.09147   0.65424   0.68441   0.00000  Uiso   1.00
C619   C     0.03921   0.88013   0.74061   0.00000  Uiso   1.00
C620   C     0.97445   0.91654   0.73778   0.00000  Uiso   1.00
C621   C     0.94014   0.93261   0.77766   0.00000  Uiso   1.00
H622   H     0.16285   0.80570   0.80916   0.00000  Uiso   1.00
H623   H     0.27840   0.88000   0.79585   0.00000  Uiso   1.00
H624   H     0.16109   0.67029   0.78959   0.00000  Uiso   1.00
H625   H     0.05728   0.86128   0.85357   0.00000  Uiso   1.00
H626   H     0.39352   0.97103   0.76291   0.00000  Uiso   1.00
H627   H     0.14616   0.52883   0.74973   0.00000  Uiso   1.00
H628   H     0.92724   0.93156   0.88463   0.00000  Uiso   1.00
H629   H     0.06272   0.87250   0.66918   0.00000  Uiso   1.00
H630   H     0.17278   0.95047   0.64818   0.00000  Uiso   1.00
H631   H     0.05547   0.74075   0.64193   0.00000  Uiso   1.00
H632   H     0.95166   0.93174   0.70590   0.00000  Uiso   1.00
H633   H     0.30780   0.02822   0.64306   0.00000  Uiso   1.00
H634   H     0.06043   0.58601   0.62988   0.00000  Uiso   1.00
H635   H     0.84152   0.98875   0.76478   0.00000  Uiso   1.00
O636   O     0.42488   0.04969   0.69170   0.00000  Uiso   1.00
O637   O     0.10033   0.46954   0.67440   0.00000  Uiso   1.00
O638   O     0.81313   0.99792   0.85139   0.00000  Uiso   1.00
N639   N     0.35824   0.97380   0.73759   0.00000  Uiso   1.00
N640   N     0.12698   0.56037   0.72526   0.00000  Uiso   1.00
N641   N     0.92230   0.93687   0.85138   0.00000  Uiso   1.00
N642   N     0.31211   0.00457   0.67310   0.00000  Uiso   1.00
N643   N     0.08085   0.59114   0.66077   0.00000  Uiso   1.00
N644   N     0.87617   0.96765   0.78689   0.00000  Uiso   1.00
C645   C     0.86009   0.17899   0.77709   0.00000  Uiso   1.00
C646   C     0.81120   0.12935   0.75045   0.00000  Uiso   1.00
C647   C     0.74439   0.10477   0.76397   0.00000  Uiso   1.00
C648   C     0.70804   0.05978   0.73480   0.00000  Uiso   1.00
C649   C     0.62762   0.98572   0.69969   0.00000  Uiso   1.00
C650   C     0.87492   0.24330   0.74705   0.00000  Uiso   1.00
C651   C     0.86170   0.31452   0.75771   0.00000  Uiso   1.00
C652   C     0.87901   0.36545   0.72568   0.00000  Uiso   1.00
C653   C     0.89757   0.46830   0.68530   0.00000  Uiso   1.00
C654   C     0.93132   0.13952   0.78181   0.00000  Uiso   1.00
C655   C     0.96554   0.12350   0.82169   0.00000  Uiso   1.00
C656   C     0.03034   0.08708   0.81893   0.00000  Uiso   1.00
C657   C     0.13648   0.02880   0.83251   0.00000  Uiso   1.00
C658   C     0.91434   0.14280   0.70125   0.00000  Uiso   1.00
C659   C     0.84066   0.10970   0.70925   0.00000  Uiso   1.00
C660   C     0.80441   0.06473   0.68006   0.00000  Uiso   1.00
C661   C     0.73756   0.04008   0.69353   0.00000  Uiso   1.00
C662   C     0.90439   0.22365   0.70585   0.00000  Uiso   1.00
C663   C     0.92172   0.27448   0.67380   0.00000  Uiso   1.00
C664   C     0.90853   0.34576   0.68441   0.00000  Uiso   1.00
C665   C     0.96079   0.11987   0.74061   0.00000  Uiso   1.00
C666   C     0.02555   0.08346   0.73778   0.00000  Uiso   1.00
C667   C     0.05986   0.06739   0.77766   0.00000  Uiso   1.00
H668   H     0.83715   0.19430   0.80916   0.00000  Uiso   1.00
H669   H     0.72160   0.12000   0.79585   0.00000  Uiso   1.00
H670   H     0.83891   0.32971   0.78959   0.00000  Uiso   1.00
H671   H     0.94272   0.13872   0.85357   0.00000  Uiso   1.00
H672   H     0.60648   0.02897   0.76291   0.00000  Uiso   1.00
H673   H     0.85384   0.47117   0.74973   0.00000  Uiso   1.00
H674   H     0.07276   0.06844   0.88463   0.00000  Uiso   1.00
H675   H     0.93728   0.12750   0.66918   0.00000  Uiso   1.00
H676   H     0.82722   0.04953   0.64818   0.00000  Uiso   1.00
H677   H     0.94453   0.25925   0.64193   0.00000  Uiso   1.00
H678   H     0.04834   0.06826   0.70590   0.00000  Uiso   1.00
H679   H     0.69220   0.97178   0.64306   0.00000  Uiso   1.00
H680   H     0.93957   0.41399   0.62988   0.00000  Uiso   1.00
H681   H     0.15848   0.01125   0.76478   0.00000  Uiso   1.00
O682   O     0.57512   0.95031   0.69170   0.00000  Uiso   1.00
O683   O     0.89967   0.53046   0.67440   0.00000  Uiso   1.00
O684   O     0.18687   0.00208   0.85139   0.00000  Uiso   1.00
N685   N     0.64176   0.02620   0.73759   0.00000  Uiso   1.00
N686   N     0.87302   0.43963   0.72526   0.00000  Uiso   1.00
N687   N     0.07770   0.06313   0.85138   0.00000  Uiso   1.00
N688   N     0.68789   0.99543   0.67310   0.00000  Uiso   1.00
N689   N     0.91915   0.40886   0.66077   0.00000  Uiso   1.00
N690   N     0.12383   0.03235   0.78689   0.00000  Uiso   1.00
C691   C     0.36009   0.67899   0.27709   0.00000  Uiso   1.00
C692   C     0.31120   0.62935   0.25045   0.00000  Uiso   1.00
C693   C     0.24439   0.60477   0.26397   0.00000  Uiso   1.00
C694   C     0.20804   0.55978   0.23480   0.00000  Uiso   1.00
C695   C     0.12762   0.48572   0.19969   0.00000  Uiso   1.00
C696   C     0.37492   0.74330   0.24705   0.00000  Uiso   1.00
C697   C     0.36170   0.81452   0.25771   0.00000  Uiso   1.00
C698   C     0.37901   0.86545   0.22568   0.00000  Uiso   1.00
C699   C     0.39757   0.96830   0.18530   0.00000  Uiso   1.00
C700   C     0.43132   0.63952   0.28181   0.00000  Uiso   1.00
C701   C     0.46554   0.62350   0.32169   0.00000  Uiso   1.00
C702   C     0.53034   0.58708   0.31893   0.00000  Uiso   1.00
C703   C     0.63648   0.52880   0.33251   0.00000  Uiso   1.00
C704   C     0.41434   0.64280   0.20125   0.00000  Uiso   1.00
C705   C     0.34066   0.60970   0.20925   0.00000  Uiso   1.00
C706   C     0.30441   0.56473   0.18006   0.00000  Uiso   1.00
C707   C     0.23756   0.54008   0.19353   0.00000  Uiso   1.00
C708   C     0.40439   0.72365   0.20585   0.00000  Uiso   1.00
C709   C     0.42172   0.77448   0.17380   0.00000  Uiso   1.00
C710   C     0.40853   0.84576   0.18441   0.00000  Uiso   1.00
C711   C     0.46079   0.61987   0.24061   0.00000  Uiso   1.00
C712   C     0.52555   0.58346   0.23778   0.00000  Uiso   1.00
C713   C     0.55986   0.56739   0.27766   0.00000  Uiso   1.00
H714   H     0.33715   0.69430   0.30916   0.00000  Uiso   1.00
H715   H     0.22160   0.62000   0.29585   0.00000  Uiso   1.00
H716   H     0.33891   0.82971   0.28959   0.00000  Uiso   1.00
H717   H     0.44272   0.63872   0.35357   0.00000  Uiso   1.00
H718   H     0.10648   0.52897   0.26291   0.00000  Uiso   1.00
H719   H     0.35384   0.97117   0.24973   0.00000  Uiso   1.00
H720   H     0.57276   0.56844   0.38463   0.00000  Uiso   1.00
H721   H     0.43728   0.62750   0.16918   0.00000  Uiso   1.00
H722   H     0.32722   0.54953   0.14818   0.00000  Uiso   1.00
H723   H     0.44453   0.75925   0.14193   0.00000  Uiso   1.00
H724   H     0.54834   0.56826   0.20590   0.00000  Uiso   1.00
H725   H     0.19220   0.47178   0.14306   0.00000  Uiso   1.00
H726   H     0.43957   0.91399   0.12988   0.00000  Uiso   1.00
H727   H     0.65848   0.51125   0.26478   0.00000  Uiso   1.00
O728   O     0.07512   0.45031   0.19170   0.00000  Uiso   1.00
O729   O     0.39967   0.03046   0.17440   0.00000  Uiso   1.00
O730   O     0.68687   0.50208   0.35139   0.00000  Uiso   1.00
N731   N     0.14176   0.52620   0.23759   0.00000  Uiso   1.00
N732   N     0.37302   0.93963   0.22526   0.00000  Uiso   1.00
N733   N     0.57770   0.56313   0.35138   0.00000  Uiso   1.00
N734   N     0.18789   0.49543   0.17310   0.00000  Uiso   1.00
N735   N     0.41915   0.90886   0.16077   0.00000  Uiso   1.00
N736   N     0.62383   0.53235   0.28689   0.00000  Uiso   1.00
