data_job_01322
_audit_creation_date              2018-12-19
_audit_creation_method            'Materials Studio'
_symmetry_space_group_name_H-M    'P1'
_symmetry_Int_Tables_number       1
_symmetry_cell_setting            triclinic
loop_
_symmetry_equiv_pos_as_xyz
  x,y,z
_cell_length_a                    42.3813
_cell_length_b                    42.3813
_cell_length_c                    7.1225
_cell_angle_alpha                 90.0000
_cell_angle_beta                  90.0000
_cell_angle_gamma                 90.0000
loop_
_atom_site_label
_atom_site_type_symbol
_atom_site_fract_x
_atom_site_fract_y
_atom_site_fract_z
_atom_site_U_iso_or_equiv
_atom_site_adp_type
_atom_site_occupancy
C1     C     0.69470   0.39027   0.14248   0.00000  Uiso   1.00
C2     C     0.72164   0.37647   0.25821   0.00000  Uiso   1.00
C3     C     0.74713   0.35967   0.18770   0.00000  Uiso   1.00
C4     C     0.76928   0.34903   0.31658   0.00000  Uiso   1.00
C5     C     0.81161   0.32669   0.46701   0.00000  Uiso   1.00
C6     C     0.66444   0.37642   0.22403   0.00000  Uiso   1.00
C7     C     0.64184   0.35959   0.12477   0.00000  Uiso   1.00
C8     C     0.61584   0.34891   0.22489   0.00000  Uiso   1.00
C9     C     0.56936   0.32651   0.32223   0.00000  Uiso   1.00
C10    C     0.69389   0.42541   0.18800   0.00000  Uiso   1.00
C11    C     0.69605   0.44978   0.05845   0.00000  Uiso   1.00
C12    C     0.69483   0.48035   0.12823   0.00000  Uiso   1.00
C13    C     0.69408   0.53402   0.16963   0.00000  Uiso   1.00
C14    C     0.68871   0.40122   0.49677   0.00000  Uiso   1.00
C15    C     0.71839   0.38242   0.45064   0.00000  Uiso   1.00
C16    C     0.74050   0.37180   0.57967   0.00000  Uiso   1.00
C17    C     0.76602   0.35499   0.50936   0.00000  Uiso   1.00
C18    C     0.66119   0.38237   0.41646   0.00000  Uiso   1.00
C19    C     0.63522   0.37171   0.51675   0.00000  Uiso   1.00
C20    C     0.61258   0.35487   0.41767   0.00000  Uiso   1.00
C21    C     0.69064   0.43137   0.38044   0.00000  Uiso   1.00
C22    C     0.68942   0.46190   0.45043   0.00000  Uiso   1.00
C23    C     0.69157   0.48631   0.32102   0.00000  Uiso   1.00
H24    H     0.69723   0.38563   0.99266   0.00000  Uiso   1.00
H25    H     0.74964   0.35507   0.03876   0.00000  Uiso   1.00
H26    H     0.64437   0.35499   0.97585   0.00000  Uiso   1.00
H27    H     0.69856   0.44516   0.90955   0.00000  Uiso   1.00
H28    H     0.80631   0.32380   0.17474   0.00000  Uiso   1.00
H29    H     0.58433   0.32364   0.04207   0.00000  Uiso   1.00
H30    H     0.69861   0.51379   0.90225   0.00000  Uiso   1.00
H31    H     0.68617   0.40586   0.64659   0.00000  Uiso   1.00
H32    H     0.73798   0.37641   0.72858   0.00000  Uiso   1.00
H33    H     0.63271   0.37632   0.66566   0.00000  Uiso   1.00
H34    H     0.68690   0.46650   0.59936   0.00000  Uiso   1.00
H35    H     0.79684   0.34112   0.73463   0.00000  Uiso   1.00
H36    H     0.57486   0.34096   0.60195   0.00000  Uiso   1.00
H37    H     0.68915   0.53111   0.46213   0.00000  Uiso   1.00
O38    O     0.83585   0.31271   0.49683   0.00000  Uiso   1.00
O39    O     0.54462   0.31251   0.32275   0.00000  Uiso   1.00
O40    O     0.69456   0.56198   0.13931   0.00000  Uiso   1.00
N41    N     0.79697   0.33193   0.29526   0.00000  Uiso   1.00
N42    N     0.58944   0.33177   0.17122   0.00000  Uiso   1.00
N43    N     0.69628   0.50954   0.04049   0.00000  Uiso   1.00
N44    N     0.79188   0.34124   0.59653   0.00000  Uiso   1.00
N45    N     0.58435   0.34109   0.47249   0.00000  Uiso   1.00
N46    N     0.69118   0.51886   0.34176   0.00000  Uiso   1.00
C47    C     0.19470   0.89027   0.64248   0.00000  Uiso   1.00
C48    C     0.22164   0.87647   0.75821   0.00000  Uiso   1.00
C49    C     0.24713   0.85967   0.68770   0.00000  Uiso   1.00
C50    C     0.26928   0.84903   0.81658   0.00000  Uiso   1.00
C51    C     0.31161   0.82669   0.96701   0.00000  Uiso   1.00
C52    C     0.16444   0.87642   0.72403   0.00000  Uiso   1.00
C53    C     0.14184   0.85959   0.62477   0.00000  Uiso   1.00
C54    C     0.11584   0.84891   0.72489   0.00000  Uiso   1.00
C55    C     0.06936   0.82651   0.82223   0.00000  Uiso   1.00
C56    C     0.19389   0.92541   0.68800   0.00000  Uiso   1.00
C57    C     0.19605   0.94978   0.55845   0.00000  Uiso   1.00
C58    C     0.19483   0.98035   0.62823   0.00000  Uiso   1.00
C59    C     0.19408   0.03402   0.66963   0.00000  Uiso   1.00
C60    C     0.18871   0.90122   0.99677   0.00000  Uiso   1.00
C61    C     0.21839   0.88242   0.95064   0.00000  Uiso   1.00
C62    C     0.24050   0.87180   0.07967   0.00000  Uiso   1.00
C63    C     0.26602   0.85499   0.00936   0.00000  Uiso   1.00
C64    C     0.16119   0.88237   0.91646   0.00000  Uiso   1.00
C65    C     0.13522   0.87171   0.01675   0.00000  Uiso   1.00
C66    C     0.11258   0.85487   0.91767   0.00000  Uiso   1.00
C67    C     0.19064   0.93137   0.88044   0.00000  Uiso   1.00
C68    C     0.18942   0.96190   0.95043   0.00000  Uiso   1.00
C69    C     0.19157   0.98631   0.82102   0.00000  Uiso   1.00
H70    H     0.19723   0.88563   0.49266   0.00000  Uiso   1.00
H71    H     0.24964   0.85507   0.53876   0.00000  Uiso   1.00
H72    H     0.14437   0.85499   0.47585   0.00000  Uiso   1.00
H73    H     0.19856   0.94516   0.40955   0.00000  Uiso   1.00
H74    H     0.30631   0.82380   0.67474   0.00000  Uiso   1.00
H75    H     0.08433   0.82364   0.54207   0.00000  Uiso   1.00
H76    H     0.19861   0.01379   0.40225   0.00000  Uiso   1.00
H77    H     0.18617   0.90586   0.14659   0.00000  Uiso   1.00
H78    H     0.23798   0.87641   0.22858   0.00000  Uiso   1.00
H79    H     0.13271   0.87632   0.16566   0.00000  Uiso   1.00
H80    H     0.18690   0.96650   0.09936   0.00000  Uiso   1.00
H81    H     0.29684   0.84112   0.23463   0.00000  Uiso   1.00
H82    H     0.07486   0.84096   0.10195   0.00000  Uiso   1.00
H83    H     0.18915   0.03111   0.96213   0.00000  Uiso   1.00
O84    O     0.33585   0.81271   0.99683   0.00000  Uiso   1.00
O85    O     0.04462   0.81251   0.82275   0.00000  Uiso   1.00
O86    O     0.19456   0.06198   0.63931   0.00000  Uiso   1.00
N87    N     0.29697   0.83193   0.79526   0.00000  Uiso   1.00
N88    N     0.08944   0.83177   0.67122   0.00000  Uiso   1.00
N89    N     0.19628   0.00954   0.54049   0.00000  Uiso   1.00
N90    N     0.29188   0.84124   0.09653   0.00000  Uiso   1.00
N91    N     0.08435   0.84109   0.97249   0.00000  Uiso   1.00
N92    N     0.19118   0.01886   0.84176   0.00000  Uiso   1.00
C93    C     0.80530   0.10973   0.64248   0.00000  Uiso   1.00
C94    C     0.77836   0.12353   0.75821   0.00000  Uiso   1.00
C95    C     0.75287   0.14033   0.68770   0.00000  Uiso   1.00
C96    C     0.73072   0.15097   0.81658   0.00000  Uiso   1.00
C97    C     0.68839   0.17331   0.96701   0.00000  Uiso   1.00
C98    C     0.83556   0.12358   0.72403   0.00000  Uiso   1.00
C99    C     0.85816   0.14041   0.62477   0.00000  Uiso   1.00
C100   C     0.88416   0.15109   0.72489   0.00000  Uiso   1.00
C101   C     0.93064   0.17349   0.82223   0.00000  Uiso   1.00
C102   C     0.80611   0.07459   0.68800   0.00000  Uiso   1.00
C103   C     0.80395   0.05022   0.55845   0.00000  Uiso   1.00
C104   C     0.80517   0.01965   0.62823   0.00000  Uiso   1.00
C105   C     0.80592   0.96598   0.66963   0.00000  Uiso   1.00
C106   C     0.81129   0.09878   0.99677   0.00000  Uiso   1.00
C107   C     0.78161   0.11758   0.95064   0.00000  Uiso   1.00
C108   C     0.75950   0.12820   0.07967   0.00000  Uiso   1.00
C109   C     0.73398   0.14501   0.00936   0.00000  Uiso   1.00
C110   C     0.83881   0.11763   0.91646   0.00000  Uiso   1.00
C111   C     0.86478   0.12829   0.01675   0.00000  Uiso   1.00
C112   C     0.88742   0.14513   0.91767   0.00000  Uiso   1.00
C113   C     0.80936   0.06863   0.88044   0.00000  Uiso   1.00
C114   C     0.81058   0.03810   0.95043   0.00000  Uiso   1.00
C115   C     0.80843   0.01369   0.82102   0.00000  Uiso   1.00
H116   H     0.80277   0.11437   0.49266   0.00000  Uiso   1.00
H117   H     0.75036   0.14493   0.53876   0.00000  Uiso   1.00
H118   H     0.85563   0.14501   0.47585   0.00000  Uiso   1.00
H119   H     0.80144   0.05484   0.40955   0.00000  Uiso   1.00
H120   H     0.69369   0.17620   0.67474   0.00000  Uiso   1.00
H121   H     0.91567   0.17636   0.54207   0.00000  Uiso   1.00
H122   H     0.80139   0.98621   0.40225   0.00000  Uiso   1.00
H123   H     0.81383   0.09414   0.14659   0.00000  Uiso   1.00
H124   H     0.76202   0.12359   0.22858   0.00000  Uiso   1.00
H125   H     0.86729   0.12368   0.16566   0.00000  Uiso   1.00
H126   H     0.81310   0.03350   0.09936   0.00000  Uiso   1.00
H127   H     0.70316   0.15888   0.23463   0.00000  Uiso   1.00
H128   H     0.92514   0.15904   0.10195   0.00000  Uiso   1.00
H129   H     0.81085   0.96889   0.96213   0.00000  Uiso   1.00
O130   O     0.66415   0.18729   0.99683   0.00000  Uiso   1.00
O131   O     0.95538   0.18749   0.82275   0.00000  Uiso   1.00
O132   O     0.80544   0.93802   0.63931   0.00000  Uiso   1.00
N133   N     0.70303   0.16807   0.79526   0.00000  Uiso   1.00
N134   N     0.91056   0.16823   0.67122   0.00000  Uiso   1.00
N135   N     0.80372   0.99046   0.54049   0.00000  Uiso   1.00
N136   N     0.70812   0.15876   0.09653   0.00000  Uiso   1.00
N137   N     0.91565   0.15891   0.97249   0.00000  Uiso   1.00
N138   N     0.80882   0.98114   0.84176   0.00000  Uiso   1.00
C139   C     0.30530   0.60973   0.14248   0.00000  Uiso   1.00
C140   C     0.27836   0.62353   0.25821   0.00000  Uiso   1.00
C141   C     0.25287   0.64033   0.18770   0.00000  Uiso   1.00
C142   C     0.23072   0.65097   0.31658   0.00000  Uiso   1.00
C143   C     0.18839   0.67331   0.46701   0.00000  Uiso   1.00
C144   C     0.33556   0.62358   0.22403   0.00000  Uiso   1.00
C145   C     0.35816   0.64041   0.12477   0.00000  Uiso   1.00
C146   C     0.38416   0.65109   0.22489   0.00000  Uiso   1.00
C147   C     0.43064   0.67349   0.32223   0.00000  Uiso   1.00
C148   C     0.30611   0.57459   0.18800   0.00000  Uiso   1.00
C149   C     0.30395   0.55022   0.05845   0.00000  Uiso   1.00
C150   C     0.30517   0.51965   0.12823   0.00000  Uiso   1.00
C151   C     0.30592   0.46598   0.16963   0.00000  Uiso   1.00
C152   C     0.31129   0.59878   0.49677   0.00000  Uiso   1.00
C153   C     0.28161   0.61758   0.45064   0.00000  Uiso   1.00
C154   C     0.25950   0.62820   0.57967   0.00000  Uiso   1.00
C155   C     0.23398   0.64501   0.50936   0.00000  Uiso   1.00
C156   C     0.33881   0.61763   0.41646   0.00000  Uiso   1.00
C157   C     0.36478   0.62829   0.51675   0.00000  Uiso   1.00
C158   C     0.38742   0.64513   0.41767   0.00000  Uiso   1.00
C159   C     0.30936   0.56863   0.38044   0.00000  Uiso   1.00
C160   C     0.31058   0.53810   0.45043   0.00000  Uiso   1.00
C161   C     0.30843   0.51369   0.32102   0.00000  Uiso   1.00
H162   H     0.30277   0.61437   0.99266   0.00000  Uiso   1.00
H163   H     0.25036   0.64493   0.03876   0.00000  Uiso   1.00
H164   H     0.35563   0.64501   0.97585   0.00000  Uiso   1.00
H165   H     0.30144   0.55484   0.90955   0.00000  Uiso   1.00
H166   H     0.19369   0.67620   0.17474   0.00000  Uiso   1.00
H167   H     0.41567   0.67636   0.04207   0.00000  Uiso   1.00
H168   H     0.30139   0.48621   0.90225   0.00000  Uiso   1.00
H169   H     0.31383   0.59414   0.64659   0.00000  Uiso   1.00
H170   H     0.26202   0.62359   0.72858   0.00000  Uiso   1.00
H171   H     0.36729   0.62368   0.66566   0.00000  Uiso   1.00
H172   H     0.31310   0.53350   0.59936   0.00000  Uiso   1.00
H173   H     0.20316   0.65888   0.73463   0.00000  Uiso   1.00
H174   H     0.42514   0.65904   0.60195   0.00000  Uiso   1.00
H175   H     0.31085   0.46889   0.46213   0.00000  Uiso   1.00
O176   O     0.16415   0.68729   0.49683   0.00000  Uiso   1.00
O177   O     0.45538   0.68749   0.32275   0.00000  Uiso   1.00
O178   O     0.30544   0.43802   0.13931   0.00000  Uiso   1.00
N179   N     0.20303   0.66807   0.29526   0.00000  Uiso   1.00
N180   N     0.41056   0.66823   0.17122   0.00000  Uiso   1.00
N181   N     0.30372   0.49046   0.04049   0.00000  Uiso   1.00
N182   N     0.20812   0.65876   0.59653   0.00000  Uiso   1.00
N183   N     0.41565   0.65891   0.47249   0.00000  Uiso   1.00
N184   N     0.30882   0.48114   0.34176   0.00000  Uiso   1.00
C185   C     0.60973   0.19470   0.39248   0.00000  Uiso   1.00
C186   C     0.62353   0.22164   0.50821   0.00000  Uiso   1.00
C187   C     0.64033   0.24713   0.43770   0.00000  Uiso   1.00
C188   C     0.65097   0.26928   0.56658   0.00000  Uiso   1.00
C189   C     0.67331   0.31161   0.71701   0.00000  Uiso   1.00
C190   C     0.62358   0.16444   0.47403   0.00000  Uiso   1.00
C191   C     0.64041   0.14184   0.37477   0.00000  Uiso   1.00
C192   C     0.65109   0.11584   0.47489   0.00000  Uiso   1.00
C193   C     0.67349   0.06936   0.57223   0.00000  Uiso   1.00
C194   C     0.57459   0.19389   0.43800   0.00000  Uiso   1.00
C195   C     0.55022   0.19605   0.30845   0.00000  Uiso   1.00
C196   C     0.51965   0.19483   0.37823   0.00000  Uiso   1.00
C197   C     0.46598   0.19408   0.41963   0.00000  Uiso   1.00
C198   C     0.59878   0.18871   0.74677   0.00000  Uiso   1.00
C199   C     0.61758   0.21839   0.70064   0.00000  Uiso   1.00
C200   C     0.62820   0.24050   0.82967   0.00000  Uiso   1.00
C201   C     0.64501   0.26602   0.75936   0.00000  Uiso   1.00
C202   C     0.61763   0.16119   0.66646   0.00000  Uiso   1.00
C203   C     0.62829   0.13522   0.76675   0.00000  Uiso   1.00
C204   C     0.64513   0.11258   0.66767   0.00000  Uiso   1.00
C205   C     0.56863   0.19064   0.63044   0.00000  Uiso   1.00
C206   C     0.53810   0.18942   0.70043   0.00000  Uiso   1.00
C207   C     0.51369   0.19157   0.57102   0.00000  Uiso   1.00
H208   H     0.61437   0.19723   0.24266   0.00000  Uiso   1.00
H209   H     0.64493   0.24964   0.28876   0.00000  Uiso   1.00
H210   H     0.64501   0.14437   0.22585   0.00000  Uiso   1.00
H211   H     0.55484   0.19856   0.15955   0.00000  Uiso   1.00
H212   H     0.67620   0.30631   0.42474   0.00000  Uiso   1.00
H213   H     0.67636   0.08433   0.29207   0.00000  Uiso   1.00
H214   H     0.48621   0.19861   0.15225   0.00000  Uiso   1.00
H215   H     0.59414   0.18617   0.89659   0.00000  Uiso   1.00
H216   H     0.62359   0.23798   0.97858   0.00000  Uiso   1.00
H217   H     0.62368   0.13271   0.91566   0.00000  Uiso   1.00
H218   H     0.53350   0.18690   0.84936   0.00000  Uiso   1.00
H219   H     0.65888   0.29684   0.98463   0.00000  Uiso   1.00
H220   H     0.65904   0.07486   0.85195   0.00000  Uiso   1.00
H221   H     0.46889   0.18915   0.71213   0.00000  Uiso   1.00
O222   O     0.68729   0.33585   0.74683   0.00000  Uiso   1.00
O223   O     0.68749   0.04462   0.57275   0.00000  Uiso   1.00
O224   O     0.43802   0.19456   0.38931   0.00000  Uiso   1.00
N225   N     0.66807   0.29697   0.54526   0.00000  Uiso   1.00
N226   N     0.66823   0.08944   0.42122   0.00000  Uiso   1.00
N227   N     0.49046   0.19628   0.29049   0.00000  Uiso   1.00
N228   N     0.65876   0.29188   0.84653   0.00000  Uiso   1.00
N229   N     0.65891   0.08435   0.72249   0.00000  Uiso   1.00
N230   N     0.48114   0.19118   0.59176   0.00000  Uiso   1.00
C231   C     0.10973   0.69470   0.89248   0.00000  Uiso   1.00
C232   C     0.12353   0.72164   0.00821   0.00000  Uiso   1.00
C233   C     0.14033   0.74713   0.93770   0.00000  Uiso   1.00
C234   C     0.15097   0.76928   0.06658   0.00000  Uiso   1.00
C235   C     0.17331   0.81161   0.21701   0.00000  Uiso   1.00
C236   C     0.12358   0.66444   0.97403   0.00000  Uiso   1.00
C237   C     0.14041   0.64184   0.87477   0.00000  Uiso   1.00
C238   C     0.15109   0.61584   0.97489   0.00000  Uiso   1.00
C239   C     0.17349   0.56936   0.07223   0.00000  Uiso   1.00
C240   C     0.07459   0.69389   0.93800   0.00000  Uiso   1.00
C241   C     0.05022   0.69605   0.80845   0.00000  Uiso   1.00
C242   C     0.01965   0.69483   0.87823   0.00000  Uiso   1.00
C243   C     0.96598   0.69408   0.91963   0.00000  Uiso   1.00
C244   C     0.09878   0.68871   0.24677   0.00000  Uiso   1.00
C245   C     0.11758   0.71839   0.20064   0.00000  Uiso   1.00
C246   C     0.12820   0.74050   0.32967   0.00000  Uiso   1.00
C247   C     0.14501   0.76602   0.25936   0.00000  Uiso   1.00
C248   C     0.11763   0.66119   0.16646   0.00000  Uiso   1.00
C249   C     0.12829   0.63522   0.26675   0.00000  Uiso   1.00
C250   C     0.14513   0.61258   0.16767   0.00000  Uiso   1.00
C251   C     0.06863   0.69064   0.13044   0.00000  Uiso   1.00
C252   C     0.03810   0.68942   0.20043   0.00000  Uiso   1.00
C253   C     0.01369   0.69157   0.07102   0.00000  Uiso   1.00
H254   H     0.11437   0.69723   0.74266   0.00000  Uiso   1.00
H255   H     0.14493   0.74964   0.78876   0.00000  Uiso   1.00
H256   H     0.14501   0.64437   0.72585   0.00000  Uiso   1.00
H257   H     0.05484   0.69856   0.65955   0.00000  Uiso   1.00
H258   H     0.17620   0.80631   0.92474   0.00000  Uiso   1.00
H259   H     0.17636   0.58433   0.79207   0.00000  Uiso   1.00
H260   H     0.98621   0.69861   0.65225   0.00000  Uiso   1.00
H261   H     0.09414   0.68617   0.39659   0.00000  Uiso   1.00
H262   H     0.12359   0.73798   0.47858   0.00000  Uiso   1.00
H263   H     0.12368   0.63271   0.41566   0.00000  Uiso   1.00
H264   H     0.03350   0.68690   0.34936   0.00000  Uiso   1.00
H265   H     0.15888   0.79684   0.48463   0.00000  Uiso   1.00
H266   H     0.15904   0.57486   0.35195   0.00000  Uiso   1.00
H267   H     0.96889   0.68915   0.21213   0.00000  Uiso   1.00
O268   O     0.18729   0.83585   0.24683   0.00000  Uiso   1.00
O269   O     0.18749   0.54462   0.07275   0.00000  Uiso   1.00
O270   O     0.93802   0.69456   0.88931   0.00000  Uiso   1.00
N271   N     0.16807   0.79697   0.04526   0.00000  Uiso   1.00
N272   N     0.16823   0.58944   0.92122   0.00000  Uiso   1.00
N273   N     0.99046   0.69628   0.79049   0.00000  Uiso   1.00
N274   N     0.15876   0.79188   0.34653   0.00000  Uiso   1.00
N275   N     0.15891   0.58435   0.22249   0.00000  Uiso   1.00
N276   N     0.98114   0.69118   0.09176   0.00000  Uiso   1.00
C277   C     0.89027   0.30530   0.89248   0.00000  Uiso   1.00
C278   C     0.87647   0.27836   0.00821   0.00000  Uiso   1.00
C279   C     0.85967   0.25287   0.93770   0.00000  Uiso   1.00
C280   C     0.84903   0.23072   0.06658   0.00000  Uiso   1.00
C281   C     0.82669   0.18839   0.21701   0.00000  Uiso   1.00
C282   C     0.87642   0.33556   0.97403   0.00000  Uiso   1.00
C283   C     0.85959   0.35816   0.87477   0.00000  Uiso   1.00
C284   C     0.84891   0.38416   0.97489   0.00000  Uiso   1.00
C285   C     0.82651   0.43064   0.07223   0.00000  Uiso   1.00
C286   C     0.92541   0.30611   0.93800   0.00000  Uiso   1.00
C287   C     0.94978   0.30395   0.80845   0.00000  Uiso   1.00
C288   C     0.98035   0.30517   0.87823   0.00000  Uiso   1.00
C289   C     0.03402   0.30592   0.91963   0.00000  Uiso   1.00
C290   C     0.90122   0.31129   0.24677   0.00000  Uiso   1.00
C291   C     0.88242   0.28161   0.20064   0.00000  Uiso   1.00
C292   C     0.87180   0.25950   0.32967   0.00000  Uiso   1.00
C293   C     0.85499   0.23398   0.25936   0.00000  Uiso   1.00
C294   C     0.88237   0.33881   0.16646   0.00000  Uiso   1.00
C295   C     0.87171   0.36478   0.26675   0.00000  Uiso   1.00
C296   C     0.85487   0.38742   0.16767   0.00000  Uiso   1.00
C297   C     0.93137   0.30936   0.13044   0.00000  Uiso   1.00
C298   C     0.96190   0.31058   0.20043   0.00000  Uiso   1.00
C299   C     0.98631   0.30843   0.07102   0.00000  Uiso   1.00
H300   H     0.88563   0.30277   0.74266   0.00000  Uiso   1.00
H301   H     0.85507   0.25036   0.78876   0.00000  Uiso   1.00
H302   H     0.85499   0.35563   0.72585   0.00000  Uiso   1.00
H303   H     0.94516   0.30144   0.65955   0.00000  Uiso   1.00
H304   H     0.82380   0.19369   0.92474   0.00000  Uiso   1.00
H305   H     0.82364   0.41567   0.79207   0.00000  Uiso   1.00
H306   H     0.01379   0.30139   0.65225   0.00000  Uiso   1.00
H307   H     0.90586   0.31383   0.39659   0.00000  Uiso   1.00
H308   H     0.87641   0.26202   0.47858   0.00000  Uiso   1.00
H309   H     0.87632   0.36729   0.41566   0.00000  Uiso   1.00
H310   H     0.96650   0.31310   0.34936   0.00000  Uiso   1.00
H311   H     0.84112   0.20316   0.48463   0.00000  Uiso   1.00
H312   H     0.84096   0.42514   0.35195   0.00000  Uiso   1.00
H313   H     0.03111   0.31085   0.21213   0.00000  Uiso   1.00
O314   O     0.81271   0.16415   0.24683   0.00000  Uiso   1.00
O315   O     0.81251   0.45538   0.07275   0.00000  Uiso   1.00
O316   O     0.06198   0.30544   0.88931   0.00000  Uiso   1.00
N317   N     0.83193   0.20303   0.04526   0.00000  Uiso   1.00
N318   N     0.83177   0.41056   0.92122   0.00000  Uiso   1.00
N319   N     0.00954   0.30372   0.79049   0.00000  Uiso   1.00
N320   N     0.84124   0.20812   0.34653   0.00000  Uiso   1.00
N321   N     0.84109   0.41565   0.22249   0.00000  Uiso   1.00
N322   N     0.01886   0.30882   0.09176   0.00000  Uiso   1.00
C323   C     0.39027   0.80530   0.39248   0.00000  Uiso   1.00
C324   C     0.37647   0.77836   0.50821   0.00000  Uiso   1.00
C325   C     0.35967   0.75287   0.43770   0.00000  Uiso   1.00
C326   C     0.34903   0.73072   0.56658   0.00000  Uiso   1.00
C327   C     0.32669   0.68839   0.71701   0.00000  Uiso   1.00
C328   C     0.37642   0.83556   0.47403   0.00000  Uiso   1.00
C329   C     0.35959   0.85816   0.37477   0.00000  Uiso   1.00
C330   C     0.34891   0.88416   0.47489   0.00000  Uiso   1.00
C331   C     0.32651   0.93064   0.57223   0.00000  Uiso   1.00
C332   C     0.42541   0.80611   0.43800   0.00000  Uiso   1.00
C333   C     0.44978   0.80395   0.30845   0.00000  Uiso   1.00
C334   C     0.48035   0.80517   0.37823   0.00000  Uiso   1.00
C335   C     0.53402   0.80592   0.41963   0.00000  Uiso   1.00
C336   C     0.40122   0.81129   0.74677   0.00000  Uiso   1.00
C337   C     0.38242   0.78161   0.70064   0.00000  Uiso   1.00
C338   C     0.37180   0.75950   0.82967   0.00000  Uiso   1.00
C339   C     0.35499   0.73398   0.75936   0.00000  Uiso   1.00
C340   C     0.38237   0.83881   0.66646   0.00000  Uiso   1.00
C341   C     0.37171   0.86478   0.76675   0.00000  Uiso   1.00
C342   C     0.35487   0.88742   0.66767   0.00000  Uiso   1.00
C343   C     0.43137   0.80936   0.63044   0.00000  Uiso   1.00
C344   C     0.46190   0.81058   0.70043   0.00000  Uiso   1.00
C345   C     0.48631   0.80843   0.57102   0.00000  Uiso   1.00
H346   H     0.38563   0.80277   0.24266   0.00000  Uiso   1.00
H347   H     0.35507   0.75036   0.28876   0.00000  Uiso   1.00
H348   H     0.35499   0.85563   0.22585   0.00000  Uiso   1.00
H349   H     0.44516   0.80144   0.15955   0.00000  Uiso   1.00
H350   H     0.32380   0.69369   0.42474   0.00000  Uiso   1.00
H351   H     0.32364   0.91567   0.29207   0.00000  Uiso   1.00
H352   H     0.51379   0.80139   0.15225   0.00000  Uiso   1.00
H353   H     0.40586   0.81383   0.89659   0.00000  Uiso   1.00
H354   H     0.37641   0.76202   0.97858   0.00000  Uiso   1.00
H355   H     0.37632   0.86729   0.91566   0.00000  Uiso   1.00
H356   H     0.46650   0.81310   0.84936   0.00000  Uiso   1.00
H357   H     0.34112   0.70316   0.98463   0.00000  Uiso   1.00
H358   H     0.34096   0.92514   0.85195   0.00000  Uiso   1.00
H359   H     0.53111   0.81085   0.71213   0.00000  Uiso   1.00
O360   O     0.31271   0.66415   0.74683   0.00000  Uiso   1.00
O361   O     0.31251   0.95538   0.57275   0.00000  Uiso   1.00
O362   O     0.56198   0.80544   0.38931   0.00000  Uiso   1.00
N363   N     0.33193   0.70303   0.54526   0.00000  Uiso   1.00
N364   N     0.33177   0.91056   0.42122   0.00000  Uiso   1.00
N365   N     0.50954   0.80372   0.29049   0.00000  Uiso   1.00
N366   N     0.34124   0.70812   0.84653   0.00000  Uiso   1.00
N367   N     0.34109   0.91565   0.72249   0.00000  Uiso   1.00
N368   N     0.51886   0.80882   0.59176   0.00000  Uiso   1.00
C369   C     0.30530   0.10973   0.10752   0.00000  Uiso   1.00
C370   C     0.27836   0.12353   0.99179   0.00000  Uiso   1.00
C371   C     0.25287   0.14033   0.06230   0.00000  Uiso   1.00
C372   C     0.23072   0.15097   0.93342   0.00000  Uiso   1.00
C373   C     0.18839   0.17331   0.78299   0.00000  Uiso   1.00
C374   C     0.33556   0.12358   0.02597   0.00000  Uiso   1.00
C375   C     0.35816   0.14041   0.12523   0.00000  Uiso   1.00
C376   C     0.38416   0.15109   0.02511   0.00000  Uiso   1.00
C377   C     0.43064   0.17349   0.92777   0.00000  Uiso   1.00
C378   C     0.30611   0.07459   0.06200   0.00000  Uiso   1.00
C379   C     0.30395   0.05022   0.19155   0.00000  Uiso   1.00
C380   C     0.30517   0.01965   0.12177   0.00000  Uiso   1.00
C381   C     0.30592   0.96598   0.08037   0.00000  Uiso   1.00
C382   C     0.31129   0.09878   0.75323   0.00000  Uiso   1.00
C383   C     0.28161   0.11758   0.79936   0.00000  Uiso   1.00
C384   C     0.25950   0.12820   0.67033   0.00000  Uiso   1.00
C385   C     0.23398   0.14501   0.74064   0.00000  Uiso   1.00
C386   C     0.33881   0.11763   0.83354   0.00000  Uiso   1.00
C387   C     0.36478   0.12829   0.73325   0.00000  Uiso   1.00
C388   C     0.38742   0.14513   0.83233   0.00000  Uiso   1.00
C389   C     0.30936   0.06863   0.86956   0.00000  Uiso   1.00
C390   C     0.31058   0.03810   0.79957   0.00000  Uiso   1.00
C391   C     0.30843   0.01369   0.92898   0.00000  Uiso   1.00
H392   H     0.30277   0.11437   0.25734   0.00000  Uiso   1.00
H393   H     0.25036   0.14493   0.21124   0.00000  Uiso   1.00
H394   H     0.35563   0.14501   0.27415   0.00000  Uiso   1.00
H395   H     0.30144   0.05484   0.34045   0.00000  Uiso   1.00
H396   H     0.19369   0.17620   0.07526   0.00000  Uiso   1.00
H397   H     0.41567   0.17636   0.20793   0.00000  Uiso   1.00
H398   H     0.30139   0.98621   0.34775   0.00000  Uiso   1.00
H399   H     0.31383   0.09414   0.60341   0.00000  Uiso   1.00
H400   H     0.26202   0.12359   0.52142   0.00000  Uiso   1.00
H401   H     0.36729   0.12368   0.58434   0.00000  Uiso   1.00
H402   H     0.31310   0.03350   0.65064   0.00000  Uiso   1.00
H403   H     0.20316   0.15888   0.51537   0.00000  Uiso   1.00
H404   H     0.42514   0.15904   0.64805   0.00000  Uiso   1.00
H405   H     0.31085   0.96889   0.78787   0.00000  Uiso   1.00
O406   O     0.16415   0.18729   0.75317   0.00000  Uiso   1.00
O407   O     0.45538   0.18749   0.92725   0.00000  Uiso   1.00
O408   O     0.30544   0.93802   0.11069   0.00000  Uiso   1.00
N409   N     0.20303   0.16807   0.95474   0.00000  Uiso   1.00
N410   N     0.41056   0.16823   0.07878   0.00000  Uiso   1.00
N411   N     0.30372   0.99046   0.20951   0.00000  Uiso   1.00
N412   N     0.20812   0.15876   0.65347   0.00000  Uiso   1.00
N413   N     0.41565   0.15891   0.77751   0.00000  Uiso   1.00
N414   N     0.30882   0.98114   0.90824   0.00000  Uiso   1.00
C415   C     0.80530   0.60973   0.60752   0.00000  Uiso   1.00
C416   C     0.77836   0.62353   0.49179   0.00000  Uiso   1.00
C417   C     0.75287   0.64033   0.56230   0.00000  Uiso   1.00
C418   C     0.73072   0.65097   0.43342   0.00000  Uiso   1.00
C419   C     0.68839   0.67331   0.28299   0.00000  Uiso   1.00
C420   C     0.83556   0.62358   0.52597   0.00000  Uiso   1.00
C421   C     0.85816   0.64041   0.62523   0.00000  Uiso   1.00
C422   C     0.88416   0.65109   0.52511   0.00000  Uiso   1.00
C423   C     0.93064   0.67349   0.42777   0.00000  Uiso   1.00
C424   C     0.80611   0.57459   0.56200   0.00000  Uiso   1.00
C425   C     0.80395   0.55022   0.69155   0.00000  Uiso   1.00
C426   C     0.80517   0.51965   0.62177   0.00000  Uiso   1.00
C427   C     0.80592   0.46598   0.58037   0.00000  Uiso   1.00
C428   C     0.81129   0.59878   0.25323   0.00000  Uiso   1.00
C429   C     0.78161   0.61758   0.29936   0.00000  Uiso   1.00
C430   C     0.75950   0.62820   0.17033   0.00000  Uiso   1.00
C431   C     0.73398   0.64501   0.24064   0.00000  Uiso   1.00
C432   C     0.83881   0.61763   0.33354   0.00000  Uiso   1.00
C433   C     0.86478   0.62829   0.23325   0.00000  Uiso   1.00
C434   C     0.88742   0.64513   0.33233   0.00000  Uiso   1.00
C435   C     0.80936   0.56863   0.36956   0.00000  Uiso   1.00
C436   C     0.81058   0.53810   0.29957   0.00000  Uiso   1.00
C437   C     0.80843   0.51369   0.42898   0.00000  Uiso   1.00
H438   H     0.80277   0.61437   0.75734   0.00000  Uiso   1.00
H439   H     0.75036   0.64493   0.71124   0.00000  Uiso   1.00
H440   H     0.85563   0.64501   0.77415   0.00000  Uiso   1.00
H441   H     0.80144   0.55484   0.84045   0.00000  Uiso   1.00
H442   H     0.69369   0.67620   0.57526   0.00000  Uiso   1.00
H443   H     0.91567   0.67636   0.70793   0.00000  Uiso   1.00
H444   H     0.80139   0.48621   0.84775   0.00000  Uiso   1.00
H445   H     0.81383   0.59414   0.10341   0.00000  Uiso   1.00
H446   H     0.76202   0.62359   0.02142   0.00000  Uiso   1.00
H447   H     0.86729   0.62368   0.08434   0.00000  Uiso   1.00
H448   H     0.81310   0.53350   0.15064   0.00000  Uiso   1.00
H449   H     0.70316   0.65888   0.01537   0.00000  Uiso   1.00
H450   H     0.92514   0.65904   0.14805   0.00000  Uiso   1.00
H451   H     0.81085   0.46889   0.28787   0.00000  Uiso   1.00
O452   O     0.66415   0.68729   0.25317   0.00000  Uiso   1.00
O453   O     0.95538   0.68749   0.42725   0.00000  Uiso   1.00
O454   O     0.80544   0.43802   0.61069   0.00000  Uiso   1.00
N455   N     0.70303   0.66807   0.45474   0.00000  Uiso   1.00
N456   N     0.91056   0.66823   0.57878   0.00000  Uiso   1.00
N457   N     0.80372   0.49046   0.70951   0.00000  Uiso   1.00
N458   N     0.70812   0.65876   0.15347   0.00000  Uiso   1.00
N459   N     0.91565   0.65891   0.27751   0.00000  Uiso   1.00
N460   N     0.80882   0.48114   0.40824   0.00000  Uiso   1.00
C461   C     0.19470   0.39027   0.60752   0.00000  Uiso   1.00
C462   C     0.22164   0.37647   0.49179   0.00000  Uiso   1.00
C463   C     0.24713   0.35967   0.56230   0.00000  Uiso   1.00
C464   C     0.26928   0.34903   0.43342   0.00000  Uiso   1.00
C465   C     0.31161   0.32669   0.28299   0.00000  Uiso   1.00
C466   C     0.16444   0.37642   0.52597   0.00000  Uiso   1.00
C467   C     0.14184   0.35959   0.62523   0.00000  Uiso   1.00
C468   C     0.11584   0.34891   0.52511   0.00000  Uiso   1.00
C469   C     0.06936   0.32651   0.42777   0.00000  Uiso   1.00
C470   C     0.19389   0.42541   0.56200   0.00000  Uiso   1.00
C471   C     0.19605   0.44978   0.69155   0.00000  Uiso   1.00
C472   C     0.19483   0.48035   0.62177   0.00000  Uiso   1.00
C473   C     0.19408   0.53402   0.58037   0.00000  Uiso   1.00
C474   C     0.18871   0.40122   0.25323   0.00000  Uiso   1.00
C475   C     0.21839   0.38242   0.29936   0.00000  Uiso   1.00
C476   C     0.24050   0.37180   0.17033   0.00000  Uiso   1.00
C477   C     0.26602   0.35499   0.24064   0.00000  Uiso   1.00
C478   C     0.16119   0.38237   0.33354   0.00000  Uiso   1.00
C479   C     0.13522   0.37171   0.23325   0.00000  Uiso   1.00
C480   C     0.11258   0.35487   0.33233   0.00000  Uiso   1.00
C481   C     0.19064   0.43137   0.36956   0.00000  Uiso   1.00
C482   C     0.18942   0.46190   0.29957   0.00000  Uiso   1.00
C483   C     0.19157   0.48631   0.42898   0.00000  Uiso   1.00
H484   H     0.19723   0.38563   0.75734   0.00000  Uiso   1.00
H485   H     0.24964   0.35507   0.71124   0.00000  Uiso   1.00
H486   H     0.14437   0.35499   0.77415   0.00000  Uiso   1.00
H487   H     0.19856   0.44516   0.84045   0.00000  Uiso   1.00
H488   H     0.30631   0.32380   0.57526   0.00000  Uiso   1.00
H489   H     0.08433   0.32364   0.70793   0.00000  Uiso   1.00
H490   H     0.19861   0.51379   0.84775   0.00000  Uiso   1.00
H491   H     0.18617   0.40586   0.10341   0.00000  Uiso   1.00
H492   H     0.23798   0.37641   0.02142   0.00000  Uiso   1.00
H493   H     0.13271   0.37632   0.08434   0.00000  Uiso   1.00
H494   H     0.18690   0.46650   0.15064   0.00000  Uiso   1.00
H495   H     0.29684   0.34112   0.01537   0.00000  Uiso   1.00
H496   H     0.07486   0.34096   0.14805   0.00000  Uiso   1.00
H497   H     0.18915   0.53111   0.28787   0.00000  Uiso   1.00
O498   O     0.33585   0.31271   0.25317   0.00000  Uiso   1.00
O499   O     0.04462   0.31251   0.42725   0.00000  Uiso   1.00
O500   O     0.19456   0.56198   0.61069   0.00000  Uiso   1.00
N501   N     0.29697   0.33193   0.45474   0.00000  Uiso   1.00
N502   N     0.08944   0.33177   0.57878   0.00000  Uiso   1.00
N503   N     0.19628   0.50954   0.70951   0.00000  Uiso   1.00
N504   N     0.29188   0.34124   0.15347   0.00000  Uiso   1.00
N505   N     0.08435   0.34109   0.27751   0.00000  Uiso   1.00
N506   N     0.19118   0.51886   0.40824   0.00000  Uiso   1.00
C507   C     0.69470   0.89027   0.10752   0.00000  Uiso   1.00
C508   C     0.72164   0.87647   0.99179   0.00000  Uiso   1.00
C509   C     0.74713   0.85967   0.06230   0.00000  Uiso   1.00
C510   C     0.76928   0.84903   0.93342   0.00000  Uiso   1.00
C511   C     0.81161   0.82669   0.78299   0.00000  Uiso   1.00
C512   C     0.66444   0.87642   0.02597   0.00000  Uiso   1.00
C513   C     0.64184   0.85959   0.12523   0.00000  Uiso   1.00
C514   C     0.61584   0.84891   0.02511   0.00000  Uiso   1.00
C515   C     0.56936   0.82651   0.92777   0.00000  Uiso   1.00
C516   C     0.69389   0.92541   0.06200   0.00000  Uiso   1.00
C517   C     0.69605   0.94978   0.19155   0.00000  Uiso   1.00
C518   C     0.69483   0.98035   0.12177   0.00000  Uiso   1.00
C519   C     0.69408   0.03402   0.08037   0.00000  Uiso   1.00
C520   C     0.68871   0.90122   0.75323   0.00000  Uiso   1.00
C521   C     0.71839   0.88242   0.79936   0.00000  Uiso   1.00
C522   C     0.74050   0.87180   0.67033   0.00000  Uiso   1.00
C523   C     0.76602   0.85499   0.74064   0.00000  Uiso   1.00
C524   C     0.66119   0.88237   0.83354   0.00000  Uiso   1.00
C525   C     0.63522   0.87171   0.73325   0.00000  Uiso   1.00
C526   C     0.61258   0.85487   0.83233   0.00000  Uiso   1.00
C527   C     0.69064   0.93137   0.86956   0.00000  Uiso   1.00
C528   C     0.68942   0.96190   0.79957   0.00000  Uiso   1.00
C529   C     0.69157   0.98631   0.92898   0.00000  Uiso   1.00
H530   H     0.69723   0.88563   0.25734   0.00000  Uiso   1.00
H531   H     0.74964   0.85507   0.21124   0.00000  Uiso   1.00
H532   H     0.64437   0.85499   0.27415   0.00000  Uiso   1.00
H533   H     0.69856   0.94516   0.34045   0.00000  Uiso   1.00
H534   H     0.80631   0.82380   0.07526   0.00000  Uiso   1.00
H535   H     0.58433   0.82364   0.20793   0.00000  Uiso   1.00
H536   H     0.69861   0.01379   0.34775   0.00000  Uiso   1.00
H537   H     0.68617   0.90586   0.60341   0.00000  Uiso   1.00
H538   H     0.73798   0.87641   0.52142   0.00000  Uiso   1.00
H539   H     0.63271   0.87632   0.58434   0.00000  Uiso   1.00
H540   H     0.68690   0.96650   0.65064   0.00000  Uiso   1.00
H541   H     0.79684   0.84112   0.51537   0.00000  Uiso   1.00
H542   H     0.57486   0.84096   0.64805   0.00000  Uiso   1.00
H543   H     0.68915   0.03111   0.78787   0.00000  Uiso   1.00
O544   O     0.83585   0.81271   0.75317   0.00000  Uiso   1.00
O545   O     0.54462   0.81251   0.92725   0.00000  Uiso   1.00
O546   O     0.69456   0.06198   0.11069   0.00000  Uiso   1.00
N547   N     0.79697   0.83193   0.95474   0.00000  Uiso   1.00
N548   N     0.58944   0.83177   0.07878   0.00000  Uiso   1.00
N549   N     0.69628   0.00954   0.20951   0.00000  Uiso   1.00
N550   N     0.79188   0.84124   0.65347   0.00000  Uiso   1.00
N551   N     0.58435   0.84109   0.77751   0.00000  Uiso   1.00
N552   N     0.69118   0.01886   0.90824   0.00000  Uiso   1.00
C553   C     0.39027   0.30530   0.85752   0.00000  Uiso   1.00
C554   C     0.37647   0.27836   0.74179   0.00000  Uiso   1.00
C555   C     0.35967   0.25287   0.81230   0.00000  Uiso   1.00
C556   C     0.34903   0.23072   0.68342   0.00000  Uiso   1.00
C557   C     0.32669   0.18839   0.53299   0.00000  Uiso   1.00
C558   C     0.37642   0.33556   0.77597   0.00000  Uiso   1.00
C559   C     0.35959   0.35816   0.87523   0.00000  Uiso   1.00
C560   C     0.34891   0.38416   0.77511   0.00000  Uiso   1.00
C561   C     0.32651   0.43064   0.67777   0.00000  Uiso   1.00
C562   C     0.42541   0.30611   0.81200   0.00000  Uiso   1.00
C563   C     0.44978   0.30395   0.94155   0.00000  Uiso   1.00
C564   C     0.48035   0.30517   0.87177   0.00000  Uiso   1.00
C565   C     0.53402   0.30592   0.83037   0.00000  Uiso   1.00
C566   C     0.40122   0.31129   0.50323   0.00000  Uiso   1.00
C567   C     0.38242   0.28161   0.54936   0.00000  Uiso   1.00
C568   C     0.37180   0.25950   0.42033   0.00000  Uiso   1.00
C569   C     0.35499   0.23398   0.49064   0.00000  Uiso   1.00
C570   C     0.38237   0.33881   0.58354   0.00000  Uiso   1.00
C571   C     0.37171   0.36478   0.48325   0.00000  Uiso   1.00
C572   C     0.35487   0.38742   0.58233   0.00000  Uiso   1.00
C573   C     0.43137   0.30936   0.61956   0.00000  Uiso   1.00
C574   C     0.46190   0.31058   0.54957   0.00000  Uiso   1.00
C575   C     0.48631   0.30843   0.67898   0.00000  Uiso   1.00
H576   H     0.38563   0.30277   0.00734   0.00000  Uiso   1.00
H577   H     0.35507   0.25036   0.96124   0.00000  Uiso   1.00
H578   H     0.35499   0.35563   0.02415   0.00000  Uiso   1.00
H579   H     0.44516   0.30144   0.09045   0.00000  Uiso   1.00
H580   H     0.32380   0.19369   0.82526   0.00000  Uiso   1.00
H581   H     0.32364   0.41567   0.95793   0.00000  Uiso   1.00
H582   H     0.51379   0.30139   0.09775   0.00000  Uiso   1.00
H583   H     0.40586   0.31383   0.35341   0.00000  Uiso   1.00
H584   H     0.37641   0.26202   0.27142   0.00000  Uiso   1.00
H585   H     0.37632   0.36729   0.33434   0.00000  Uiso   1.00
H586   H     0.46650   0.31310   0.40064   0.00000  Uiso   1.00
H587   H     0.34112   0.20316   0.26537   0.00000  Uiso   1.00
H588   H     0.34096   0.42514   0.39805   0.00000  Uiso   1.00
H589   H     0.53111   0.31085   0.53787   0.00000  Uiso   1.00
O590   O     0.31271   0.16415   0.50317   0.00000  Uiso   1.00
O591   O     0.31251   0.45538   0.67725   0.00000  Uiso   1.00
O592   O     0.56198   0.30544   0.86069   0.00000  Uiso   1.00
N593   N     0.33193   0.20303   0.70474   0.00000  Uiso   1.00
N594   N     0.33177   0.41056   0.82878   0.00000  Uiso   1.00
N595   N     0.50954   0.30372   0.95951   0.00000  Uiso   1.00
N596   N     0.34124   0.20812   0.40347   0.00000  Uiso   1.00
N597   N     0.34109   0.41565   0.52751   0.00000  Uiso   1.00
N598   N     0.51886   0.30882   0.65824   0.00000  Uiso   1.00
C599   C     0.89027   0.80530   0.35752   0.00000  Uiso   1.00
C600   C     0.87647   0.77836   0.24179   0.00000  Uiso   1.00
C601   C     0.85967   0.75287   0.31230   0.00000  Uiso   1.00
C602   C     0.84903   0.73072   0.18342   0.00000  Uiso   1.00
C603   C     0.82669   0.68839   0.03299   0.00000  Uiso   1.00
C604   C     0.87642   0.83556   0.27597   0.00000  Uiso   1.00
C605   C     0.85959   0.85816   0.37523   0.00000  Uiso   1.00
C606   C     0.84891   0.88416   0.27511   0.00000  Uiso   1.00
C607   C     0.82651   0.93064   0.17777   0.00000  Uiso   1.00
C608   C     0.92541   0.80611   0.31200   0.00000  Uiso   1.00
C609   C     0.94978   0.80395   0.44155   0.00000  Uiso   1.00
C610   C     0.98035   0.80517   0.37177   0.00000  Uiso   1.00
C611   C     0.03402   0.80592   0.33037   0.00000  Uiso   1.00
C612   C     0.90122   0.81129   0.00323   0.00000  Uiso   1.00
C613   C     0.88242   0.78161   0.04936   0.00000  Uiso   1.00
C614   C     0.87180   0.75950   0.92033   0.00000  Uiso   1.00
C615   C     0.85499   0.73398   0.99064   0.00000  Uiso   1.00
C616   C     0.88237   0.83881   0.08354   0.00000  Uiso   1.00
C617   C     0.87171   0.86478   0.98325   0.00000  Uiso   1.00
C618   C     0.85487   0.88742   0.08233   0.00000  Uiso   1.00
C619   C     0.93137   0.80936   0.11956   0.00000  Uiso   1.00
C620   C     0.96190   0.81058   0.04957   0.00000  Uiso   1.00
C621   C     0.98631   0.80843   0.17898   0.00000  Uiso   1.00
H622   H     0.88563   0.80277   0.50734   0.00000  Uiso   1.00
H623   H     0.85507   0.75036   0.46124   0.00000  Uiso   1.00
H624   H     0.85499   0.85563   0.52415   0.00000  Uiso   1.00
H625   H     0.94516   0.80144   0.59045   0.00000  Uiso   1.00
H626   H     0.82380   0.69369   0.32526   0.00000  Uiso   1.00
H627   H     0.82364   0.91567   0.45793   0.00000  Uiso   1.00
H628   H     0.01379   0.80139   0.59775   0.00000  Uiso   1.00
H629   H     0.90586   0.81383   0.85341   0.00000  Uiso   1.00
H630   H     0.87641   0.76202   0.77142   0.00000  Uiso   1.00
H631   H     0.87632   0.86729   0.83434   0.00000  Uiso   1.00
H632   H     0.96650   0.81310   0.90064   0.00000  Uiso   1.00
H633   H     0.84112   0.70316   0.76537   0.00000  Uiso   1.00
H634   H     0.84096   0.92514   0.89805   0.00000  Uiso   1.00
H635   H     0.03111   0.81085   0.03787   0.00000  Uiso   1.00
O636   O     0.81271   0.66415   0.00317   0.00000  Uiso   1.00
O637   O     0.81251   0.95538   0.17725   0.00000  Uiso   1.00
O638   O     0.06198   0.80544   0.36069   0.00000  Uiso   1.00
N639   N     0.83193   0.70303   0.20474   0.00000  Uiso   1.00
N640   N     0.83177   0.91056   0.32878   0.00000  Uiso   1.00
N641   N     0.00954   0.80372   0.45951   0.00000  Uiso   1.00
N642   N     0.84124   0.70812   0.90347   0.00000  Uiso   1.00
N643   N     0.84109   0.91565   0.02751   0.00000  Uiso   1.00
N644   N     0.01886   0.80882   0.15824   0.00000  Uiso   1.00
C645   C     0.10973   0.19470   0.35752   0.00000  Uiso   1.00
C646   C     0.12353   0.22164   0.24179   0.00000  Uiso   1.00
C647   C     0.14033   0.24713   0.31230   0.00000  Uiso   1.00
C648   C     0.15097   0.26928   0.18342   0.00000  Uiso   1.00
C649   C     0.17331   0.31161   0.03299   0.00000  Uiso   1.00
C650   C     0.12358   0.16444   0.27597   0.00000  Uiso   1.00
C651   C     0.14041   0.14184   0.37523   0.00000  Uiso   1.00
C652   C     0.15109   0.11584   0.27511   0.00000  Uiso   1.00
C653   C     0.17349   0.06936   0.17777   0.00000  Uiso   1.00
C654   C     0.07459   0.19389   0.31200   0.00000  Uiso   1.00
C655   C     0.05022   0.19605   0.44155   0.00000  Uiso   1.00
C656   C     0.01965   0.19483   0.37177   0.00000  Uiso   1.00
C657   C     0.96598   0.19408   0.33037   0.00000  Uiso   1.00
C658   C     0.09878   0.18871   0.00323   0.00000  Uiso   1.00
C659   C     0.11758   0.21839   0.04936   0.00000  Uiso   1.00
C660   C     0.12820   0.24050   0.92033   0.00000  Uiso   1.00
C661   C     0.14501   0.26602   0.99064   0.00000  Uiso   1.00
C662   C     0.11763   0.16119   0.08354   0.00000  Uiso   1.00
C663   C     0.12829   0.13522   0.98325   0.00000  Uiso   1.00
C664   C     0.14513   0.11258   0.08233   0.00000  Uiso   1.00
C665   C     0.06863   0.19064   0.11956   0.00000  Uiso   1.00
C666   C     0.03810   0.18942   0.04957   0.00000  Uiso   1.00
C667   C     0.01369   0.19157   0.17898   0.00000  Uiso   1.00
H668   H     0.11437   0.19723   0.50734   0.00000  Uiso   1.00
H669   H     0.14493   0.24964   0.46124   0.00000  Uiso   1.00
H670   H     0.14501   0.14437   0.52415   0.00000  Uiso   1.00
H671   H     0.05484   0.19856   0.59045   0.00000  Uiso   1.00
H672   H     0.17620   0.30631   0.32526   0.00000  Uiso   1.00
H673   H     0.17636   0.08433   0.45793   0.00000  Uiso   1.00
H674   H     0.98621   0.19861   0.59775   0.00000  Uiso   1.00
H675   H     0.09414   0.18617   0.85341   0.00000  Uiso   1.00
H676   H     0.12359   0.23798   0.77142   0.00000  Uiso   1.00
H677   H     0.12368   0.13271   0.83434   0.00000  Uiso   1.00
H678   H     0.03350   0.18690   0.90064   0.00000  Uiso   1.00
H679   H     0.15888   0.29684   0.76537   0.00000  Uiso   1.00
H680   H     0.15904   0.07486   0.89805   0.00000  Uiso   1.00
H681   H     0.96889   0.18915   0.03787   0.00000  Uiso   1.00
O682   O     0.18729   0.33585   0.00317   0.00000  Uiso   1.00
O683   O     0.18749   0.04462   0.17725   0.00000  Uiso   1.00
O684   O     0.93802   0.19456   0.36069   0.00000  Uiso   1.00
N685   N     0.16807   0.29697   0.20474   0.00000  Uiso   1.00
N686   N     0.16823   0.08944   0.32878   0.00000  Uiso   1.00
N687   N     0.99046   0.19628   0.45951   0.00000  Uiso   1.00
N688   N     0.15876   0.29188   0.90347   0.00000  Uiso   1.00
N689   N     0.15891   0.08435   0.02751   0.00000  Uiso   1.00
N690   N     0.98114   0.19118   0.15824   0.00000  Uiso   1.00
C691   C     0.60973   0.69470   0.85752   0.00000  Uiso   1.00
C692   C     0.62353   0.72164   0.74179   0.00000  Uiso   1.00
C693   C     0.64033   0.74713   0.81230   0.00000  Uiso   1.00
C694   C     0.65097   0.76928   0.68342   0.00000  Uiso   1.00
C695   C     0.67331   0.81161   0.53299   0.00000  Uiso   1.00
C696   C     0.62358   0.66444   0.77597   0.00000  Uiso   1.00
C697   C     0.64041   0.64184   0.87523   0.00000  Uiso   1.00
C698   C     0.65109   0.61584   0.77511   0.00000  Uiso   1.00
C699   C     0.67349   0.56936   0.67777   0.00000  Uiso   1.00
C700   C     0.57459   0.69389   0.81200   0.00000  Uiso   1.00
C701   C     0.55022   0.69605   0.94155   0.00000  Uiso   1.00
C702   C     0.51965   0.69483   0.87177   0.00000  Uiso   1.00
C703   C     0.46598   0.69408   0.83037   0.00000  Uiso   1.00
C704   C     0.59878   0.68871   0.50323   0.00000  Uiso   1.00
C705   C     0.61758   0.71839   0.54936   0.00000  Uiso   1.00
C706   C     0.62820   0.74050   0.42033   0.00000  Uiso   1.00
C707   C     0.64501   0.76602   0.49064   0.00000  Uiso   1.00
C708   C     0.61763   0.66119   0.58354   0.00000  Uiso   1.00
C709   C     0.62829   0.63522   0.48325   0.00000  Uiso   1.00
C710   C     0.64513   0.61258   0.58233   0.00000  Uiso   1.00
C711   C     0.56863   0.69064   0.61956   0.00000  Uiso   1.00
C712   C     0.53810   0.68942   0.54957   0.00000  Uiso   1.00
C713   C     0.51369   0.69157   0.67898   0.00000  Uiso   1.00
H714   H     0.61437   0.69723   0.00734   0.00000  Uiso   1.00
H715   H     0.64493   0.74964   0.96124   0.00000  Uiso   1.00
H716   H     0.64501   0.64437   0.02415   0.00000  Uiso   1.00
H717   H     0.55484   0.69856   0.09045   0.00000  Uiso   1.00
H718   H     0.67620   0.80631   0.82526   0.00000  Uiso   1.00
H719   H     0.67636   0.58433   0.95793   0.00000  Uiso   1.00
H720   H     0.48621   0.69861   0.09775   0.00000  Uiso   1.00
H721   H     0.59414   0.68617   0.35341   0.00000  Uiso   1.00
H722   H     0.62359   0.73798   0.27142   0.00000  Uiso   1.00
H723   H     0.62368   0.63271   0.33434   0.00000  Uiso   1.00
H724   H     0.53350   0.68690   0.40064   0.00000  Uiso   1.00
H725   H     0.65888   0.79684   0.26537   0.00000  Uiso   1.00
H726   H     0.65904   0.57486   0.39805   0.00000  Uiso   1.00
H727   H     0.46889   0.68915   0.53787   0.00000  Uiso   1.00
O728   O     0.68729   0.83585   0.50317   0.00000  Uiso   1.00
O729   O     0.68749   0.54462   0.67725   0.00000  Uiso   1.00
O730   O     0.43802   0.69456   0.86069   0.00000  Uiso   1.00
N731   N     0.66807   0.79697   0.70474   0.00000  Uiso   1.00
N732   N     0.66823   0.58944   0.82878   0.00000  Uiso   1.00
N733   N     0.49046   0.69628   0.95951   0.00000  Uiso   1.00
N734   N     0.65876   0.79188   0.40347   0.00000  Uiso   1.00
N735   N     0.65891   0.58435   0.52751   0.00000  Uiso   1.00
N736   N     0.48114   0.69118   0.65824   0.00000  Uiso   1.00
