data_job_01222
_audit_creation_date              2018-12-19
_audit_creation_method            'Materials Studio'
_symmetry_space_group_name_H-M    'P1'
_symmetry_Int_Tables_number       1
_symmetry_cell_setting            triclinic
loop_
_symmetry_equiv_pos_as_xyz
  x,y,z
_cell_length_a                    52.8461
_cell_length_b                    15.9192
_cell_length_c                    13.7317
_cell_angle_alpha                 90.0000
_cell_angle_beta                  90.0000
_cell_angle_gamma                 90.0000
loop_
_atom_site_label
_atom_site_type_symbol
_atom_site_fract_x
_atom_site_fract_y
_atom_site_fract_z
_atom_site_U_iso_or_equiv
_atom_site_adp_type
_atom_site_occupancy
C1     C     0.82028   0.10153   0.68806   0.00000  Uiso   1.00
C2     C     0.82503   0.02205   0.74728   0.00000  Uiso   1.00
C3     C     0.83690   0.94989   0.71368   0.00000  Uiso   1.00
C4     C     0.83942   0.88396   0.77916   0.00000  Uiso   1.00
C5     C     0.84817   0.75960   0.85656   0.00000  Uiso   1.00
C6     C     0.79184   0.11723   0.69267   0.00000  Uiso   1.00
C7     C     0.77580   0.12511   0.61316   0.00000  Uiso   1.00
C8     C     0.75038   0.13932   0.63268   0.00000  Uiso   1.00
C9     C     0.70759   0.16280   0.62529   0.00000  Uiso   1.00
C10    C     0.83257   0.17302   0.74486   0.00000  Uiso   1.00
C11    C     0.85077   0.22783   0.70922   0.00000  Uiso   1.00
C12    C     0.85964   0.28903   0.77268   0.00000  Uiso   1.00
C13    C     0.88009   0.39912   0.84632   0.00000  Uiso   1.00
C14    C     0.80365   0.11278   0.86410   0.00000  Uiso   1.00
C15    C     0.81600   0.02816   0.84289   0.00000  Uiso   1.00
C16    C     0.81851   0.96233   0.90845   0.00000  Uiso   1.00
C17    C     0.83038   0.89008   0.87495   0.00000  Uiso   1.00
C18    C     0.78281   0.12334   0.78828   0.00000  Uiso   1.00
C19    C     0.75740   0.13755   0.80792   0.00000  Uiso   1.00
C20    C     0.74133   0.14544   0.72846   0.00000  Uiso   1.00
C21    C     0.82354   0.17913   0.84048   0.00000  Uiso   1.00
C22    C     0.83237   0.24026   0.90399   0.00000  Uiso   1.00
C23    C     0.85059   0.29515   0.86847   0.00000  Uiso   1.00
H24    H     0.82731   0.09678   0.61362   0.00000  Uiso   1.00
H25    H     0.84389   0.94518   0.63968   0.00000  Uiso   1.00
H26    H     0.78280   0.12039   0.53917   0.00000  Uiso   1.00
H27    H     0.85776   0.22308   0.63523   0.00000  Uiso   1.00
H28    H     0.85828   0.77979   0.71073   0.00000  Uiso   1.00
H29    H     0.72946   0.14925   0.49881   0.00000  Uiso   1.00
H30    H     0.88753   0.36580   0.70136   0.00000  Uiso   1.00
H31    H     0.79662   0.11753   0.93854   0.00000  Uiso   1.00
H32    H     0.81151   0.96707   0.98244   0.00000  Uiso   1.00
H33    H     0.75042   0.14228   0.88193   0.00000  Uiso   1.00
H34    H     0.82538   0.24497   0.97798   0.00000  Uiso   1.00
H35    H     0.83200   0.79756   0.98892   0.00000  Uiso   1.00
H36    H     0.70318   0.16702   0.77700   0.00000  Uiso   1.00
H37    H     0.86125   0.38357   0.97955   0.00000  Uiso   1.00
O38    O     0.85548   0.68931   0.87283   0.00000  Uiso   1.00
O39    O     0.68649   0.17405   0.59479   0.00000  Uiso   1.00
O40    O     0.89387   0.45815   0.86054   0.00000  Uiso   1.00
N41    N     0.85005   0.80463   0.77018   0.00000  Uiso   1.00
N42    N     0.72962   0.15004   0.57205   0.00000  Uiso   1.00
N43    N     0.87739   0.35251   0.76141   0.00000  Uiso   1.00
N44    N     0.83591   0.81419   0.91988   0.00000  Uiso   1.00
N45    N     0.71548   0.15960   0.72174   0.00000  Uiso   1.00
N46    N     0.86325   0.36207   0.91110   0.00000  Uiso   1.00
C47    C     0.82028   0.60153   0.18806   0.00000  Uiso   1.00
C48    C     0.82503   0.52205   0.24728   0.00000  Uiso   1.00
C49    C     0.83690   0.44989   0.21368   0.00000  Uiso   1.00
C50    C     0.83942   0.38396   0.27916   0.00000  Uiso   1.00
C51    C     0.84817   0.25960   0.35656   0.00000  Uiso   1.00
C52    C     0.79184   0.61723   0.19267   0.00000  Uiso   1.00
C53    C     0.77580   0.62511   0.11316   0.00000  Uiso   1.00
C54    C     0.75038   0.63932   0.13268   0.00000  Uiso   1.00
C55    C     0.70759   0.66280   0.12529   0.00000  Uiso   1.00
C56    C     0.83257   0.67302   0.24486   0.00000  Uiso   1.00
C57    C     0.85077   0.72783   0.20922   0.00000  Uiso   1.00
C58    C     0.85964   0.78903   0.27268   0.00000  Uiso   1.00
C59    C     0.88009   0.89912   0.34632   0.00000  Uiso   1.00
C60    C     0.80365   0.61278   0.36410   0.00000  Uiso   1.00
C61    C     0.81600   0.52816   0.34289   0.00000  Uiso   1.00
C62    C     0.81851   0.46233   0.40845   0.00000  Uiso   1.00
C63    C     0.83038   0.39008   0.37495   0.00000  Uiso   1.00
C64    C     0.78281   0.62334   0.28828   0.00000  Uiso   1.00
C65    C     0.75740   0.63755   0.30792   0.00000  Uiso   1.00
C66    C     0.74133   0.64544   0.22846   0.00000  Uiso   1.00
C67    C     0.82354   0.67913   0.34048   0.00000  Uiso   1.00
C68    C     0.83237   0.74026   0.40399   0.00000  Uiso   1.00
C69    C     0.85059   0.79515   0.36847   0.00000  Uiso   1.00
H70    H     0.82731   0.59678   0.11362   0.00000  Uiso   1.00
H71    H     0.84389   0.44518   0.13968   0.00000  Uiso   1.00
H72    H     0.78280   0.62039   0.03917   0.00000  Uiso   1.00
H73    H     0.85776   0.72308   0.13523   0.00000  Uiso   1.00
H74    H     0.85828   0.27979   0.21073   0.00000  Uiso   1.00
H75    H     0.72946   0.64925   0.99881   0.00000  Uiso   1.00
H76    H     0.88753   0.86580   0.20136   0.00000  Uiso   1.00
H77    H     0.79662   0.61753   0.43854   0.00000  Uiso   1.00
H78    H     0.81151   0.46707   0.48244   0.00000  Uiso   1.00
H79    H     0.75042   0.64228   0.38193   0.00000  Uiso   1.00
H80    H     0.82538   0.74497   0.47798   0.00000  Uiso   1.00
H81    H     0.83200   0.29756   0.48892   0.00000  Uiso   1.00
H82    H     0.70318   0.66702   0.27700   0.00000  Uiso   1.00
H83    H     0.86125   0.88357   0.47955   0.00000  Uiso   1.00
O84    O     0.85548   0.18931   0.37283   0.00000  Uiso   1.00
O85    O     0.68649   0.67405   0.09479   0.00000  Uiso   1.00
O86    O     0.89387   0.95815   0.36054   0.00000  Uiso   1.00
N87    N     0.85005   0.30463   0.27018   0.00000  Uiso   1.00
N88    N     0.72962   0.65004   0.07205   0.00000  Uiso   1.00
N89    N     0.87739   0.85251   0.26141   0.00000  Uiso   1.00
N90    N     0.83591   0.31419   0.41988   0.00000  Uiso   1.00
N91    N     0.71548   0.65960   0.22174   0.00000  Uiso   1.00
N92    N     0.86325   0.86207   0.41110   0.00000  Uiso   1.00
C93    C     0.32028   0.10153   0.18806   0.00000  Uiso   1.00
C94    C     0.32503   0.02205   0.24728   0.00000  Uiso   1.00
C95    C     0.33690   0.94989   0.21368   0.00000  Uiso   1.00
C96    C     0.33942   0.88396   0.27916   0.00000  Uiso   1.00
C97    C     0.34817   0.75960   0.35656   0.00000  Uiso   1.00
C98    C     0.29184   0.11723   0.19267   0.00000  Uiso   1.00
C99    C     0.27580   0.12511   0.11316   0.00000  Uiso   1.00
C100   C     0.25038   0.13932   0.13268   0.00000  Uiso   1.00
C101   C     0.20759   0.16280   0.12529   0.00000  Uiso   1.00
C102   C     0.33257   0.17302   0.24486   0.00000  Uiso   1.00
C103   C     0.35077   0.22783   0.20922   0.00000  Uiso   1.00
C104   C     0.35964   0.28903   0.27268   0.00000  Uiso   1.00
C105   C     0.38009   0.39912   0.34632   0.00000  Uiso   1.00
C106   C     0.30365   0.11278   0.36410   0.00000  Uiso   1.00
C107   C     0.31600   0.02816   0.34289   0.00000  Uiso   1.00
C108   C     0.31851   0.96233   0.40845   0.00000  Uiso   1.00
C109   C     0.33038   0.89008   0.37495   0.00000  Uiso   1.00
C110   C     0.28281   0.12334   0.28828   0.00000  Uiso   1.00
C111   C     0.25740   0.13755   0.30792   0.00000  Uiso   1.00
C112   C     0.24133   0.14544   0.22846   0.00000  Uiso   1.00
C113   C     0.32354   0.17913   0.34048   0.00000  Uiso   1.00
C114   C     0.33237   0.24026   0.40399   0.00000  Uiso   1.00
C115   C     0.35059   0.29515   0.36847   0.00000  Uiso   1.00
H116   H     0.32731   0.09678   0.11362   0.00000  Uiso   1.00
H117   H     0.34389   0.94518   0.13968   0.00000  Uiso   1.00
H118   H     0.28280   0.12039   0.03917   0.00000  Uiso   1.00
H119   H     0.35776   0.22308   0.13523   0.00000  Uiso   1.00
H120   H     0.35828   0.77979   0.21073   0.00000  Uiso   1.00
H121   H     0.22946   0.14925   0.99881   0.00000  Uiso   1.00
H122   H     0.38753   0.36580   0.20136   0.00000  Uiso   1.00
H123   H     0.29662   0.11753   0.43854   0.00000  Uiso   1.00
H124   H     0.31151   0.96707   0.48244   0.00000  Uiso   1.00
H125   H     0.25042   0.14228   0.38193   0.00000  Uiso   1.00
H126   H     0.32538   0.24497   0.47798   0.00000  Uiso   1.00
H127   H     0.33200   0.79756   0.48892   0.00000  Uiso   1.00
H128   H     0.20318   0.16702   0.27700   0.00000  Uiso   1.00
H129   H     0.36125   0.38357   0.47955   0.00000  Uiso   1.00
O130   O     0.35548   0.68931   0.37283   0.00000  Uiso   1.00
O131   O     0.18649   0.17405   0.09479   0.00000  Uiso   1.00
O132   O     0.39387   0.45815   0.36054   0.00000  Uiso   1.00
N133   N     0.35005   0.80463   0.27018   0.00000  Uiso   1.00
N134   N     0.22962   0.15004   0.07205   0.00000  Uiso   1.00
N135   N     0.37739   0.35251   0.26141   0.00000  Uiso   1.00
N136   N     0.33591   0.81419   0.41988   0.00000  Uiso   1.00
N137   N     0.21548   0.15960   0.22174   0.00000  Uiso   1.00
N138   N     0.36325   0.36207   0.41110   0.00000  Uiso   1.00
C139   C     0.32028   0.60153   0.68806   0.00000  Uiso   1.00
C140   C     0.32503   0.52205   0.74728   0.00000  Uiso   1.00
C141   C     0.33690   0.44989   0.71368   0.00000  Uiso   1.00
C142   C     0.33942   0.38396   0.77916   0.00000  Uiso   1.00
C143   C     0.34817   0.25960   0.85656   0.00000  Uiso   1.00
C144   C     0.29184   0.61723   0.69267   0.00000  Uiso   1.00
C145   C     0.27580   0.62511   0.61316   0.00000  Uiso   1.00
C146   C     0.25038   0.63932   0.63268   0.00000  Uiso   1.00
C147   C     0.20759   0.66280   0.62529   0.00000  Uiso   1.00
C148   C     0.33257   0.67302   0.74486   0.00000  Uiso   1.00
C149   C     0.35077   0.72783   0.70922   0.00000  Uiso   1.00
C150   C     0.35964   0.78903   0.77268   0.00000  Uiso   1.00
C151   C     0.38009   0.89912   0.84632   0.00000  Uiso   1.00
C152   C     0.30365   0.61278   0.86410   0.00000  Uiso   1.00
C153   C     0.31600   0.52816   0.84289   0.00000  Uiso   1.00
C154   C     0.31851   0.46233   0.90845   0.00000  Uiso   1.00
C155   C     0.33038   0.39008   0.87495   0.00000  Uiso   1.00
C156   C     0.28281   0.62334   0.78828   0.00000  Uiso   1.00
C157   C     0.25740   0.63755   0.80792   0.00000  Uiso   1.00
C158   C     0.24133   0.64544   0.72846   0.00000  Uiso   1.00
C159   C     0.32354   0.67913   0.84048   0.00000  Uiso   1.00
C160   C     0.33237   0.74026   0.90399   0.00000  Uiso   1.00
C161   C     0.35059   0.79515   0.86847   0.00000  Uiso   1.00
H162   H     0.32731   0.59678   0.61362   0.00000  Uiso   1.00
H163   H     0.34389   0.44518   0.63968   0.00000  Uiso   1.00
H164   H     0.28280   0.62039   0.53917   0.00000  Uiso   1.00
H165   H     0.35776   0.72308   0.63523   0.00000  Uiso   1.00
H166   H     0.35828   0.27979   0.71073   0.00000  Uiso   1.00
H167   H     0.22946   0.64925   0.49881   0.00000  Uiso   1.00
H168   H     0.38753   0.86580   0.70136   0.00000  Uiso   1.00
H169   H     0.29662   0.61753   0.93854   0.00000  Uiso   1.00
H170   H     0.31151   0.46707   0.98244   0.00000  Uiso   1.00
H171   H     0.25042   0.64228   0.88193   0.00000  Uiso   1.00
H172   H     0.32538   0.74497   0.97798   0.00000  Uiso   1.00
H173   H     0.33200   0.29756   0.98892   0.00000  Uiso   1.00
H174   H     0.20318   0.66702   0.77700   0.00000  Uiso   1.00
H175   H     0.36125   0.88357   0.97955   0.00000  Uiso   1.00
O176   O     0.35548   0.18931   0.87283   0.00000  Uiso   1.00
O177   O     0.18649   0.67405   0.59479   0.00000  Uiso   1.00
O178   O     0.39387   0.95815   0.86054   0.00000  Uiso   1.00
N179   N     0.35005   0.30463   0.77018   0.00000  Uiso   1.00
N180   N     0.22962   0.65004   0.57205   0.00000  Uiso   1.00
N181   N     0.37739   0.85251   0.76141   0.00000  Uiso   1.00
N182   N     0.33591   0.31419   0.91988   0.00000  Uiso   1.00
N183   N     0.21548   0.65960   0.72174   0.00000  Uiso   1.00
N184   N     0.36325   0.86207   0.91110   0.00000  Uiso   1.00
C185   C     0.17972   0.89847   0.68806   0.00000  Uiso   1.00
C186   C     0.17497   0.97795   0.74728   0.00000  Uiso   1.00
C187   C     0.16310   0.05011   0.71368   0.00000  Uiso   1.00
C188   C     0.16058   0.11604   0.77916   0.00000  Uiso   1.00
C189   C     0.15183   0.24040   0.85656   0.00000  Uiso   1.00
C190   C     0.20816   0.88277   0.69267   0.00000  Uiso   1.00
C191   C     0.22420   0.87489   0.61316   0.00000  Uiso   1.00
C192   C     0.24962   0.86068   0.63268   0.00000  Uiso   1.00
C193   C     0.29241   0.83720   0.62529   0.00000  Uiso   1.00
C194   C     0.16743   0.82698   0.74486   0.00000  Uiso   1.00
C195   C     0.14923   0.77217   0.70922   0.00000  Uiso   1.00
C196   C     0.14036   0.71097   0.77268   0.00000  Uiso   1.00
C197   C     0.11991   0.60088   0.84632   0.00000  Uiso   1.00
C198   C     0.19635   0.88722   0.86410   0.00000  Uiso   1.00
C199   C     0.18400   0.97184   0.84289   0.00000  Uiso   1.00
C200   C     0.18149   0.03767   0.90845   0.00000  Uiso   1.00
C201   C     0.16962   0.10992   0.87495   0.00000  Uiso   1.00
C202   C     0.21719   0.87666   0.78828   0.00000  Uiso   1.00
C203   C     0.24260   0.86245   0.80792   0.00000  Uiso   1.00
C204   C     0.25867   0.85456   0.72846   0.00000  Uiso   1.00
C205   C     0.17646   0.82087   0.84048   0.00000  Uiso   1.00
C206   C     0.16763   0.75974   0.90399   0.00000  Uiso   1.00
C207   C     0.14941   0.70485   0.86847   0.00000  Uiso   1.00
H208   H     0.17269   0.90322   0.61362   0.00000  Uiso   1.00
H209   H     0.15611   0.05482   0.63968   0.00000  Uiso   1.00
H210   H     0.21720   0.87961   0.53917   0.00000  Uiso   1.00
H211   H     0.14224   0.77692   0.63523   0.00000  Uiso   1.00
H212   H     0.14172   0.22021   0.71073   0.00000  Uiso   1.00
H213   H     0.27054   0.85075   0.49881   0.00000  Uiso   1.00
H214   H     0.11247   0.63420   0.70136   0.00000  Uiso   1.00
H215   H     0.20338   0.88247   0.93854   0.00000  Uiso   1.00
H216   H     0.18849   0.03293   0.98244   0.00000  Uiso   1.00
H217   H     0.24958   0.85772   0.88193   0.00000  Uiso   1.00
H218   H     0.17462   0.75503   0.97798   0.00000  Uiso   1.00
H219   H     0.16800   0.20244   0.98892   0.00000  Uiso   1.00
H220   H     0.29682   0.83298   0.77700   0.00000  Uiso   1.00
H221   H     0.13875   0.61643   0.97955   0.00000  Uiso   1.00
O222   O     0.14452   0.31069   0.87283   0.00000  Uiso   1.00
O223   O     0.31351   0.82595   0.59479   0.00000  Uiso   1.00
O224   O     0.10613   0.54185   0.86054   0.00000  Uiso   1.00
N225   N     0.14995   0.19537   0.77018   0.00000  Uiso   1.00
N226   N     0.27038   0.84996   0.57205   0.00000  Uiso   1.00
N227   N     0.12261   0.64749   0.76141   0.00000  Uiso   1.00
N228   N     0.16409   0.18581   0.91988   0.00000  Uiso   1.00
N229   N     0.28452   0.84040   0.72174   0.00000  Uiso   1.00
N230   N     0.13675   0.63793   0.91110   0.00000  Uiso   1.00
C231   C     0.17972   0.39847   0.18806   0.00000  Uiso   1.00
C232   C     0.17497   0.47795   0.24728   0.00000  Uiso   1.00
C233   C     0.16310   0.55011   0.21368   0.00000  Uiso   1.00
C234   C     0.16058   0.61604   0.27916   0.00000  Uiso   1.00
C235   C     0.15183   0.74040   0.35656   0.00000  Uiso   1.00
C236   C     0.20816   0.38277   0.19267   0.00000  Uiso   1.00
C237   C     0.22420   0.37489   0.11316   0.00000  Uiso   1.00
C238   C     0.24962   0.36068   0.13268   0.00000  Uiso   1.00
C239   C     0.29241   0.33720   0.12529   0.00000  Uiso   1.00
C240   C     0.16743   0.32698   0.24486   0.00000  Uiso   1.00
C241   C     0.14923   0.27217   0.20922   0.00000  Uiso   1.00
C242   C     0.14036   0.21097   0.27268   0.00000  Uiso   1.00
C243   C     0.11991   0.10088   0.34632   0.00000  Uiso   1.00
C244   C     0.19635   0.38722   0.36410   0.00000  Uiso   1.00
C245   C     0.18400   0.47184   0.34289   0.00000  Uiso   1.00
C246   C     0.18149   0.53767   0.40845   0.00000  Uiso   1.00
C247   C     0.16962   0.60992   0.37495   0.00000  Uiso   1.00
C248   C     0.21719   0.37666   0.28828   0.00000  Uiso   1.00
C249   C     0.24260   0.36245   0.30792   0.00000  Uiso   1.00
C250   C     0.25867   0.35456   0.22846   0.00000  Uiso   1.00
C251   C     0.17646   0.32087   0.34048   0.00000  Uiso   1.00
C252   C     0.16763   0.25974   0.40399   0.00000  Uiso   1.00
C253   C     0.14941   0.20485   0.36847   0.00000  Uiso   1.00
H254   H     0.17269   0.40322   0.11362   0.00000  Uiso   1.00
H255   H     0.15611   0.55482   0.13968   0.00000  Uiso   1.00
H256   H     0.21720   0.37961   0.03917   0.00000  Uiso   1.00
H257   H     0.14224   0.27692   0.13523   0.00000  Uiso   1.00
H258   H     0.14172   0.72021   0.21073   0.00000  Uiso   1.00
H259   H     0.27054   0.35075   0.99881   0.00000  Uiso   1.00
H260   H     0.11247   0.13420   0.20136   0.00000  Uiso   1.00
H261   H     0.20338   0.38247   0.43854   0.00000  Uiso   1.00
H262   H     0.18849   0.53293   0.48244   0.00000  Uiso   1.00
H263   H     0.24958   0.35772   0.38193   0.00000  Uiso   1.00
H264   H     0.17462   0.25503   0.47798   0.00000  Uiso   1.00
H265   H     0.16800   0.70244   0.48892   0.00000  Uiso   1.00
H266   H     0.29682   0.33298   0.27700   0.00000  Uiso   1.00
H267   H     0.13875   0.11643   0.47955   0.00000  Uiso   1.00
O268   O     0.14452   0.81069   0.37283   0.00000  Uiso   1.00
O269   O     0.31351   0.32595   0.09479   0.00000  Uiso   1.00
O270   O     0.10613   0.04185   0.36054   0.00000  Uiso   1.00
N271   N     0.14995   0.69537   0.27018   0.00000  Uiso   1.00
N272   N     0.27038   0.34996   0.07205   0.00000  Uiso   1.00
N273   N     0.12261   0.14749   0.26141   0.00000  Uiso   1.00
N274   N     0.16409   0.68581   0.41988   0.00000  Uiso   1.00
N275   N     0.28452   0.34040   0.22174   0.00000  Uiso   1.00
N276   N     0.13675   0.13793   0.41110   0.00000  Uiso   1.00
C277   C     0.67972   0.89847   0.18806   0.00000  Uiso   1.00
C278   C     0.67497   0.97795   0.24728   0.00000  Uiso   1.00
C279   C     0.66310   0.05011   0.21368   0.00000  Uiso   1.00
C280   C     0.66058   0.11604   0.27916   0.00000  Uiso   1.00
C281   C     0.65183   0.24040   0.35656   0.00000  Uiso   1.00
C282   C     0.70816   0.88277   0.19267   0.00000  Uiso   1.00
C283   C     0.72420   0.87489   0.11316   0.00000  Uiso   1.00
C284   C     0.74962   0.86068   0.13268   0.00000  Uiso   1.00
C285   C     0.79241   0.83720   0.12529   0.00000  Uiso   1.00
C286   C     0.66743   0.82698   0.24486   0.00000  Uiso   1.00
C287   C     0.64923   0.77217   0.20922   0.00000  Uiso   1.00
C288   C     0.64036   0.71097   0.27268   0.00000  Uiso   1.00
C289   C     0.61991   0.60088   0.34632   0.00000  Uiso   1.00
C290   C     0.69635   0.88722   0.36410   0.00000  Uiso   1.00
C291   C     0.68400   0.97184   0.34289   0.00000  Uiso   1.00
C292   C     0.68149   0.03767   0.40845   0.00000  Uiso   1.00
C293   C     0.66962   0.10992   0.37495   0.00000  Uiso   1.00
C294   C     0.71719   0.87666   0.28828   0.00000  Uiso   1.00
C295   C     0.74260   0.86245   0.30792   0.00000  Uiso   1.00
C296   C     0.75867   0.85456   0.22846   0.00000  Uiso   1.00
C297   C     0.67646   0.82087   0.34048   0.00000  Uiso   1.00
C298   C     0.66763   0.75974   0.40399   0.00000  Uiso   1.00
C299   C     0.64941   0.70485   0.36847   0.00000  Uiso   1.00
H300   H     0.67269   0.90322   0.11362   0.00000  Uiso   1.00
H301   H     0.65611   0.05482   0.13968   0.00000  Uiso   1.00
H302   H     0.71720   0.87961   0.03917   0.00000  Uiso   1.00
H303   H     0.64224   0.77692   0.13523   0.00000  Uiso   1.00
H304   H     0.64172   0.22021   0.21073   0.00000  Uiso   1.00
H305   H     0.77054   0.85075   0.99881   0.00000  Uiso   1.00
H306   H     0.61247   0.63420   0.20136   0.00000  Uiso   1.00
H307   H     0.70338   0.88247   0.43854   0.00000  Uiso   1.00
H308   H     0.68849   0.03293   0.48244   0.00000  Uiso   1.00
H309   H     0.74958   0.85772   0.38193   0.00000  Uiso   1.00
H310   H     0.67462   0.75503   0.47798   0.00000  Uiso   1.00
H311   H     0.66800   0.20244   0.48892   0.00000  Uiso   1.00
H312   H     0.79682   0.83298   0.27700   0.00000  Uiso   1.00
H313   H     0.63875   0.61643   0.47955   0.00000  Uiso   1.00
O314   O     0.64452   0.31069   0.37283   0.00000  Uiso   1.00
O315   O     0.81351   0.82595   0.09479   0.00000  Uiso   1.00
O316   O     0.60613   0.54185   0.36054   0.00000  Uiso   1.00
N317   N     0.64995   0.19537   0.27018   0.00000  Uiso   1.00
N318   N     0.77038   0.84996   0.07205   0.00000  Uiso   1.00
N319   N     0.62261   0.64749   0.26141   0.00000  Uiso   1.00
N320   N     0.66409   0.18581   0.41988   0.00000  Uiso   1.00
N321   N     0.78452   0.84040   0.22174   0.00000  Uiso   1.00
N322   N     0.63675   0.63793   0.41110   0.00000  Uiso   1.00
C323   C     0.67972   0.39847   0.68806   0.00000  Uiso   1.00
C324   C     0.67497   0.47795   0.74728   0.00000  Uiso   1.00
C325   C     0.66310   0.55011   0.71368   0.00000  Uiso   1.00
C326   C     0.66058   0.61604   0.77916   0.00000  Uiso   1.00
C327   C     0.65183   0.74040   0.85656   0.00000  Uiso   1.00
C328   C     0.70816   0.38277   0.69267   0.00000  Uiso   1.00
C329   C     0.72420   0.37489   0.61316   0.00000  Uiso   1.00
C330   C     0.74962   0.36068   0.63268   0.00000  Uiso   1.00
C331   C     0.79241   0.33720   0.62529   0.00000  Uiso   1.00
C332   C     0.66743   0.32698   0.74486   0.00000  Uiso   1.00
C333   C     0.64923   0.27217   0.70922   0.00000  Uiso   1.00
C334   C     0.64036   0.21097   0.77268   0.00000  Uiso   1.00
C335   C     0.61991   0.10088   0.84632   0.00000  Uiso   1.00
C336   C     0.69635   0.38722   0.86410   0.00000  Uiso   1.00
C337   C     0.68400   0.47184   0.84289   0.00000  Uiso   1.00
C338   C     0.68149   0.53767   0.90845   0.00000  Uiso   1.00
C339   C     0.66962   0.60992   0.87495   0.00000  Uiso   1.00
C340   C     0.71719   0.37666   0.78828   0.00000  Uiso   1.00
C341   C     0.74260   0.36245   0.80792   0.00000  Uiso   1.00
C342   C     0.75867   0.35456   0.72846   0.00000  Uiso   1.00
C343   C     0.67646   0.32087   0.84048   0.00000  Uiso   1.00
C344   C     0.66763   0.25974   0.90399   0.00000  Uiso   1.00
C345   C     0.64941   0.20485   0.86847   0.00000  Uiso   1.00
H346   H     0.67269   0.40322   0.61362   0.00000  Uiso   1.00
H347   H     0.65611   0.55482   0.63968   0.00000  Uiso   1.00
H348   H     0.71720   0.37961   0.53917   0.00000  Uiso   1.00
H349   H     0.64224   0.27692   0.63523   0.00000  Uiso   1.00
H350   H     0.64172   0.72021   0.71073   0.00000  Uiso   1.00
H351   H     0.77054   0.35075   0.49881   0.00000  Uiso   1.00
H352   H     0.61247   0.13420   0.70136   0.00000  Uiso   1.00
H353   H     0.70338   0.38247   0.93854   0.00000  Uiso   1.00
H354   H     0.68849   0.53293   0.98244   0.00000  Uiso   1.00
H355   H     0.74958   0.35772   0.88193   0.00000  Uiso   1.00
H356   H     0.67462   0.25503   0.97798   0.00000  Uiso   1.00
H357   H     0.66800   0.70244   0.98892   0.00000  Uiso   1.00
H358   H     0.79682   0.33298   0.77700   0.00000  Uiso   1.00
H359   H     0.63875   0.11643   0.97955   0.00000  Uiso   1.00
O360   O     0.64452   0.81069   0.87283   0.00000  Uiso   1.00
O361   O     0.81351   0.32595   0.59479   0.00000  Uiso   1.00
O362   O     0.60613   0.04185   0.86054   0.00000  Uiso   1.00
N363   N     0.64995   0.69537   0.77018   0.00000  Uiso   1.00
N364   N     0.77038   0.34996   0.57205   0.00000  Uiso   1.00
N365   N     0.62261   0.14749   0.76141   0.00000  Uiso   1.00
N366   N     0.66409   0.68581   0.91988   0.00000  Uiso   1.00
N367   N     0.78452   0.34040   0.72174   0.00000  Uiso   1.00
N368   N     0.63675   0.13793   0.91110   0.00000  Uiso   1.00
C369   C     0.07028   0.14847   0.93806   0.00000  Uiso   1.00
C370   C     0.07503   0.22795   0.99728   0.00000  Uiso   1.00
C371   C     0.08690   0.30011   0.96368   0.00000  Uiso   1.00
C372   C     0.08942   0.36604   0.02916   0.00000  Uiso   1.00
C373   C     0.09817   0.49040   0.10656   0.00000  Uiso   1.00
C374   C     0.04184   0.13277   0.94267   0.00000  Uiso   1.00
C375   C     0.02580   0.12489   0.86316   0.00000  Uiso   1.00
C376   C     0.00038   0.11068   0.88268   0.00000  Uiso   1.00
C377   C     0.95759   0.08720   0.87529   0.00000  Uiso   1.00
C378   C     0.08257   0.07698   0.99486   0.00000  Uiso   1.00
C379   C     0.10077   0.02217   0.95922   0.00000  Uiso   1.00
C380   C     0.10964   0.96097   0.02268   0.00000  Uiso   1.00
C381   C     0.13009   0.85088   0.09632   0.00000  Uiso   1.00
C382   C     0.05365   0.13722   0.11410   0.00000  Uiso   1.00
C383   C     0.06600   0.22184   0.09289   0.00000  Uiso   1.00
C384   C     0.06851   0.28767   0.15845   0.00000  Uiso   1.00
C385   C     0.08038   0.35992   0.12495   0.00000  Uiso   1.00
C386   C     0.03281   0.12666   0.03828   0.00000  Uiso   1.00
C387   C     0.00740   0.11245   0.05792   0.00000  Uiso   1.00
C388   C     0.99133   0.10456   0.97846   0.00000  Uiso   1.00
C389   C     0.07354   0.07087   0.09048   0.00000  Uiso   1.00
C390   C     0.08237   0.00974   0.15399   0.00000  Uiso   1.00
C391   C     0.10059   0.95485   0.11847   0.00000  Uiso   1.00
H392   H     0.07731   0.15322   0.86362   0.00000  Uiso   1.00
H393   H     0.09389   0.30482   0.88968   0.00000  Uiso   1.00
H394   H     0.03280   0.12961   0.78917   0.00000  Uiso   1.00
H395   H     0.10776   0.02692   0.88523   0.00000  Uiso   1.00
H396   H     0.10828   0.47021   0.96073   0.00000  Uiso   1.00
H397   H     0.97946   0.10075   0.74881   0.00000  Uiso   1.00
H398   H     0.13753   0.88420   0.95136   0.00000  Uiso   1.00
H399   H     0.04662   0.13247   0.18854   0.00000  Uiso   1.00
H400   H     0.06151   0.28293   0.23244   0.00000  Uiso   1.00
H401   H     0.00042   0.10772   0.13193   0.00000  Uiso   1.00
H402   H     0.07538   0.00503   0.22798   0.00000  Uiso   1.00
H403   H     0.08200   0.45244   0.23892   0.00000  Uiso   1.00
H404   H     0.95318   0.08298   0.02700   0.00000  Uiso   1.00
H405   H     0.11125   0.86643   0.22955   0.00000  Uiso   1.00
O406   O     0.10548   0.56069   0.12283   0.00000  Uiso   1.00
O407   O     0.93649   0.07595   0.84479   0.00000  Uiso   1.00
O408   O     0.14387   0.79185   0.11054   0.00000  Uiso   1.00
N409   N     0.10005   0.44537   0.02018   0.00000  Uiso   1.00
N410   N     0.97962   0.09996   0.82205   0.00000  Uiso   1.00
N411   N     0.12739   0.89749   0.01141   0.00000  Uiso   1.00
N412   N     0.08591   0.43581   0.16988   0.00000  Uiso   1.00
N413   N     0.96548   0.09040   0.97174   0.00000  Uiso   1.00
N414   N     0.11325   0.88793   0.16110   0.00000  Uiso   1.00
C415   C     0.07028   0.64847   0.43806   0.00000  Uiso   1.00
C416   C     0.07503   0.72795   0.49728   0.00000  Uiso   1.00
C417   C     0.08690   0.80011   0.46368   0.00000  Uiso   1.00
C418   C     0.08942   0.86604   0.52916   0.00000  Uiso   1.00
C419   C     0.09817   0.99040   0.60656   0.00000  Uiso   1.00
C420   C     0.04184   0.63277   0.44267   0.00000  Uiso   1.00
C421   C     0.02580   0.62489   0.36316   0.00000  Uiso   1.00
C422   C     0.00038   0.61068   0.38268   0.00000  Uiso   1.00
C423   C     0.95759   0.58720   0.37529   0.00000  Uiso   1.00
C424   C     0.08257   0.57698   0.49486   0.00000  Uiso   1.00
C425   C     0.10077   0.52217   0.45922   0.00000  Uiso   1.00
C426   C     0.10964   0.46097   0.52268   0.00000  Uiso   1.00
C427   C     0.13009   0.35088   0.59632   0.00000  Uiso   1.00
C428   C     0.05365   0.63722   0.61410   0.00000  Uiso   1.00
C429   C     0.06600   0.72184   0.59289   0.00000  Uiso   1.00
C430   C     0.06851   0.78767   0.65845   0.00000  Uiso   1.00
C431   C     0.08038   0.85992   0.62495   0.00000  Uiso   1.00
C432   C     0.03281   0.62666   0.53828   0.00000  Uiso   1.00
C433   C     0.00740   0.61245   0.55792   0.00000  Uiso   1.00
C434   C     0.99133   0.60456   0.47846   0.00000  Uiso   1.00
C435   C     0.07354   0.57087   0.59048   0.00000  Uiso   1.00
C436   C     0.08237   0.50974   0.65399   0.00000  Uiso   1.00
C437   C     0.10059   0.45485   0.61847   0.00000  Uiso   1.00
H438   H     0.07731   0.65322   0.36362   0.00000  Uiso   1.00
H439   H     0.09389   0.80482   0.38968   0.00000  Uiso   1.00
H440   H     0.03280   0.62961   0.28917   0.00000  Uiso   1.00
H441   H     0.10776   0.52692   0.38523   0.00000  Uiso   1.00
H442   H     0.10828   0.97021   0.46073   0.00000  Uiso   1.00
H443   H     0.97946   0.60075   0.24881   0.00000  Uiso   1.00
H444   H     0.13753   0.38420   0.45136   0.00000  Uiso   1.00
H445   H     0.04662   0.63247   0.68854   0.00000  Uiso   1.00
H446   H     0.06151   0.78293   0.73244   0.00000  Uiso   1.00
H447   H     0.00042   0.60772   0.63193   0.00000  Uiso   1.00
H448   H     0.07538   0.50503   0.72798   0.00000  Uiso   1.00
H449   H     0.08200   0.95244   0.73892   0.00000  Uiso   1.00
H450   H     0.95318   0.58298   0.52700   0.00000  Uiso   1.00
H451   H     0.11125   0.36643   0.72955   0.00000  Uiso   1.00
O452   O     0.10548   0.06069   0.62283   0.00000  Uiso   1.00
O453   O     0.93649   0.57595   0.34479   0.00000  Uiso   1.00
O454   O     0.14387   0.29185   0.61054   0.00000  Uiso   1.00
N455   N     0.10005   0.94537   0.52018   0.00000  Uiso   1.00
N456   N     0.97962   0.59996   0.32205   0.00000  Uiso   1.00
N457   N     0.12739   0.39749   0.51141   0.00000  Uiso   1.00
N458   N     0.08591   0.93581   0.66988   0.00000  Uiso   1.00
N459   N     0.96548   0.59040   0.47174   0.00000  Uiso   1.00
N460   N     0.11325   0.38793   0.66110   0.00000  Uiso   1.00
C461   C     0.57028   0.14847   0.43806   0.00000  Uiso   1.00
C462   C     0.57503   0.22795   0.49728   0.00000  Uiso   1.00
C463   C     0.58690   0.30011   0.46368   0.00000  Uiso   1.00
C464   C     0.58942   0.36604   0.52916   0.00000  Uiso   1.00
C465   C     0.59817   0.49040   0.60656   0.00000  Uiso   1.00
C466   C     0.54184   0.13277   0.44267   0.00000  Uiso   1.00
C467   C     0.52580   0.12489   0.36316   0.00000  Uiso   1.00
C468   C     0.50038   0.11068   0.38268   0.00000  Uiso   1.00
C469   C     0.45759   0.08720   0.37529   0.00000  Uiso   1.00
C470   C     0.58257   0.07698   0.49486   0.00000  Uiso   1.00
C471   C     0.60077   0.02217   0.45922   0.00000  Uiso   1.00
C472   C     0.60964   0.96097   0.52268   0.00000  Uiso   1.00
C473   C     0.63009   0.85088   0.59632   0.00000  Uiso   1.00
C474   C     0.55365   0.13722   0.61410   0.00000  Uiso   1.00
C475   C     0.56600   0.22184   0.59289   0.00000  Uiso   1.00
C476   C     0.56851   0.28767   0.65845   0.00000  Uiso   1.00
C477   C     0.58038   0.35992   0.62495   0.00000  Uiso   1.00
C478   C     0.53281   0.12666   0.53828   0.00000  Uiso   1.00
C479   C     0.50740   0.11245   0.55792   0.00000  Uiso   1.00
C480   C     0.49133   0.10456   0.47846   0.00000  Uiso   1.00
C481   C     0.57354   0.07087   0.59048   0.00000  Uiso   1.00
C482   C     0.58237   0.00974   0.65399   0.00000  Uiso   1.00
C483   C     0.60059   0.95485   0.61847   0.00000  Uiso   1.00
H484   H     0.57731   0.15322   0.36362   0.00000  Uiso   1.00
H485   H     0.59389   0.30482   0.38968   0.00000  Uiso   1.00
H486   H     0.53280   0.12961   0.28917   0.00000  Uiso   1.00
H487   H     0.60776   0.02692   0.38523   0.00000  Uiso   1.00
H488   H     0.60828   0.47021   0.46073   0.00000  Uiso   1.00
H489   H     0.47946   0.10075   0.24881   0.00000  Uiso   1.00
H490   H     0.63753   0.88420   0.45136   0.00000  Uiso   1.00
H491   H     0.54662   0.13247   0.68854   0.00000  Uiso   1.00
H492   H     0.56151   0.28293   0.73244   0.00000  Uiso   1.00
H493   H     0.50042   0.10772   0.63193   0.00000  Uiso   1.00
H494   H     0.57538   0.00503   0.72798   0.00000  Uiso   1.00
H495   H     0.58200   0.45244   0.73892   0.00000  Uiso   1.00
H496   H     0.45318   0.08298   0.52700   0.00000  Uiso   1.00
H497   H     0.61125   0.86643   0.72955   0.00000  Uiso   1.00
O498   O     0.60548   0.56069   0.62283   0.00000  Uiso   1.00
O499   O     0.43649   0.07595   0.34479   0.00000  Uiso   1.00
O500   O     0.64387   0.79185   0.61054   0.00000  Uiso   1.00
N501   N     0.60005   0.44537   0.52018   0.00000  Uiso   1.00
N502   N     0.47962   0.09996   0.32205   0.00000  Uiso   1.00
N503   N     0.62739   0.89749   0.51141   0.00000  Uiso   1.00
N504   N     0.58591   0.43581   0.66988   0.00000  Uiso   1.00
N505   N     0.46548   0.09040   0.47174   0.00000  Uiso   1.00
N506   N     0.61325   0.88793   0.66110   0.00000  Uiso   1.00
C507   C     0.57028   0.64847   0.93806   0.00000  Uiso   1.00
C508   C     0.57503   0.72795   0.99728   0.00000  Uiso   1.00
C509   C     0.58690   0.80011   0.96368   0.00000  Uiso   1.00
C510   C     0.58942   0.86604   0.02916   0.00000  Uiso   1.00
C511   C     0.59817   0.99040   0.10656   0.00000  Uiso   1.00
C512   C     0.54184   0.63277   0.94267   0.00000  Uiso   1.00
C513   C     0.52580   0.62489   0.86316   0.00000  Uiso   1.00
C514   C     0.50038   0.61068   0.88268   0.00000  Uiso   1.00
C515   C     0.45759   0.58720   0.87529   0.00000  Uiso   1.00
C516   C     0.58257   0.57698   0.99486   0.00000  Uiso   1.00
C517   C     0.60077   0.52217   0.95922   0.00000  Uiso   1.00
C518   C     0.60964   0.46097   0.02268   0.00000  Uiso   1.00
C519   C     0.63009   0.35088   0.09632   0.00000  Uiso   1.00
C520   C     0.55365   0.63722   0.11410   0.00000  Uiso   1.00
C521   C     0.56600   0.72184   0.09289   0.00000  Uiso   1.00
C522   C     0.56851   0.78767   0.15845   0.00000  Uiso   1.00
C523   C     0.58038   0.85992   0.12495   0.00000  Uiso   1.00
C524   C     0.53281   0.62666   0.03828   0.00000  Uiso   1.00
C525   C     0.50740   0.61245   0.05792   0.00000  Uiso   1.00
C526   C     0.49133   0.60456   0.97846   0.00000  Uiso   1.00
C527   C     0.57354   0.57087   0.09048   0.00000  Uiso   1.00
C528   C     0.58237   0.50974   0.15399   0.00000  Uiso   1.00
C529   C     0.60059   0.45485   0.11847   0.00000  Uiso   1.00
H530   H     0.57731   0.65322   0.86362   0.00000  Uiso   1.00
H531   H     0.59389   0.80482   0.88968   0.00000  Uiso   1.00
H532   H     0.53280   0.62961   0.78917   0.00000  Uiso   1.00
H533   H     0.60776   0.52692   0.88523   0.00000  Uiso   1.00
H534   H     0.60828   0.97021   0.96073   0.00000  Uiso   1.00
H535   H     0.47946   0.60075   0.74881   0.00000  Uiso   1.00
H536   H     0.63753   0.38420   0.95136   0.00000  Uiso   1.00
H537   H     0.54662   0.63247   0.18854   0.00000  Uiso   1.00
H538   H     0.56151   0.78293   0.23244   0.00000  Uiso   1.00
H539   H     0.50042   0.60772   0.13193   0.00000  Uiso   1.00
H540   H     0.57538   0.50503   0.22798   0.00000  Uiso   1.00
H541   H     0.58200   0.95244   0.23892   0.00000  Uiso   1.00
H542   H     0.45318   0.58298   0.02700   0.00000  Uiso   1.00
H543   H     0.61125   0.36643   0.22955   0.00000  Uiso   1.00
O544   O     0.60548   0.06069   0.12283   0.00000  Uiso   1.00
O545   O     0.43649   0.57595   0.84479   0.00000  Uiso   1.00
O546   O     0.64387   0.29185   0.11054   0.00000  Uiso   1.00
N547   N     0.60005   0.94537   0.02018   0.00000  Uiso   1.00
N548   N     0.47962   0.59996   0.82205   0.00000  Uiso   1.00
N549   N     0.62739   0.39749   0.01141   0.00000  Uiso   1.00
N550   N     0.58591   0.93581   0.16988   0.00000  Uiso   1.00
N551   N     0.46548   0.59040   0.97174   0.00000  Uiso   1.00
N552   N     0.61325   0.38793   0.16110   0.00000  Uiso   1.00
C553   C     0.42972   0.35153   0.93806   0.00000  Uiso   1.00
C554   C     0.42497   0.27205   0.99728   0.00000  Uiso   1.00
C555   C     0.41310   0.19989   0.96368   0.00000  Uiso   1.00
C556   C     0.41058   0.13396   0.02916   0.00000  Uiso   1.00
C557   C     0.40183   0.00960   0.10656   0.00000  Uiso   1.00
C558   C     0.45816   0.36723   0.94267   0.00000  Uiso   1.00
C559   C     0.47420   0.37511   0.86316   0.00000  Uiso   1.00
C560   C     0.49962   0.38932   0.88268   0.00000  Uiso   1.00
C561   C     0.54241   0.41280   0.87529   0.00000  Uiso   1.00
C562   C     0.41743   0.42302   0.99486   0.00000  Uiso   1.00
C563   C     0.39923   0.47783   0.95922   0.00000  Uiso   1.00
C564   C     0.39036   0.53903   0.02268   0.00000  Uiso   1.00
C565   C     0.36991   0.64912   0.09632   0.00000  Uiso   1.00
C566   C     0.44635   0.36278   0.11410   0.00000  Uiso   1.00
C567   C     0.43400   0.27816   0.09289   0.00000  Uiso   1.00
C568   C     0.43149   0.21233   0.15845   0.00000  Uiso   1.00
C569   C     0.41962   0.14008   0.12495   0.00000  Uiso   1.00
C570   C     0.46719   0.37334   0.03828   0.00000  Uiso   1.00
C571   C     0.49260   0.38755   0.05792   0.00000  Uiso   1.00
C572   C     0.50867   0.39544   0.97846   0.00000  Uiso   1.00
C573   C     0.42646   0.42913   0.09048   0.00000  Uiso   1.00
C574   C     0.41763   0.49026   0.15399   0.00000  Uiso   1.00
C575   C     0.39941   0.54515   0.11847   0.00000  Uiso   1.00
H576   H     0.42269   0.34678   0.86362   0.00000  Uiso   1.00
H577   H     0.40611   0.19518   0.88968   0.00000  Uiso   1.00
H578   H     0.46720   0.37039   0.78917   0.00000  Uiso   1.00
H579   H     0.39224   0.47308   0.88523   0.00000  Uiso   1.00
H580   H     0.39172   0.02979   0.96073   0.00000  Uiso   1.00
H581   H     0.52054   0.39925   0.74881   0.00000  Uiso   1.00
H582   H     0.36247   0.61580   0.95136   0.00000  Uiso   1.00
H583   H     0.45338   0.36753   0.18854   0.00000  Uiso   1.00
H584   H     0.43849   0.21707   0.23244   0.00000  Uiso   1.00
H585   H     0.49958   0.39228   0.13193   0.00000  Uiso   1.00
H586   H     0.42462   0.49497   0.22798   0.00000  Uiso   1.00
H587   H     0.41800   0.04756   0.23892   0.00000  Uiso   1.00
H588   H     0.54682   0.41702   0.02700   0.00000  Uiso   1.00
H589   H     0.38875   0.63357   0.22955   0.00000  Uiso   1.00
O590   O     0.39452   0.93931   0.12283   0.00000  Uiso   1.00
O591   O     0.56351   0.42405   0.84479   0.00000  Uiso   1.00
O592   O     0.35613   0.70815   0.11054   0.00000  Uiso   1.00
N593   N     0.39995   0.05463   0.02018   0.00000  Uiso   1.00
N594   N     0.52038   0.40004   0.82205   0.00000  Uiso   1.00
N595   N     0.37261   0.60251   0.01141   0.00000  Uiso   1.00
N596   N     0.41409   0.06419   0.16988   0.00000  Uiso   1.00
N597   N     0.53452   0.40960   0.97174   0.00000  Uiso   1.00
N598   N     0.38675   0.61207   0.16110   0.00000  Uiso   1.00
C599   C     0.42972   0.85153   0.43806   0.00000  Uiso   1.00
C600   C     0.42497   0.77205   0.49728   0.00000  Uiso   1.00
C601   C     0.41310   0.69989   0.46368   0.00000  Uiso   1.00
C602   C     0.41058   0.63396   0.52916   0.00000  Uiso   1.00
C603   C     0.40183   0.50960   0.60656   0.00000  Uiso   1.00
C604   C     0.45816   0.86723   0.44267   0.00000  Uiso   1.00
C605   C     0.47420   0.87511   0.36316   0.00000  Uiso   1.00
C606   C     0.49962   0.88932   0.38268   0.00000  Uiso   1.00
C607   C     0.54241   0.91280   0.37529   0.00000  Uiso   1.00
C608   C     0.41743   0.92302   0.49486   0.00000  Uiso   1.00
C609   C     0.39923   0.97783   0.45922   0.00000  Uiso   1.00
C610   C     0.39036   0.03903   0.52268   0.00000  Uiso   1.00
C611   C     0.36991   0.14912   0.59632   0.00000  Uiso   1.00
C612   C     0.44635   0.86278   0.61410   0.00000  Uiso   1.00
C613   C     0.43400   0.77816   0.59289   0.00000  Uiso   1.00
C614   C     0.43149   0.71233   0.65845   0.00000  Uiso   1.00
C615   C     0.41962   0.64008   0.62495   0.00000  Uiso   1.00
C616   C     0.46719   0.87334   0.53828   0.00000  Uiso   1.00
C617   C     0.49260   0.88755   0.55792   0.00000  Uiso   1.00
C618   C     0.50867   0.89544   0.47846   0.00000  Uiso   1.00
C619   C     0.42646   0.92913   0.59048   0.00000  Uiso   1.00
C620   C     0.41763   0.99026   0.65399   0.00000  Uiso   1.00
C621   C     0.39941   0.04515   0.61847   0.00000  Uiso   1.00
H622   H     0.42269   0.84678   0.36362   0.00000  Uiso   1.00
H623   H     0.40611   0.69518   0.38968   0.00000  Uiso   1.00
H624   H     0.46720   0.87039   0.28917   0.00000  Uiso   1.00
H625   H     0.39224   0.97308   0.38523   0.00000  Uiso   1.00
H626   H     0.39172   0.52979   0.46073   0.00000  Uiso   1.00
H627   H     0.52054   0.89925   0.24881   0.00000  Uiso   1.00
H628   H     0.36247   0.11580   0.45136   0.00000  Uiso   1.00
H629   H     0.45338   0.86753   0.68854   0.00000  Uiso   1.00
H630   H     0.43849   0.71707   0.73244   0.00000  Uiso   1.00
H631   H     0.49958   0.89228   0.63193   0.00000  Uiso   1.00
H632   H     0.42462   0.99497   0.72798   0.00000  Uiso   1.00
H633   H     0.41800   0.54756   0.73892   0.00000  Uiso   1.00
H634   H     0.54682   0.91702   0.52700   0.00000  Uiso   1.00
H635   H     0.38875   0.13357   0.72955   0.00000  Uiso   1.00
O636   O     0.39452   0.43931   0.62283   0.00000  Uiso   1.00
O637   O     0.56351   0.92405   0.34479   0.00000  Uiso   1.00
O638   O     0.35613   0.20815   0.61054   0.00000  Uiso   1.00
N639   N     0.39995   0.55463   0.52018   0.00000  Uiso   1.00
N640   N     0.52038   0.90004   0.32205   0.00000  Uiso   1.00
N641   N     0.37261   0.10251   0.51141   0.00000  Uiso   1.00
N642   N     0.41409   0.56419   0.66988   0.00000  Uiso   1.00
N643   N     0.53452   0.90960   0.47174   0.00000  Uiso   1.00
N644   N     0.38675   0.11207   0.66110   0.00000  Uiso   1.00
C645   C     0.92972   0.35153   0.43806   0.00000  Uiso   1.00
C646   C     0.92497   0.27205   0.49728   0.00000  Uiso   1.00
C647   C     0.91310   0.19989   0.46368   0.00000  Uiso   1.00
C648   C     0.91058   0.13396   0.52916   0.00000  Uiso   1.00
C649   C     0.90183   0.00960   0.60656   0.00000  Uiso   1.00
C650   C     0.95816   0.36723   0.44267   0.00000  Uiso   1.00
C651   C     0.97420   0.37511   0.36316   0.00000  Uiso   1.00
C652   C     0.99962   0.38932   0.38268   0.00000  Uiso   1.00
C653   C     0.04241   0.41280   0.37529   0.00000  Uiso   1.00
C654   C     0.91743   0.42302   0.49486   0.00000  Uiso   1.00
C655   C     0.89923   0.47783   0.45922   0.00000  Uiso   1.00
C656   C     0.89036   0.53903   0.52268   0.00000  Uiso   1.00
C657   C     0.86991   0.64912   0.59632   0.00000  Uiso   1.00
C658   C     0.94635   0.36278   0.61410   0.00000  Uiso   1.00
C659   C     0.93400   0.27816   0.59289   0.00000  Uiso   1.00
C660   C     0.93149   0.21233   0.65845   0.00000  Uiso   1.00
C661   C     0.91962   0.14008   0.62495   0.00000  Uiso   1.00
C662   C     0.96719   0.37334   0.53828   0.00000  Uiso   1.00
C663   C     0.99260   0.38755   0.55792   0.00000  Uiso   1.00
C664   C     0.00867   0.39544   0.47846   0.00000  Uiso   1.00
C665   C     0.92646   0.42913   0.59048   0.00000  Uiso   1.00
C666   C     0.91763   0.49026   0.65399   0.00000  Uiso   1.00
C667   C     0.89941   0.54515   0.61847   0.00000  Uiso   1.00
H668   H     0.92269   0.34678   0.36362   0.00000  Uiso   1.00
H669   H     0.90611   0.19518   0.38968   0.00000  Uiso   1.00
H670   H     0.96720   0.37039   0.28917   0.00000  Uiso   1.00
H671   H     0.89224   0.47308   0.38523   0.00000  Uiso   1.00
H672   H     0.89172   0.02979   0.46073   0.00000  Uiso   1.00
H673   H     0.02054   0.39925   0.24881   0.00000  Uiso   1.00
H674   H     0.86247   0.61580   0.45136   0.00000  Uiso   1.00
H675   H     0.95338   0.36753   0.68854   0.00000  Uiso   1.00
H676   H     0.93849   0.21707   0.73244   0.00000  Uiso   1.00
H677   H     0.99958   0.39228   0.63193   0.00000  Uiso   1.00
H678   H     0.92462   0.49497   0.72798   0.00000  Uiso   1.00
H679   H     0.91800   0.04756   0.73892   0.00000  Uiso   1.00
H680   H     0.04682   0.41702   0.52700   0.00000  Uiso   1.00
H681   H     0.88875   0.63357   0.72955   0.00000  Uiso   1.00
O682   O     0.89452   0.93931   0.62283   0.00000  Uiso   1.00
O683   O     0.06351   0.42405   0.34479   0.00000  Uiso   1.00
O684   O     0.85613   0.70815   0.61054   0.00000  Uiso   1.00
N685   N     0.89995   0.05463   0.52018   0.00000  Uiso   1.00
N686   N     0.02038   0.40004   0.32205   0.00000  Uiso   1.00
N687   N     0.87261   0.60251   0.51141   0.00000  Uiso   1.00
N688   N     0.91409   0.06419   0.66988   0.00000  Uiso   1.00
N689   N     0.03452   0.40960   0.47174   0.00000  Uiso   1.00
N690   N     0.88675   0.61207   0.66110   0.00000  Uiso   1.00
C691   C     0.92972   0.85153   0.93806   0.00000  Uiso   1.00
C692   C     0.92497   0.77205   0.99728   0.00000  Uiso   1.00
C693   C     0.91310   0.69989   0.96368   0.00000  Uiso   1.00
C694   C     0.91058   0.63396   0.02916   0.00000  Uiso   1.00
C695   C     0.90183   0.50960   0.10656   0.00000  Uiso   1.00
C696   C     0.95816   0.86723   0.94267   0.00000  Uiso   1.00
C697   C     0.97420   0.87511   0.86316   0.00000  Uiso   1.00
C698   C     0.99962   0.88932   0.88268   0.00000  Uiso   1.00
C699   C     0.04241   0.91280   0.87529   0.00000  Uiso   1.00
C700   C     0.91743   0.92302   0.99486   0.00000  Uiso   1.00
C701   C     0.89923   0.97783   0.95922   0.00000  Uiso   1.00
C702   C     0.89036   0.03903   0.02268   0.00000  Uiso   1.00
C703   C     0.86991   0.14912   0.09632   0.00000  Uiso   1.00
C704   C     0.94635   0.86278   0.11410   0.00000  Uiso   1.00
C705   C     0.93400   0.77816   0.09289   0.00000  Uiso   1.00
C706   C     0.93149   0.71233   0.15845   0.00000  Uiso   1.00
C707   C     0.91962   0.64008   0.12495   0.00000  Uiso   1.00
C708   C     0.96719   0.87334   0.03828   0.00000  Uiso   1.00
C709   C     0.99260   0.88755   0.05792   0.00000  Uiso   1.00
C710   C     0.00867   0.89544   0.97846   0.00000  Uiso   1.00
C711   C     0.92646   0.92913   0.09048   0.00000  Uiso   1.00
C712   C     0.91763   0.99026   0.15399   0.00000  Uiso   1.00
C713   C     0.89941   0.04515   0.11847   0.00000  Uiso   1.00
H714   H     0.92269   0.84678   0.86362   0.00000  Uiso   1.00
H715   H     0.90611   0.69518   0.88968   0.00000  Uiso   1.00
H716   H     0.96720   0.87039   0.78917   0.00000  Uiso   1.00
H717   H     0.89224   0.97308   0.88523   0.00000  Uiso   1.00
H718   H     0.89172   0.52979   0.96073   0.00000  Uiso   1.00
H719   H     0.02054   0.89925   0.74881   0.00000  Uiso   1.00
H720   H     0.86247   0.11580   0.95136   0.00000  Uiso   1.00
H721   H     0.95338   0.86753   0.18854   0.00000  Uiso   1.00
H722   H     0.93849   0.71707   0.23244   0.00000  Uiso   1.00
H723   H     0.99958   0.89228   0.13193   0.00000  Uiso   1.00
H724   H     0.92462   0.99497   0.22798   0.00000  Uiso   1.00
H725   H     0.91800   0.54756   0.23892   0.00000  Uiso   1.00
H726   H     0.04682   0.91702   0.02700   0.00000  Uiso   1.00
H727   H     0.88875   0.13357   0.22955   0.00000  Uiso   1.00
O728   O     0.89452   0.43931   0.12283   0.00000  Uiso   1.00
O729   O     0.06351   0.92405   0.84479   0.00000  Uiso   1.00
O730   O     0.85613   0.20815   0.11054   0.00000  Uiso   1.00
N731   N     0.89995   0.55463   0.02018   0.00000  Uiso   1.00
N732   N     0.02038   0.90004   0.82205   0.00000  Uiso   1.00
N733   N     0.87261   0.10251   0.01141   0.00000  Uiso   1.00
N734   N     0.91409   0.56419   0.16988   0.00000  Uiso   1.00
N735   N     0.03452   0.90960   0.97174   0.00000  Uiso   1.00
N736   N     0.88675   0.11207   0.16110   0.00000  Uiso   1.00
