data_job_00302
_audit_creation_date              2018-12-19
_audit_creation_method            'Materials Studio'
_symmetry_space_group_name_H-M    'P1'
_symmetry_Int_Tables_number       1
_symmetry_cell_setting            triclinic
loop_
_symmetry_equiv_pos_as_xyz
  x,y,z
_cell_length_a                    23.8306
_cell_length_b                    23.8306
_cell_length_c                    16.8089
_cell_angle_alpha                 90.0000
_cell_angle_beta                  90.0000
_cell_angle_gamma                 90.0000
loop_
_atom_site_label
_atom_site_type_symbol
_atom_site_fract_x
_atom_site_fract_y
_atom_site_fract_z
_atom_site_U_iso_or_equiv
_atom_site_adp_type
_atom_site_occupancy
C1     C     0.34976   0.31897   0.67870   0.00000  Uiso   1.00
C2     C     0.36051   0.33859   0.59370   0.00000  Uiso   1.00
C3     C     0.35401   0.30631   0.52561   0.00000  Uiso   1.00
C4     C     0.36599   0.33197   0.45342   0.00000  Uiso   1.00
C5     C     0.37999   0.35392   0.32203   0.00000  Uiso   1.00
C6     C     0.40426   0.32913   0.72401   0.00000  Uiso   1.00
C7     C     0.43453   0.28889   0.76549   0.00000  Uiso   1.00
C8     C     0.48333   0.30659   0.80301   0.00000  Uiso   1.00
C9     C     0.56523   0.31385   0.87398   0.00000  Uiso   1.00
C10    C     0.30700   0.35976   0.71351   0.00000  Uiso   1.00
C11    C     0.25552   0.34528   0.74618   0.00000  Uiso   1.00
C12    C     0.22244   0.38877   0.77487   0.00000  Uiso   1.00
C13    C     0.15335   0.44359   0.82954   0.00000  Uiso   1.00
C14    C     0.38258   0.42195   0.67159   0.00000  Uiso   1.00
C15    C     0.37834   0.39452   0.58985   0.00000  Uiso   1.00
C16    C     0.39032   0.42024   0.51774   0.00000  Uiso   1.00
C17    C     0.38384   0.38800   0.44955   0.00000  Uiso   1.00
C18    C     0.42208   0.38506   0.72015   0.00000  Uiso   1.00
C19    C     0.47084   0.40282   0.75762   0.00000  Uiso   1.00
C20    C     0.50119   0.36262   0.79914   0.00000  Uiso   1.00
C21    C     0.32483   0.41569   0.70965   0.00000  Uiso   1.00
C22    C     0.29183   0.45921   0.73831   0.00000  Uiso   1.00
C23    C     0.24030   0.44480   0.77101   0.00000  Uiso   1.00
H24    H     0.33588   0.27543   0.68171   0.00000  Uiso   1.00
H25    H     0.34022   0.26303   0.52862   0.00000  Uiso   1.00
H26    H     0.42072   0.24561   0.76847   0.00000  Uiso   1.00
H27    H     0.24174   0.30199   0.74916   0.00000  Uiso   1.00
H28    H     0.35291   0.27394   0.35720   0.00000  Uiso   1.00
H29    H     0.52265   0.23722   0.86296   0.00000  Uiso   1.00
H30    H     0.14522   0.35611   0.82223   0.00000  Uiso   1.00
H31    H     0.39646   0.46549   0.66859   0.00000  Uiso   1.00
H32    H     0.40412   0.46352   0.51477   0.00000  Uiso   1.00
H33    H     0.48462   0.44610   0.75463   0.00000  Uiso   1.00
H34    H     0.30563   0.50249   0.73531   0.00000  Uiso   1.00
H35    H     0.40477   0.43666   0.34595   0.00000  Uiso   1.00
H36    H     0.57451   0.39995   0.85172   0.00000  Uiso   1.00
H37    H     0.19708   0.51884   0.81099   0.00000  Uiso   1.00
O38    O     0.38281   0.35057   0.25063   0.00000  Uiso   1.00
O39    O     0.60549   0.30240   0.91418   0.00000  Uiso   1.00
O40    O     0.11031   0.45838   0.86074   0.00000  Uiso   1.00
N41    N     0.36405   0.31251   0.37566   0.00000  Uiso   1.00
N42    N     0.52276   0.27818   0.84850   0.00000  Uiso   1.00
N43    N     0.16989   0.38933   0.81045   0.00000  Uiso   1.00
N44    N     0.39196   0.40007   0.36961   0.00000  Uiso   1.00
N45    N     0.55066   0.36574   0.84245   0.00000  Uiso   1.00
N46    N     0.19780   0.47689   0.80440   0.00000  Uiso   1.00
C47    C     0.84976   0.81897   0.17870   0.00000  Uiso   1.00
C48    C     0.86051   0.83859   0.09370   0.00000  Uiso   1.00
C49    C     0.85401   0.80631   0.02561   0.00000  Uiso   1.00
C50    C     0.86599   0.83197   0.95342   0.00000  Uiso   1.00
C51    C     0.87999   0.85392   0.82203   0.00000  Uiso   1.00
C52    C     0.90426   0.82913   0.22401   0.00000  Uiso   1.00
C53    C     0.93453   0.78889   0.26549   0.00000  Uiso   1.00
C54    C     0.98333   0.80659   0.30301   0.00000  Uiso   1.00
C55    C     0.06523   0.81385   0.37398   0.00000  Uiso   1.00
C56    C     0.80700   0.85976   0.21351   0.00000  Uiso   1.00
C57    C     0.75552   0.84528   0.24618   0.00000  Uiso   1.00
C58    C     0.72244   0.88877   0.27487   0.00000  Uiso   1.00
C59    C     0.65335   0.94359   0.32954   0.00000  Uiso   1.00
C60    C     0.88258   0.92195   0.17159   0.00000  Uiso   1.00
C61    C     0.87834   0.89452   0.08985   0.00000  Uiso   1.00
C62    C     0.89032   0.92024   0.01774   0.00000  Uiso   1.00
C63    C     0.88384   0.88800   0.94955   0.00000  Uiso   1.00
C64    C     0.92208   0.88506   0.22015   0.00000  Uiso   1.00
C65    C     0.97084   0.90282   0.25762   0.00000  Uiso   1.00
C66    C     0.00119   0.86262   0.29914   0.00000  Uiso   1.00
C67    C     0.82483   0.91569   0.20965   0.00000  Uiso   1.00
C68    C     0.79183   0.95921   0.23831   0.00000  Uiso   1.00
C69    C     0.74030   0.94480   0.27101   0.00000  Uiso   1.00
H70    H     0.83588   0.77543   0.18171   0.00000  Uiso   1.00
H71    H     0.84022   0.76303   0.02862   0.00000  Uiso   1.00
H72    H     0.92072   0.74561   0.26847   0.00000  Uiso   1.00
H73    H     0.74174   0.80199   0.24916   0.00000  Uiso   1.00
H74    H     0.85291   0.77394   0.85720   0.00000  Uiso   1.00
H75    H     0.02265   0.73722   0.36296   0.00000  Uiso   1.00
H76    H     0.64522   0.85611   0.32223   0.00000  Uiso   1.00
H77    H     0.89646   0.96549   0.16859   0.00000  Uiso   1.00
H78    H     0.90412   0.96352   0.01477   0.00000  Uiso   1.00
H79    H     0.98462   0.94610   0.25463   0.00000  Uiso   1.00
H80    H     0.80563   0.00249   0.23531   0.00000  Uiso   1.00
H81    H     0.90477   0.93666   0.84595   0.00000  Uiso   1.00
H82    H     0.07451   0.89995   0.35172   0.00000  Uiso   1.00
H83    H     0.69708   0.01884   0.31099   0.00000  Uiso   1.00
O84    O     0.88281   0.85057   0.75063   0.00000  Uiso   1.00
O85    O     0.10549   0.80240   0.41418   0.00000  Uiso   1.00
O86    O     0.61031   0.95838   0.36074   0.00000  Uiso   1.00
N87    N     0.86405   0.81251   0.87566   0.00000  Uiso   1.00
N88    N     0.02276   0.77818   0.34850   0.00000  Uiso   1.00
N89    N     0.66989   0.88933   0.31045   0.00000  Uiso   1.00
N90    N     0.89196   0.90007   0.86961   0.00000  Uiso   1.00
N91    N     0.05066   0.86574   0.34245   0.00000  Uiso   1.00
N92    N     0.69780   0.97689   0.30440   0.00000  Uiso   1.00
C93    C     0.15024   0.18103   0.17870   0.00000  Uiso   1.00
C94    C     0.13949   0.16141   0.09370   0.00000  Uiso   1.00
C95    C     0.14599   0.19369   0.02561   0.00000  Uiso   1.00
C96    C     0.13401   0.16803   0.95342   0.00000  Uiso   1.00
C97    C     0.12001   0.14608   0.82203   0.00000  Uiso   1.00
C98    C     0.09574   0.17087   0.22401   0.00000  Uiso   1.00
C99    C     0.06547   0.21111   0.26549   0.00000  Uiso   1.00
C100   C     0.01667   0.19341   0.30301   0.00000  Uiso   1.00
C101   C     0.93477   0.18615   0.37398   0.00000  Uiso   1.00
C102   C     0.19300   0.14024   0.21351   0.00000  Uiso   1.00
C103   C     0.24448   0.15472   0.24618   0.00000  Uiso   1.00
C104   C     0.27756   0.11123   0.27487   0.00000  Uiso   1.00
C105   C     0.34665   0.05641   0.32954   0.00000  Uiso   1.00
C106   C     0.11742   0.07805   0.17159   0.00000  Uiso   1.00
C107   C     0.12166   0.10548   0.08985   0.00000  Uiso   1.00
C108   C     0.10968   0.07976   0.01774   0.00000  Uiso   1.00
C109   C     0.11616   0.11200   0.94955   0.00000  Uiso   1.00
C110   C     0.07792   0.11494   0.22015   0.00000  Uiso   1.00
C111   C     0.02916   0.09718   0.25762   0.00000  Uiso   1.00
C112   C     0.99881   0.13738   0.29914   0.00000  Uiso   1.00
C113   C     0.17517   0.08431   0.20965   0.00000  Uiso   1.00
C114   C     0.20817   0.04079   0.23831   0.00000  Uiso   1.00
C115   C     0.25970   0.05520   0.27101   0.00000  Uiso   1.00
H116   H     0.16412   0.22457   0.18171   0.00000  Uiso   1.00
H117   H     0.15978   0.23697   0.02862   0.00000  Uiso   1.00
H118   H     0.07928   0.25439   0.26847   0.00000  Uiso   1.00
H119   H     0.25826   0.19801   0.24916   0.00000  Uiso   1.00
H120   H     0.14709   0.22606   0.85720   0.00000  Uiso   1.00
H121   H     0.97735   0.26278   0.36296   0.00000  Uiso   1.00
H122   H     0.35478   0.14389   0.32223   0.00000  Uiso   1.00
H123   H     0.10354   0.03451   0.16859   0.00000  Uiso   1.00
H124   H     0.09588   0.03648   0.01477   0.00000  Uiso   1.00
H125   H     0.01538   0.05390   0.25463   0.00000  Uiso   1.00
H126   H     0.19437   0.99751   0.23531   0.00000  Uiso   1.00
H127   H     0.09523   0.06334   0.84595   0.00000  Uiso   1.00
H128   H     0.92549   0.10005   0.35172   0.00000  Uiso   1.00
H129   H     0.30292   0.98116   0.31099   0.00000  Uiso   1.00
O130   O     0.11719   0.14943   0.75063   0.00000  Uiso   1.00
O131   O     0.89451   0.19760   0.41418   0.00000  Uiso   1.00
O132   O     0.38969   0.04162   0.36074   0.00000  Uiso   1.00
N133   N     0.13595   0.18749   0.87566   0.00000  Uiso   1.00
N134   N     0.97724   0.22182   0.34850   0.00000  Uiso   1.00
N135   N     0.33011   0.11067   0.31045   0.00000  Uiso   1.00
N136   N     0.10804   0.09993   0.86961   0.00000  Uiso   1.00
N137   N     0.94934   0.13426   0.34245   0.00000  Uiso   1.00
N138   N     0.30220   0.02311   0.30440   0.00000  Uiso   1.00
C139   C     0.65024   0.68103   0.67870   0.00000  Uiso   1.00
C140   C     0.63949   0.66141   0.59370   0.00000  Uiso   1.00
C141   C     0.64599   0.69369   0.52561   0.00000  Uiso   1.00
C142   C     0.63401   0.66803   0.45342   0.00000  Uiso   1.00
C143   C     0.62001   0.64608   0.32203   0.00000  Uiso   1.00
C144   C     0.59574   0.67087   0.72401   0.00000  Uiso   1.00
C145   C     0.56547   0.71111   0.76549   0.00000  Uiso   1.00
C146   C     0.51667   0.69341   0.80301   0.00000  Uiso   1.00
C147   C     0.43477   0.68615   0.87398   0.00000  Uiso   1.00
C148   C     0.69300   0.64024   0.71351   0.00000  Uiso   1.00
C149   C     0.74448   0.65472   0.74618   0.00000  Uiso   1.00
C150   C     0.77756   0.61123   0.77487   0.00000  Uiso   1.00
C151   C     0.84665   0.55641   0.82954   0.00000  Uiso   1.00
C152   C     0.61742   0.57805   0.67159   0.00000  Uiso   1.00
C153   C     0.62166   0.60548   0.58985   0.00000  Uiso   1.00
C154   C     0.60968   0.57976   0.51774   0.00000  Uiso   1.00
C155   C     0.61616   0.61200   0.44955   0.00000  Uiso   1.00
C156   C     0.57792   0.61494   0.72015   0.00000  Uiso   1.00
C157   C     0.52916   0.59718   0.75762   0.00000  Uiso   1.00
C158   C     0.49881   0.63738   0.79914   0.00000  Uiso   1.00
C159   C     0.67517   0.58431   0.70965   0.00000  Uiso   1.00
C160   C     0.70817   0.54079   0.73831   0.00000  Uiso   1.00
C161   C     0.75970   0.55520   0.77101   0.00000  Uiso   1.00
H162   H     0.66412   0.72457   0.68171   0.00000  Uiso   1.00
H163   H     0.65978   0.73697   0.52862   0.00000  Uiso   1.00
H164   H     0.57928   0.75439   0.76847   0.00000  Uiso   1.00
H165   H     0.75826   0.69801   0.74916   0.00000  Uiso   1.00
H166   H     0.64709   0.72606   0.35720   0.00000  Uiso   1.00
H167   H     0.47735   0.76278   0.86296   0.00000  Uiso   1.00
H168   H     0.85478   0.64389   0.82223   0.00000  Uiso   1.00
H169   H     0.60354   0.53451   0.66859   0.00000  Uiso   1.00
H170   H     0.59588   0.53648   0.51477   0.00000  Uiso   1.00
H171   H     0.51538   0.55390   0.75463   0.00000  Uiso   1.00
H172   H     0.69437   0.49751   0.73531   0.00000  Uiso   1.00
H173   H     0.59523   0.56334   0.34595   0.00000  Uiso   1.00
H174   H     0.42549   0.60005   0.85172   0.00000  Uiso   1.00
H175   H     0.80292   0.48116   0.81099   0.00000  Uiso   1.00
O176   O     0.61719   0.64943   0.25063   0.00000  Uiso   1.00
O177   O     0.39451   0.69760   0.91418   0.00000  Uiso   1.00
O178   O     0.88969   0.54162   0.86074   0.00000  Uiso   1.00
N179   N     0.63595   0.68749   0.37566   0.00000  Uiso   1.00
N180   N     0.47724   0.72182   0.84850   0.00000  Uiso   1.00
N181   N     0.83011   0.61067   0.81045   0.00000  Uiso   1.00
N182   N     0.60804   0.59993   0.36961   0.00000  Uiso   1.00
N183   N     0.44934   0.63426   0.84245   0.00000  Uiso   1.00
N184   N     0.80220   0.52311   0.80440   0.00000  Uiso   1.00
C185   C     0.68103   0.84976   0.92870   0.00000  Uiso   1.00
C186   C     0.66141   0.86051   0.84370   0.00000  Uiso   1.00
C187   C     0.69369   0.85401   0.77561   0.00000  Uiso   1.00
C188   C     0.66803   0.86599   0.70342   0.00000  Uiso   1.00
C189   C     0.64608   0.87999   0.57203   0.00000  Uiso   1.00
C190   C     0.67087   0.90426   0.97401   0.00000  Uiso   1.00
C191   C     0.71111   0.93453   0.01549   0.00000  Uiso   1.00
C192   C     0.69341   0.98333   0.05301   0.00000  Uiso   1.00
C193   C     0.68615   0.06523   0.12398   0.00000  Uiso   1.00
C194   C     0.64024   0.80700   0.96351   0.00000  Uiso   1.00
C195   C     0.65472   0.75552   0.99618   0.00000  Uiso   1.00
C196   C     0.61123   0.72244   0.02487   0.00000  Uiso   1.00
C197   C     0.55641   0.65335   0.07954   0.00000  Uiso   1.00
C198   C     0.57805   0.88258   0.92159   0.00000  Uiso   1.00
C199   C     0.60548   0.87834   0.83985   0.00000  Uiso   1.00
C200   C     0.57976   0.89032   0.76774   0.00000  Uiso   1.00
C201   C     0.61200   0.88384   0.69955   0.00000  Uiso   1.00
C202   C     0.61494   0.92208   0.97015   0.00000  Uiso   1.00
C203   C     0.59718   0.97084   0.00762   0.00000  Uiso   1.00
C204   C     0.63738   0.00119   0.04914   0.00000  Uiso   1.00
C205   C     0.58431   0.82483   0.95965   0.00000  Uiso   1.00
C206   C     0.54079   0.79183   0.98831   0.00000  Uiso   1.00
C207   C     0.55520   0.74030   0.02101   0.00000  Uiso   1.00
H208   H     0.72457   0.83588   0.93171   0.00000  Uiso   1.00
H209   H     0.73697   0.84022   0.77862   0.00000  Uiso   1.00
H210   H     0.75439   0.92072   0.01847   0.00000  Uiso   1.00
H211   H     0.69801   0.74174   0.99916   0.00000  Uiso   1.00
H212   H     0.72606   0.85291   0.60720   0.00000  Uiso   1.00
H213   H     0.76278   0.02265   0.11296   0.00000  Uiso   1.00
H214   H     0.64389   0.64522   0.07223   0.00000  Uiso   1.00
H215   H     0.53451   0.89646   0.91859   0.00000  Uiso   1.00
H216   H     0.53648   0.90412   0.76477   0.00000  Uiso   1.00
H217   H     0.55390   0.98462   0.00463   0.00000  Uiso   1.00
H218   H     0.49751   0.80563   0.98531   0.00000  Uiso   1.00
H219   H     0.56334   0.90477   0.59595   0.00000  Uiso   1.00
H220   H     0.60005   0.07451   0.10172   0.00000  Uiso   1.00
H221   H     0.48116   0.69708   0.06099   0.00000  Uiso   1.00
O222   O     0.64943   0.88281   0.50063   0.00000  Uiso   1.00
O223   O     0.69760   0.10549   0.16418   0.00000  Uiso   1.00
O224   O     0.54162   0.61031   0.11074   0.00000  Uiso   1.00
N225   N     0.68749   0.86405   0.62566   0.00000  Uiso   1.00
N226   N     0.72182   0.02276   0.09850   0.00000  Uiso   1.00
N227   N     0.61067   0.66989   0.06045   0.00000  Uiso   1.00
N228   N     0.59993   0.89196   0.61961   0.00000  Uiso   1.00
N229   N     0.63426   0.05066   0.09245   0.00000  Uiso   1.00
N230   N     0.52311   0.69780   0.05440   0.00000  Uiso   1.00
C231   C     0.18103   0.34976   0.42870   0.00000  Uiso   1.00
C232   C     0.16141   0.36051   0.34370   0.00000  Uiso   1.00
C233   C     0.19369   0.35401   0.27561   0.00000  Uiso   1.00
C234   C     0.16803   0.36599   0.20342   0.00000  Uiso   1.00
C235   C     0.14608   0.37999   0.07203   0.00000  Uiso   1.00
C236   C     0.17087   0.40426   0.47401   0.00000  Uiso   1.00
C237   C     0.21111   0.43453   0.51549   0.00000  Uiso   1.00
C238   C     0.19341   0.48333   0.55301   0.00000  Uiso   1.00
C239   C     0.18615   0.56523   0.62398   0.00000  Uiso   1.00
C240   C     0.14024   0.30700   0.46351   0.00000  Uiso   1.00
C241   C     0.15472   0.25552   0.49618   0.00000  Uiso   1.00
C242   C     0.11123   0.22244   0.52487   0.00000  Uiso   1.00
C243   C     0.05641   0.15335   0.57954   0.00000  Uiso   1.00
C244   C     0.07805   0.38258   0.42159   0.00000  Uiso   1.00
C245   C     0.10548   0.37834   0.33985   0.00000  Uiso   1.00
C246   C     0.07976   0.39032   0.26774   0.00000  Uiso   1.00
C247   C     0.11200   0.38384   0.19955   0.00000  Uiso   1.00
C248   C     0.11494   0.42208   0.47015   0.00000  Uiso   1.00
C249   C     0.09718   0.47084   0.50762   0.00000  Uiso   1.00
C250   C     0.13738   0.50119   0.54914   0.00000  Uiso   1.00
C251   C     0.08431   0.32483   0.45965   0.00000  Uiso   1.00
C252   C     0.04079   0.29183   0.48831   0.00000  Uiso   1.00
C253   C     0.05520   0.24030   0.52101   0.00000  Uiso   1.00
H254   H     0.22457   0.33588   0.43171   0.00000  Uiso   1.00
H255   H     0.23697   0.34022   0.27862   0.00000  Uiso   1.00
H256   H     0.25439   0.42072   0.51847   0.00000  Uiso   1.00
H257   H     0.19801   0.24174   0.49916   0.00000  Uiso   1.00
H258   H     0.22606   0.35291   0.10720   0.00000  Uiso   1.00
H259   H     0.26278   0.52265   0.61296   0.00000  Uiso   1.00
H260   H     0.14389   0.14522   0.57223   0.00000  Uiso   1.00
H261   H     0.03451   0.39646   0.41859   0.00000  Uiso   1.00
H262   H     0.03648   0.40412   0.26477   0.00000  Uiso   1.00
H263   H     0.05390   0.48462   0.50463   0.00000  Uiso   1.00
H264   H     0.99751   0.30563   0.48531   0.00000  Uiso   1.00
H265   H     0.06334   0.40477   0.09595   0.00000  Uiso   1.00
H266   H     0.10005   0.57451   0.60172   0.00000  Uiso   1.00
H267   H     0.98116   0.19708   0.56099   0.00000  Uiso   1.00
O268   O     0.14943   0.38281   0.00063   0.00000  Uiso   1.00
O269   O     0.19760   0.60549   0.66418   0.00000  Uiso   1.00
O270   O     0.04162   0.11031   0.61074   0.00000  Uiso   1.00
N271   N     0.18749   0.36405   0.12566   0.00000  Uiso   1.00
N272   N     0.22182   0.52276   0.59850   0.00000  Uiso   1.00
N273   N     0.11067   0.16989   0.56045   0.00000  Uiso   1.00
N274   N     0.09993   0.39196   0.11961   0.00000  Uiso   1.00
N275   N     0.13426   0.55066   0.59245   0.00000  Uiso   1.00
N276   N     0.02311   0.19780   0.55440   0.00000  Uiso   1.00
C277   C     0.81897   0.65024   0.42870   0.00000  Uiso   1.00
C278   C     0.83859   0.63949   0.34370   0.00000  Uiso   1.00
C279   C     0.80631   0.64599   0.27561   0.00000  Uiso   1.00
C280   C     0.83197   0.63401   0.20342   0.00000  Uiso   1.00
C281   C     0.85392   0.62001   0.07203   0.00000  Uiso   1.00
C282   C     0.82913   0.59574   0.47401   0.00000  Uiso   1.00
C283   C     0.78889   0.56547   0.51549   0.00000  Uiso   1.00
C284   C     0.80659   0.51667   0.55301   0.00000  Uiso   1.00
C285   C     0.81385   0.43477   0.62398   0.00000  Uiso   1.00
C286   C     0.85976   0.69300   0.46351   0.00000  Uiso   1.00
C287   C     0.84528   0.74448   0.49618   0.00000  Uiso   1.00
C288   C     0.88877   0.77756   0.52487   0.00000  Uiso   1.00
C289   C     0.94359   0.84665   0.57954   0.00000  Uiso   1.00
C290   C     0.92195   0.61742   0.42159   0.00000  Uiso   1.00
C291   C     0.89452   0.62166   0.33985   0.00000  Uiso   1.00
C292   C     0.92024   0.60968   0.26774   0.00000  Uiso   1.00
C293   C     0.88800   0.61616   0.19955   0.00000  Uiso   1.00
C294   C     0.88506   0.57792   0.47015   0.00000  Uiso   1.00
C295   C     0.90282   0.52916   0.50762   0.00000  Uiso   1.00
C296   C     0.86262   0.49881   0.54914   0.00000  Uiso   1.00
C297   C     0.91569   0.67517   0.45965   0.00000  Uiso   1.00
C298   C     0.95921   0.70817   0.48831   0.00000  Uiso   1.00
C299   C     0.94480   0.75970   0.52101   0.00000  Uiso   1.00
H300   H     0.77543   0.66412   0.43171   0.00000  Uiso   1.00
H301   H     0.76303   0.65978   0.27862   0.00000  Uiso   1.00
H302   H     0.74561   0.57928   0.51847   0.00000  Uiso   1.00
H303   H     0.80199   0.75826   0.49916   0.00000  Uiso   1.00
H304   H     0.77394   0.64709   0.10720   0.00000  Uiso   1.00
H305   H     0.73722   0.47735   0.61296   0.00000  Uiso   1.00
H306   H     0.85611   0.85478   0.57223   0.00000  Uiso   1.00
H307   H     0.96549   0.60354   0.41859   0.00000  Uiso   1.00
H308   H     0.96352   0.59588   0.26477   0.00000  Uiso   1.00
H309   H     0.94610   0.51538   0.50463   0.00000  Uiso   1.00
H310   H     0.00249   0.69437   0.48531   0.00000  Uiso   1.00
H311   H     0.93666   0.59523   0.09595   0.00000  Uiso   1.00
H312   H     0.89995   0.42549   0.60172   0.00000  Uiso   1.00
H313   H     0.01884   0.80292   0.56099   0.00000  Uiso   1.00
O314   O     0.85057   0.61719   0.00063   0.00000  Uiso   1.00
O315   O     0.80240   0.39451   0.66418   0.00000  Uiso   1.00
O316   O     0.95838   0.88969   0.61074   0.00000  Uiso   1.00
N317   N     0.81251   0.63595   0.12566   0.00000  Uiso   1.00
N318   N     0.77818   0.47724   0.59850   0.00000  Uiso   1.00
N319   N     0.88933   0.83011   0.56045   0.00000  Uiso   1.00
N320   N     0.90007   0.60804   0.11961   0.00000  Uiso   1.00
N321   N     0.86574   0.44934   0.59245   0.00000  Uiso   1.00
N322   N     0.97689   0.80220   0.55440   0.00000  Uiso   1.00
C323   C     0.31897   0.15024   0.92870   0.00000  Uiso   1.00
C324   C     0.33859   0.13949   0.84370   0.00000  Uiso   1.00
C325   C     0.30631   0.14599   0.77561   0.00000  Uiso   1.00
C326   C     0.33197   0.13401   0.70342   0.00000  Uiso   1.00
C327   C     0.35392   0.12001   0.57203   0.00000  Uiso   1.00
C328   C     0.32913   0.09574   0.97401   0.00000  Uiso   1.00
C329   C     0.28889   0.06547   0.01549   0.00000  Uiso   1.00
C330   C     0.30659   0.01667   0.05301   0.00000  Uiso   1.00
C331   C     0.31385   0.93477   0.12398   0.00000  Uiso   1.00
C332   C     0.35976   0.19300   0.96351   0.00000  Uiso   1.00
C333   C     0.34528   0.24448   0.99618   0.00000  Uiso   1.00
C334   C     0.38877   0.27756   0.02487   0.00000  Uiso   1.00
C335   C     0.44359   0.34665   0.07954   0.00000  Uiso   1.00
C336   C     0.42195   0.11742   0.92159   0.00000  Uiso   1.00
C337   C     0.39452   0.12166   0.83985   0.00000  Uiso   1.00
C338   C     0.42024   0.10968   0.76774   0.00000  Uiso   1.00
C339   C     0.38800   0.11616   0.69955   0.00000  Uiso   1.00
C340   C     0.38506   0.07792   0.97015   0.00000  Uiso   1.00
C341   C     0.40282   0.02916   0.00762   0.00000  Uiso   1.00
C342   C     0.36262   0.99881   0.04914   0.00000  Uiso   1.00
C343   C     0.41569   0.17517   0.95965   0.00000  Uiso   1.00
C344   C     0.45921   0.20817   0.98831   0.00000  Uiso   1.00
C345   C     0.44480   0.25970   0.02101   0.00000  Uiso   1.00
H346   H     0.27543   0.16412   0.93171   0.00000  Uiso   1.00
H347   H     0.26303   0.15978   0.77862   0.00000  Uiso   1.00
H348   H     0.24561   0.07928   0.01847   0.00000  Uiso   1.00
H349   H     0.30199   0.25826   0.99916   0.00000  Uiso   1.00
H350   H     0.27394   0.14709   0.60720   0.00000  Uiso   1.00
H351   H     0.23722   0.97735   0.11296   0.00000  Uiso   1.00
H352   H     0.35611   0.35478   0.07223   0.00000  Uiso   1.00
H353   H     0.46549   0.10354   0.91859   0.00000  Uiso   1.00
H354   H     0.46352   0.09588   0.76477   0.00000  Uiso   1.00
H355   H     0.44610   0.01538   0.00463   0.00000  Uiso   1.00
H356   H     0.50249   0.19437   0.98531   0.00000  Uiso   1.00
H357   H     0.43666   0.09523   0.59595   0.00000  Uiso   1.00
H358   H     0.39995   0.92549   0.10172   0.00000  Uiso   1.00
H359   H     0.51884   0.30292   0.06099   0.00000  Uiso   1.00
O360   O     0.35057   0.11719   0.50063   0.00000  Uiso   1.00
O361   O     0.30240   0.89451   0.16418   0.00000  Uiso   1.00
O362   O     0.45838   0.38969   0.11074   0.00000  Uiso   1.00
N363   N     0.31251   0.13595   0.62566   0.00000  Uiso   1.00
N364   N     0.27818   0.97724   0.09850   0.00000  Uiso   1.00
N365   N     0.38933   0.33011   0.06045   0.00000  Uiso   1.00
N366   N     0.40007   0.10804   0.61961   0.00000  Uiso   1.00
N367   N     0.36574   0.94934   0.09245   0.00000  Uiso   1.00
N368   N     0.47689   0.30220   0.05440   0.00000  Uiso   1.00
C369   C     0.65024   0.18103   0.57130   0.00000  Uiso   1.00
C370   C     0.63949   0.16141   0.65630   0.00000  Uiso   1.00
C371   C     0.64599   0.19369   0.72439   0.00000  Uiso   1.00
C372   C     0.63401   0.16803   0.79658   0.00000  Uiso   1.00
C373   C     0.62001   0.14608   0.92797   0.00000  Uiso   1.00
C374   C     0.59574   0.17087   0.52599   0.00000  Uiso   1.00
C375   C     0.56547   0.21111   0.48451   0.00000  Uiso   1.00
C376   C     0.51667   0.19341   0.44699   0.00000  Uiso   1.00
C377   C     0.43477   0.18615   0.37602   0.00000  Uiso   1.00
C378   C     0.69300   0.14024   0.53649   0.00000  Uiso   1.00
C379   C     0.74448   0.15472   0.50382   0.00000  Uiso   1.00
C380   C     0.77756   0.11123   0.47513   0.00000  Uiso   1.00
C381   C     0.84665   0.05641   0.42046   0.00000  Uiso   1.00
C382   C     0.61742   0.07805   0.57841   0.00000  Uiso   1.00
C383   C     0.62166   0.10548   0.66015   0.00000  Uiso   1.00
C384   C     0.60968   0.07976   0.73226   0.00000  Uiso   1.00
C385   C     0.61616   0.11200   0.80045   0.00000  Uiso   1.00
C386   C     0.57792   0.11494   0.52985   0.00000  Uiso   1.00
C387   C     0.52916   0.09718   0.49238   0.00000  Uiso   1.00
C388   C     0.49881   0.13738   0.45086   0.00000  Uiso   1.00
C389   C     0.67517   0.08431   0.54035   0.00000  Uiso   1.00
C390   C     0.70817   0.04079   0.51169   0.00000  Uiso   1.00
C391   C     0.75970   0.05520   0.47899   0.00000  Uiso   1.00
H392   H     0.66412   0.22457   0.56829   0.00000  Uiso   1.00
H393   H     0.65978   0.23697   0.72138   0.00000  Uiso   1.00
H394   H     0.57928   0.25439   0.48153   0.00000  Uiso   1.00
H395   H     0.75826   0.19801   0.50084   0.00000  Uiso   1.00
H396   H     0.64709   0.22606   0.89280   0.00000  Uiso   1.00
H397   H     0.47735   0.26278   0.38704   0.00000  Uiso   1.00
H398   H     0.85478   0.14389   0.42777   0.00000  Uiso   1.00
H399   H     0.60354   0.03451   0.58141   0.00000  Uiso   1.00
H400   H     0.59588   0.03648   0.73523   0.00000  Uiso   1.00
H401   H     0.51538   0.05390   0.49537   0.00000  Uiso   1.00
H402   H     0.69437   0.99751   0.51469   0.00000  Uiso   1.00
H403   H     0.59523   0.06334   0.90405   0.00000  Uiso   1.00
H404   H     0.42549   0.10005   0.39828   0.00000  Uiso   1.00
H405   H     0.80292   0.98116   0.43901   0.00000  Uiso   1.00
O406   O     0.61719   0.14943   0.99937   0.00000  Uiso   1.00
O407   O     0.39451   0.19760   0.33582   0.00000  Uiso   1.00
O408   O     0.88969   0.04162   0.38926   0.00000  Uiso   1.00
N409   N     0.63595   0.18749   0.87434   0.00000  Uiso   1.00
N410   N     0.47724   0.22182   0.40150   0.00000  Uiso   1.00
N411   N     0.83011   0.11067   0.43955   0.00000  Uiso   1.00
N412   N     0.60804   0.09993   0.88039   0.00000  Uiso   1.00
N413   N     0.44934   0.13426   0.40755   0.00000  Uiso   1.00
N414   N     0.80220   0.02311   0.44560   0.00000  Uiso   1.00
C415   C     0.15024   0.68103   0.07130   0.00000  Uiso   1.00
C416   C     0.13949   0.66141   0.15630   0.00000  Uiso   1.00
C417   C     0.14599   0.69369   0.22439   0.00000  Uiso   1.00
C418   C     0.13401   0.66803   0.29658   0.00000  Uiso   1.00
C419   C     0.12001   0.64608   0.42797   0.00000  Uiso   1.00
C420   C     0.09574   0.67087   0.02599   0.00000  Uiso   1.00
C421   C     0.06547   0.71111   0.98451   0.00000  Uiso   1.00
C422   C     0.01667   0.69341   0.94699   0.00000  Uiso   1.00
C423   C     0.93477   0.68615   0.87602   0.00000  Uiso   1.00
C424   C     0.19300   0.64024   0.03649   0.00000  Uiso   1.00
C425   C     0.24448   0.65472   0.00382   0.00000  Uiso   1.00
C426   C     0.27756   0.61123   0.97513   0.00000  Uiso   1.00
C427   C     0.34665   0.55641   0.92046   0.00000  Uiso   1.00
C428   C     0.11742   0.57805   0.07841   0.00000  Uiso   1.00
C429   C     0.12166   0.60548   0.16015   0.00000  Uiso   1.00
C430   C     0.10968   0.57976   0.23226   0.00000  Uiso   1.00
C431   C     0.11616   0.61200   0.30045   0.00000  Uiso   1.00
C432   C     0.07792   0.61494   0.02985   0.00000  Uiso   1.00
C433   C     0.02916   0.59718   0.99238   0.00000  Uiso   1.00
C434   C     0.99881   0.63738   0.95086   0.00000  Uiso   1.00
C435   C     0.17517   0.58431   0.04035   0.00000  Uiso   1.00
C436   C     0.20817   0.54079   0.01169   0.00000  Uiso   1.00
C437   C     0.25970   0.55520   0.97899   0.00000  Uiso   1.00
H438   H     0.16412   0.72457   0.06829   0.00000  Uiso   1.00
H439   H     0.15978   0.73697   0.22138   0.00000  Uiso   1.00
H440   H     0.07928   0.75439   0.98153   0.00000  Uiso   1.00
H441   H     0.25826   0.69801   0.00084   0.00000  Uiso   1.00
H442   H     0.14709   0.72606   0.39280   0.00000  Uiso   1.00
H443   H     0.97735   0.76278   0.88704   0.00000  Uiso   1.00
H444   H     0.35478   0.64389   0.92777   0.00000  Uiso   1.00
H445   H     0.10354   0.53451   0.08141   0.00000  Uiso   1.00
H446   H     0.09588   0.53648   0.23523   0.00000  Uiso   1.00
H447   H     0.01538   0.55390   0.99537   0.00000  Uiso   1.00
H448   H     0.19437   0.49751   0.01469   0.00000  Uiso   1.00
H449   H     0.09523   0.56334   0.40405   0.00000  Uiso   1.00
H450   H     0.92549   0.60005   0.89828   0.00000  Uiso   1.00
H451   H     0.30292   0.48116   0.93901   0.00000  Uiso   1.00
O452   O     0.11719   0.64943   0.49937   0.00000  Uiso   1.00
O453   O     0.89451   0.69760   0.83582   0.00000  Uiso   1.00
O454   O     0.38969   0.54162   0.88926   0.00000  Uiso   1.00
N455   N     0.13595   0.68749   0.37434   0.00000  Uiso   1.00
N456   N     0.97724   0.72182   0.90150   0.00000  Uiso   1.00
N457   N     0.33011   0.61067   0.93955   0.00000  Uiso   1.00
N458   N     0.10804   0.59993   0.38039   0.00000  Uiso   1.00
N459   N     0.94934   0.63426   0.90755   0.00000  Uiso   1.00
N460   N     0.30220   0.52311   0.94560   0.00000  Uiso   1.00
C461   C     0.84976   0.31897   0.07130   0.00000  Uiso   1.00
C462   C     0.86051   0.33859   0.15630   0.00000  Uiso   1.00
C463   C     0.85401   0.30631   0.22439   0.00000  Uiso   1.00
C464   C     0.86599   0.33197   0.29658   0.00000  Uiso   1.00
C465   C     0.87999   0.35392   0.42797   0.00000  Uiso   1.00
C466   C     0.90426   0.32913   0.02599   0.00000  Uiso   1.00
C467   C     0.93453   0.28889   0.98451   0.00000  Uiso   1.00
C468   C     0.98333   0.30659   0.94699   0.00000  Uiso   1.00
C469   C     0.06523   0.31385   0.87602   0.00000  Uiso   1.00
C470   C     0.80700   0.35976   0.03649   0.00000  Uiso   1.00
C471   C     0.75552   0.34528   0.00382   0.00000  Uiso   1.00
C472   C     0.72244   0.38877   0.97513   0.00000  Uiso   1.00
C473   C     0.65335   0.44359   0.92046   0.00000  Uiso   1.00
C474   C     0.88258   0.42195   0.07841   0.00000  Uiso   1.00
C475   C     0.87834   0.39452   0.16015   0.00000  Uiso   1.00
C476   C     0.89032   0.42024   0.23226   0.00000  Uiso   1.00
C477   C     0.88384   0.38800   0.30045   0.00000  Uiso   1.00
C478   C     0.92208   0.38506   0.02985   0.00000  Uiso   1.00
C479   C     0.97084   0.40282   0.99238   0.00000  Uiso   1.00
C480   C     0.00119   0.36262   0.95086   0.00000  Uiso   1.00
C481   C     0.82483   0.41569   0.04035   0.00000  Uiso   1.00
C482   C     0.79183   0.45921   0.01169   0.00000  Uiso   1.00
C483   C     0.74030   0.44480   0.97899   0.00000  Uiso   1.00
H484   H     0.83588   0.27543   0.06829   0.00000  Uiso   1.00
H485   H     0.84022   0.26303   0.22138   0.00000  Uiso   1.00
H486   H     0.92072   0.24561   0.98153   0.00000  Uiso   1.00
H487   H     0.74174   0.30199   0.00084   0.00000  Uiso   1.00
H488   H     0.85291   0.27394   0.39280   0.00000  Uiso   1.00
H489   H     0.02265   0.23722   0.88704   0.00000  Uiso   1.00
H490   H     0.64522   0.35611   0.92777   0.00000  Uiso   1.00
H491   H     0.89646   0.46549   0.08141   0.00000  Uiso   1.00
H492   H     0.90412   0.46352   0.23523   0.00000  Uiso   1.00
H493   H     0.98462   0.44610   0.99537   0.00000  Uiso   1.00
H494   H     0.80563   0.50249   0.01469   0.00000  Uiso   1.00
H495   H     0.90477   0.43666   0.40405   0.00000  Uiso   1.00
H496   H     0.07451   0.39995   0.89828   0.00000  Uiso   1.00
H497   H     0.69708   0.51884   0.93901   0.00000  Uiso   1.00
O498   O     0.88281   0.35057   0.49937   0.00000  Uiso   1.00
O499   O     0.10549   0.30240   0.83582   0.00000  Uiso   1.00
O500   O     0.61031   0.45838   0.88926   0.00000  Uiso   1.00
N501   N     0.86405   0.31251   0.37434   0.00000  Uiso   1.00
N502   N     0.02276   0.27818   0.90150   0.00000  Uiso   1.00
N503   N     0.66989   0.38933   0.93955   0.00000  Uiso   1.00
N504   N     0.89196   0.40007   0.38039   0.00000  Uiso   1.00
N505   N     0.05066   0.36574   0.90755   0.00000  Uiso   1.00
N506   N     0.69780   0.47689   0.94560   0.00000  Uiso   1.00
C507   C     0.34976   0.81897   0.57130   0.00000  Uiso   1.00
C508   C     0.36051   0.83859   0.65630   0.00000  Uiso   1.00
C509   C     0.35401   0.80631   0.72439   0.00000  Uiso   1.00
C510   C     0.36599   0.83197   0.79658   0.00000  Uiso   1.00
C511   C     0.37999   0.85392   0.92797   0.00000  Uiso   1.00
C512   C     0.40426   0.82913   0.52599   0.00000  Uiso   1.00
C513   C     0.43453   0.78889   0.48451   0.00000  Uiso   1.00
C514   C     0.48333   0.80659   0.44699   0.00000  Uiso   1.00
C515   C     0.56523   0.81385   0.37602   0.00000  Uiso   1.00
C516   C     0.30700   0.85976   0.53649   0.00000  Uiso   1.00
C517   C     0.25552   0.84528   0.50382   0.00000  Uiso   1.00
C518   C     0.22244   0.88877   0.47513   0.00000  Uiso   1.00
C519   C     0.15335   0.94359   0.42046   0.00000  Uiso   1.00
C520   C     0.38258   0.92195   0.57841   0.00000  Uiso   1.00
C521   C     0.37834   0.89452   0.66015   0.00000  Uiso   1.00
C522   C     0.39032   0.92024   0.73226   0.00000  Uiso   1.00
C523   C     0.38384   0.88800   0.80045   0.00000  Uiso   1.00
C524   C     0.42208   0.88506   0.52985   0.00000  Uiso   1.00
C525   C     0.47084   0.90282   0.49238   0.00000  Uiso   1.00
C526   C     0.50119   0.86262   0.45086   0.00000  Uiso   1.00
C527   C     0.32483   0.91569   0.54035   0.00000  Uiso   1.00
C528   C     0.29183   0.95921   0.51169   0.00000  Uiso   1.00
C529   C     0.24030   0.94480   0.47899   0.00000  Uiso   1.00
H530   H     0.33588   0.77543   0.56829   0.00000  Uiso   1.00
H531   H     0.34022   0.76303   0.72138   0.00000  Uiso   1.00
H532   H     0.42072   0.74561   0.48153   0.00000  Uiso   1.00
H533   H     0.24174   0.80199   0.50084   0.00000  Uiso   1.00
H534   H     0.35291   0.77394   0.89280   0.00000  Uiso   1.00
H535   H     0.52265   0.73722   0.38704   0.00000  Uiso   1.00
H536   H     0.14522   0.85611   0.42777   0.00000  Uiso   1.00
H537   H     0.39646   0.96549   0.58141   0.00000  Uiso   1.00
H538   H     0.40412   0.96352   0.73523   0.00000  Uiso   1.00
H539   H     0.48462   0.94610   0.49537   0.00000  Uiso   1.00
H540   H     0.30563   0.00249   0.51469   0.00000  Uiso   1.00
H541   H     0.40477   0.93666   0.90405   0.00000  Uiso   1.00
H542   H     0.57451   0.89995   0.39828   0.00000  Uiso   1.00
H543   H     0.19708   0.01884   0.43901   0.00000  Uiso   1.00
O544   O     0.38281   0.85057   0.99937   0.00000  Uiso   1.00
O545   O     0.60549   0.80240   0.33582   0.00000  Uiso   1.00
O546   O     0.11031   0.95838   0.38926   0.00000  Uiso   1.00
N547   N     0.36405   0.81251   0.87434   0.00000  Uiso   1.00
N548   N     0.52276   0.77818   0.40150   0.00000  Uiso   1.00
N549   N     0.16989   0.88933   0.43955   0.00000  Uiso   1.00
N550   N     0.39196   0.90007   0.88039   0.00000  Uiso   1.00
N551   N     0.55066   0.86574   0.40755   0.00000  Uiso   1.00
N552   N     0.19780   0.97689   0.44560   0.00000  Uiso   1.00
C553   C     0.31897   0.65024   0.32130   0.00000  Uiso   1.00
C554   C     0.33859   0.63949   0.40630   0.00000  Uiso   1.00
C555   C     0.30631   0.64599   0.47439   0.00000  Uiso   1.00
C556   C     0.33197   0.63401   0.54658   0.00000  Uiso   1.00
C557   C     0.35392   0.62001   0.67797   0.00000  Uiso   1.00
C558   C     0.32913   0.59574   0.27599   0.00000  Uiso   1.00
C559   C     0.28889   0.56547   0.23451   0.00000  Uiso   1.00
C560   C     0.30659   0.51667   0.19699   0.00000  Uiso   1.00
C561   C     0.31385   0.43477   0.12602   0.00000  Uiso   1.00
C562   C     0.35976   0.69300   0.28649   0.00000  Uiso   1.00
C563   C     0.34528   0.74448   0.25382   0.00000  Uiso   1.00
C564   C     0.38877   0.77756   0.22513   0.00000  Uiso   1.00
C565   C     0.44359   0.84665   0.17046   0.00000  Uiso   1.00
C566   C     0.42195   0.61742   0.32841   0.00000  Uiso   1.00
C567   C     0.39452   0.62166   0.41015   0.00000  Uiso   1.00
C568   C     0.42024   0.60968   0.48226   0.00000  Uiso   1.00
C569   C     0.38800   0.61616   0.55045   0.00000  Uiso   1.00
C570   C     0.38506   0.57792   0.27985   0.00000  Uiso   1.00
C571   C     0.40282   0.52916   0.24238   0.00000  Uiso   1.00
C572   C     0.36262   0.49881   0.20086   0.00000  Uiso   1.00
C573   C     0.41569   0.67517   0.29035   0.00000  Uiso   1.00
C574   C     0.45921   0.70817   0.26169   0.00000  Uiso   1.00
C575   C     0.44480   0.75970   0.22899   0.00000  Uiso   1.00
H576   H     0.27543   0.66412   0.31829   0.00000  Uiso   1.00
H577   H     0.26303   0.65978   0.47138   0.00000  Uiso   1.00
H578   H     0.24561   0.57928   0.23153   0.00000  Uiso   1.00
H579   H     0.30199   0.75826   0.25084   0.00000  Uiso   1.00
H580   H     0.27394   0.64709   0.64280   0.00000  Uiso   1.00
H581   H     0.23722   0.47735   0.13704   0.00000  Uiso   1.00
H582   H     0.35611   0.85478   0.17777   0.00000  Uiso   1.00
H583   H     0.46549   0.60354   0.33141   0.00000  Uiso   1.00
H584   H     0.46352   0.59588   0.48523   0.00000  Uiso   1.00
H585   H     0.44610   0.51538   0.24537   0.00000  Uiso   1.00
H586   H     0.50249   0.69437   0.26469   0.00000  Uiso   1.00
H587   H     0.43666   0.59523   0.65405   0.00000  Uiso   1.00
H588   H     0.39995   0.42549   0.14828   0.00000  Uiso   1.00
H589   H     0.51884   0.80292   0.18901   0.00000  Uiso   1.00
O590   O     0.35057   0.61719   0.74937   0.00000  Uiso   1.00
O591   O     0.30240   0.39451   0.08582   0.00000  Uiso   1.00
O592   O     0.45838   0.88969   0.13926   0.00000  Uiso   1.00
N593   N     0.31251   0.63595   0.62434   0.00000  Uiso   1.00
N594   N     0.27818   0.47724   0.15150   0.00000  Uiso   1.00
N595   N     0.38933   0.83011   0.18955   0.00000  Uiso   1.00
N596   N     0.40007   0.60804   0.63039   0.00000  Uiso   1.00
N597   N     0.36574   0.44934   0.15755   0.00000  Uiso   1.00
N598   N     0.47689   0.80220   0.19560   0.00000  Uiso   1.00
C599   C     0.81897   0.15024   0.82130   0.00000  Uiso   1.00
C600   C     0.83859   0.13949   0.90630   0.00000  Uiso   1.00
C601   C     0.80631   0.14599   0.97439   0.00000  Uiso   1.00
C602   C     0.83197   0.13401   0.04658   0.00000  Uiso   1.00
C603   C     0.85392   0.12001   0.17797   0.00000  Uiso   1.00
C604   C     0.82913   0.09574   0.77599   0.00000  Uiso   1.00
C605   C     0.78889   0.06547   0.73451   0.00000  Uiso   1.00
C606   C     0.80659   0.01667   0.69699   0.00000  Uiso   1.00
C607   C     0.81385   0.93477   0.62602   0.00000  Uiso   1.00
C608   C     0.85976   0.19300   0.78649   0.00000  Uiso   1.00
C609   C     0.84528   0.24448   0.75382   0.00000  Uiso   1.00
C610   C     0.88877   0.27756   0.72513   0.00000  Uiso   1.00
C611   C     0.94359   0.34665   0.67046   0.00000  Uiso   1.00
C612   C     0.92195   0.11742   0.82841   0.00000  Uiso   1.00
C613   C     0.89452   0.12166   0.91015   0.00000  Uiso   1.00
C614   C     0.92024   0.10968   0.98226   0.00000  Uiso   1.00
C615   C     0.88800   0.11616   0.05045   0.00000  Uiso   1.00
C616   C     0.88506   0.07792   0.77985   0.00000  Uiso   1.00
C617   C     0.90282   0.02916   0.74238   0.00000  Uiso   1.00
C618   C     0.86262   0.99881   0.70086   0.00000  Uiso   1.00
C619   C     0.91569   0.17517   0.79035   0.00000  Uiso   1.00
C620   C     0.95921   0.20817   0.76169   0.00000  Uiso   1.00
C621   C     0.94480   0.25970   0.72899   0.00000  Uiso   1.00
H622   H     0.77543   0.16412   0.81829   0.00000  Uiso   1.00
H623   H     0.76303   0.15978   0.97138   0.00000  Uiso   1.00
H624   H     0.74561   0.07928   0.73153   0.00000  Uiso   1.00
H625   H     0.80199   0.25826   0.75084   0.00000  Uiso   1.00
H626   H     0.77394   0.14709   0.14280   0.00000  Uiso   1.00
H627   H     0.73722   0.97735   0.63704   0.00000  Uiso   1.00
H628   H     0.85611   0.35478   0.67777   0.00000  Uiso   1.00
H629   H     0.96549   0.10354   0.83141   0.00000  Uiso   1.00
H630   H     0.96352   0.09588   0.98523   0.00000  Uiso   1.00
H631   H     0.94610   0.01538   0.74537   0.00000  Uiso   1.00
H632   H     0.00249   0.19437   0.76469   0.00000  Uiso   1.00
H633   H     0.93666   0.09523   0.15405   0.00000  Uiso   1.00
H634   H     0.89995   0.92549   0.64828   0.00000  Uiso   1.00
H635   H     0.01884   0.30292   0.68901   0.00000  Uiso   1.00
O636   O     0.85057   0.11719   0.24937   0.00000  Uiso   1.00
O637   O     0.80240   0.89451   0.58582   0.00000  Uiso   1.00
O638   O     0.95838   0.38969   0.63926   0.00000  Uiso   1.00
N639   N     0.81251   0.13595   0.12434   0.00000  Uiso   1.00
N640   N     0.77818   0.97724   0.65150   0.00000  Uiso   1.00
N641   N     0.88933   0.33011   0.68955   0.00000  Uiso   1.00
N642   N     0.90007   0.10804   0.13039   0.00000  Uiso   1.00
N643   N     0.86574   0.94934   0.65755   0.00000  Uiso   1.00
N644   N     0.97689   0.30220   0.69560   0.00000  Uiso   1.00
C645   C     0.18103   0.84976   0.82130   0.00000  Uiso   1.00
C646   C     0.16141   0.86051   0.90630   0.00000  Uiso   1.00
C647   C     0.19369   0.85401   0.97439   0.00000  Uiso   1.00
C648   C     0.16803   0.86599   0.04658   0.00000  Uiso   1.00
C649   C     0.14608   0.87999   0.17797   0.00000  Uiso   1.00
C650   C     0.17087   0.90426   0.77599   0.00000  Uiso   1.00
C651   C     0.21111   0.93453   0.73451   0.00000  Uiso   1.00
C652   C     0.19341   0.98333   0.69699   0.00000  Uiso   1.00
C653   C     0.18615   0.06523   0.62602   0.00000  Uiso   1.00
C654   C     0.14024   0.80700   0.78649   0.00000  Uiso   1.00
C655   C     0.15472   0.75552   0.75382   0.00000  Uiso   1.00
C656   C     0.11123   0.72244   0.72513   0.00000  Uiso   1.00
C657   C     0.05641   0.65335   0.67046   0.00000  Uiso   1.00
C658   C     0.07805   0.88258   0.82841   0.00000  Uiso   1.00
C659   C     0.10548   0.87834   0.91015   0.00000  Uiso   1.00
C660   C     0.07976   0.89032   0.98226   0.00000  Uiso   1.00
C661   C     0.11200   0.88384   0.05045   0.00000  Uiso   1.00
C662   C     0.11494   0.92208   0.77985   0.00000  Uiso   1.00
C663   C     0.09718   0.97084   0.74238   0.00000  Uiso   1.00
C664   C     0.13738   0.00119   0.70086   0.00000  Uiso   1.00
C665   C     0.08431   0.82483   0.79035   0.00000  Uiso   1.00
C666   C     0.04079   0.79183   0.76169   0.00000  Uiso   1.00
C667   C     0.05520   0.74030   0.72899   0.00000  Uiso   1.00
H668   H     0.22457   0.83588   0.81829   0.00000  Uiso   1.00
H669   H     0.23697   0.84022   0.97138   0.00000  Uiso   1.00
H670   H     0.25439   0.92072   0.73153   0.00000  Uiso   1.00
H671   H     0.19801   0.74174   0.75084   0.00000  Uiso   1.00
H672   H     0.22606   0.85291   0.14280   0.00000  Uiso   1.00
H673   H     0.26278   0.02265   0.63704   0.00000  Uiso   1.00
H674   H     0.14389   0.64522   0.67777   0.00000  Uiso   1.00
H675   H     0.03451   0.89646   0.83141   0.00000  Uiso   1.00
H676   H     0.03648   0.90412   0.98523   0.00000  Uiso   1.00
H677   H     0.05390   0.98462   0.74537   0.00000  Uiso   1.00
H678   H     0.99751   0.80563   0.76469   0.00000  Uiso   1.00
H679   H     0.06334   0.90477   0.15405   0.00000  Uiso   1.00
H680   H     0.10005   0.07451   0.64828   0.00000  Uiso   1.00
H681   H     0.98116   0.69708   0.68901   0.00000  Uiso   1.00
O682   O     0.14943   0.88281   0.24937   0.00000  Uiso   1.00
O683   O     0.19760   0.10549   0.58582   0.00000  Uiso   1.00
O684   O     0.04162   0.61031   0.63926   0.00000  Uiso   1.00
N685   N     0.18749   0.86405   0.12434   0.00000  Uiso   1.00
N686   N     0.22182   0.02276   0.65150   0.00000  Uiso   1.00
N687   N     0.11067   0.66989   0.68955   0.00000  Uiso   1.00
N688   N     0.09993   0.89196   0.13039   0.00000  Uiso   1.00
N689   N     0.13426   0.05066   0.65755   0.00000  Uiso   1.00
N690   N     0.02311   0.69780   0.69560   0.00000  Uiso   1.00
C691   C     0.68103   0.34976   0.32130   0.00000  Uiso   1.00
C692   C     0.66141   0.36051   0.40630   0.00000  Uiso   1.00
C693   C     0.69369   0.35401   0.47439   0.00000  Uiso   1.00
C694   C     0.66803   0.36599   0.54658   0.00000  Uiso   1.00
C695   C     0.64608   0.37999   0.67797   0.00000  Uiso   1.00
C696   C     0.67087   0.40426   0.27599   0.00000  Uiso   1.00
C697   C     0.71111   0.43453   0.23451   0.00000  Uiso   1.00
C698   C     0.69341   0.48333   0.19699   0.00000  Uiso   1.00
C699   C     0.68615   0.56523   0.12602   0.00000  Uiso   1.00
C700   C     0.64024   0.30700   0.28649   0.00000  Uiso   1.00
C701   C     0.65472   0.25552   0.25382   0.00000  Uiso   1.00
C702   C     0.61123   0.22244   0.22513   0.00000  Uiso   1.00
C703   C     0.55641   0.15335   0.17046   0.00000  Uiso   1.00
C704   C     0.57805   0.38258   0.32841   0.00000  Uiso   1.00
C705   C     0.60548   0.37834   0.41015   0.00000  Uiso   1.00
C706   C     0.57976   0.39032   0.48226   0.00000  Uiso   1.00
C707   C     0.61200   0.38384   0.55045   0.00000  Uiso   1.00
C708   C     0.61494   0.42208   0.27985   0.00000  Uiso   1.00
C709   C     0.59718   0.47084   0.24238   0.00000  Uiso   1.00
C710   C     0.63738   0.50119   0.20086   0.00000  Uiso   1.00
C711   C     0.58431   0.32483   0.29035   0.00000  Uiso   1.00
C712   C     0.54079   0.29183   0.26169   0.00000  Uiso   1.00
C713   C     0.55520   0.24030   0.22899   0.00000  Uiso   1.00
H714   H     0.72457   0.33588   0.31829   0.00000  Uiso   1.00
H715   H     0.73697   0.34022   0.47138   0.00000  Uiso   1.00
H716   H     0.75439   0.42072   0.23153   0.00000  Uiso   1.00
H717   H     0.69801   0.24174   0.25084   0.00000  Uiso   1.00
H718   H     0.72606   0.35291   0.64280   0.00000  Uiso   1.00
H719   H     0.76278   0.52265   0.13704   0.00000  Uiso   1.00
H720   H     0.64389   0.14522   0.17777   0.00000  Uiso   1.00
H721   H     0.53451   0.39646   0.33141   0.00000  Uiso   1.00
H722   H     0.53648   0.40412   0.48523   0.00000  Uiso   1.00
H723   H     0.55390   0.48462   0.24537   0.00000  Uiso   1.00
H724   H     0.49751   0.30563   0.26469   0.00000  Uiso   1.00
H725   H     0.56334   0.40477   0.65405   0.00000  Uiso   1.00
H726   H     0.60005   0.57451   0.14828   0.00000  Uiso   1.00
H727   H     0.48116   0.19708   0.18901   0.00000  Uiso   1.00
O728   O     0.64943   0.38281   0.74937   0.00000  Uiso   1.00
O729   O     0.69760   0.60549   0.08582   0.00000  Uiso   1.00
O730   O     0.54162   0.11031   0.13926   0.00000  Uiso   1.00
N731   N     0.68749   0.36405   0.62434   0.00000  Uiso   1.00
N732   N     0.72182   0.52276   0.15150   0.00000  Uiso   1.00
N733   N     0.61067   0.16989   0.18955   0.00000  Uiso   1.00
N734   N     0.59993   0.39196   0.63039   0.00000  Uiso   1.00
N735   N     0.63426   0.55066   0.15755   0.00000  Uiso   1.00
N736   N     0.52311   0.19780   0.19560   0.00000  Uiso   1.00
