data_job_05555
_audit_creation_date              2018-12-19
_audit_creation_method            'Materials Studio'
_symmetry_space_group_name_H-M    'P1'
_symmetry_Int_Tables_number       1
_symmetry_cell_setting            triclinic
loop_
_symmetry_equiv_pos_as_xyz
  x,y,z
_cell_length_a                    23.3182
_cell_length_b                    23.3182
_cell_length_c                    19.8938
_cell_angle_alpha                 90.0000
_cell_angle_beta                  90.0000
_cell_angle_gamma                 90.0000
loop_
_atom_site_label
_atom_site_type_symbol
_atom_site_fract_x
_atom_site_fract_y
_atom_site_fract_z
_atom_site_U_iso_or_equiv
_atom_site_adp_type
_atom_site_occupancy
C1     C     0.98012   0.68278   0.50046   0.00000  Uiso   1.00
C2     C     0.03667   0.66248   0.47021   0.00000  Uiso   1.00
C3     C     0.08857   0.69146   0.47356   0.00000  Uiso   1.00
C4     C     0.13537   0.66573   0.44269   0.00000  Uiso   1.00
C5     C     0.22394   0.64225   0.40072   0.00000  Uiso   1.00
C6     C     0.93729   0.68445   0.44256   0.00000  Uiso   1.00
C7     C     0.90563   0.73190   0.42267   0.00000  Uiso   1.00
C8     C     0.86876   0.72467   0.36853   0.00000  Uiso   1.00
C9     C     0.80300   0.73528   0.28366   0.00000  Uiso   1.00
C10    C     0.96009   0.63480   0.54695   0.00000  Uiso   1.00
C11    C     0.94758   0.64052   0.61482   0.00000  Uiso   1.00
C12    C     0.92989   0.59149   0.64857   0.00000  Uiso   1.00
C13    C     0.89954   0.52502   0.72577   0.00000  Uiso   1.00
C14    C     0.97093   0.58556   0.43969   0.00000  Uiso   1.00
C15    C     0.03168   0.60967   0.43720   0.00000  Uiso   1.00
C16    C     0.07841   0.58389   0.40632   0.00000  Uiso   1.00
C17    C     0.13037   0.61283   0.40962   0.00000  Uiso   1.00
C18    C     0.93230   0.63164   0.40955   0.00000  Uiso   1.00
C19    C     0.89546   0.62433   0.35543   0.00000  Uiso   1.00
C20    C     0.86376   0.67176   0.33546   0.00000  Uiso   1.00
C21    C     0.95510   0.58199   0.51394   0.00000  Uiso   1.00
C22    C     0.93742   0.53295   0.54758   0.00000  Uiso   1.00
C23    C     0.92489   0.53858   0.61550   0.00000  Uiso   1.00
H24    H     0.98400   0.72390   0.52616   0.00000  Uiso   1.00
H25    H     0.09242   0.73233   0.49911   0.00000  Uiso   1.00
H26    H     0.90950   0.77276   0.44823   0.00000  Uiso   1.00
H27    H     0.95145   0.68139   0.64035   0.00000  Uiso   1.00
H28    H     0.21041   0.71839   0.45454   0.00000  Uiso   1.00
H29    H     0.82470   0.80365   0.34728   0.00000  Uiso   1.00
H30    H     0.91316   0.61097   0.75240   0.00000  Uiso   1.00
H31    H     0.96704   0.54444   0.41399   0.00000  Uiso   1.00
H32    H     0.07453   0.54302   0.38078   0.00000  Uiso   1.00
H33    H     0.89161   0.58346   0.32990   0.00000  Uiso   1.00
H34    H     0.93356   0.49209   0.52202   0.00000  Uiso   1.00
H35    H     0.19589   0.56475   0.35850   0.00000  Uiso   1.00
H36    H     0.81018   0.65000   0.25124   0.00000  Uiso   1.00
H37    H     0.89864   0.45733   0.65636   0.00000  Uiso   1.00
O38    O     0.27417   0.64388   0.38668   0.00000  Uiso   1.00
O39    O     0.76812   0.75573   0.24597   0.00000  Uiso   1.00
O40    O     0.88418   0.50295   0.77748   0.00000  Uiso   1.00
N41    N     0.19225   0.68242   0.43650   0.00000  Uiso   1.00
N42    N     0.83164   0.76213   0.33621   0.00000  Uiso   1.00
N43    N     0.91432   0.58200   0.71497   0.00000  Uiso   1.00
N44    N     0.18443   0.59975   0.38482   0.00000  Uiso   1.00
N45    N     0.82382   0.67946   0.28453   0.00000  Uiso   1.00
N46    N     0.90651   0.49933   0.66329   0.00000  Uiso   1.00
C47    C     0.48012   0.18278   0.00046   0.00000  Uiso   1.00
C48    C     0.53667   0.16248   0.97021   0.00000  Uiso   1.00
C49    C     0.58857   0.19146   0.97356   0.00000  Uiso   1.00
C50    C     0.63537   0.16573   0.94269   0.00000  Uiso   1.00
C51    C     0.72394   0.14225   0.90072   0.00000  Uiso   1.00
C52    C     0.43729   0.18445   0.94256   0.00000  Uiso   1.00
C53    C     0.40563   0.23190   0.92267   0.00000  Uiso   1.00
C54    C     0.36876   0.22467   0.86853   0.00000  Uiso   1.00
C55    C     0.30300   0.23528   0.78366   0.00000  Uiso   1.00
C56    C     0.46009   0.13480   0.04695   0.00000  Uiso   1.00
C57    C     0.44758   0.14052   0.11482   0.00000  Uiso   1.00
C58    C     0.42989   0.09149   0.14857   0.00000  Uiso   1.00
C59    C     0.39954   0.02502   0.22577   0.00000  Uiso   1.00
C60    C     0.47093   0.08556   0.93969   0.00000  Uiso   1.00
C61    C     0.53168   0.10967   0.93720   0.00000  Uiso   1.00
C62    C     0.57841   0.08389   0.90632   0.00000  Uiso   1.00
C63    C     0.63037   0.11283   0.90962   0.00000  Uiso   1.00
C64    C     0.43230   0.13164   0.90955   0.00000  Uiso   1.00
C65    C     0.39546   0.12433   0.85543   0.00000  Uiso   1.00
C66    C     0.36376   0.17176   0.83546   0.00000  Uiso   1.00
C67    C     0.45510   0.08199   0.01394   0.00000  Uiso   1.00
C68    C     0.43742   0.03295   0.04758   0.00000  Uiso   1.00
C69    C     0.42489   0.03858   0.11550   0.00000  Uiso   1.00
H70    H     0.48400   0.22390   0.02616   0.00000  Uiso   1.00
H71    H     0.59242   0.23233   0.99911   0.00000  Uiso   1.00
H72    H     0.40950   0.27276   0.94823   0.00000  Uiso   1.00
H73    H     0.45145   0.18139   0.14035   0.00000  Uiso   1.00
H74    H     0.71041   0.21839   0.95454   0.00000  Uiso   1.00
H75    H     0.32470   0.30365   0.84728   0.00000  Uiso   1.00
H76    H     0.41316   0.11097   0.25240   0.00000  Uiso   1.00
H77    H     0.46704   0.04444   0.91399   0.00000  Uiso   1.00
H78    H     0.57453   0.04302   0.88078   0.00000  Uiso   1.00
H79    H     0.39161   0.08346   0.82990   0.00000  Uiso   1.00
H80    H     0.43356   0.99209   0.02202   0.00000  Uiso   1.00
H81    H     0.69589   0.06475   0.85850   0.00000  Uiso   1.00
H82    H     0.31018   0.15000   0.75124   0.00000  Uiso   1.00
H83    H     0.39864   0.95733   0.15636   0.00000  Uiso   1.00
O84    O     0.77417   0.14388   0.88668   0.00000  Uiso   1.00
O85    O     0.26812   0.25573   0.74597   0.00000  Uiso   1.00
O86    O     0.38418   0.00295   0.27748   0.00000  Uiso   1.00
N87    N     0.69225   0.18242   0.93650   0.00000  Uiso   1.00
N88    N     0.33164   0.26213   0.83621   0.00000  Uiso   1.00
N89    N     0.41432   0.08200   0.21497   0.00000  Uiso   1.00
N90    N     0.68443   0.09975   0.88482   0.00000  Uiso   1.00
N91    N     0.32382   0.17946   0.78453   0.00000  Uiso   1.00
N92    N     0.40651   0.99933   0.16329   0.00000  Uiso   1.00
C93    C     0.51988   0.81722   0.00046   0.00000  Uiso   1.00
C94    C     0.46333   0.83752   0.97021   0.00000  Uiso   1.00
C95    C     0.41143   0.80854   0.97356   0.00000  Uiso   1.00
C96    C     0.36463   0.83427   0.94269   0.00000  Uiso   1.00
C97    C     0.27606   0.85775   0.90072   0.00000  Uiso   1.00
C98    C     0.56271   0.81555   0.94256   0.00000  Uiso   1.00
C99    C     0.59437   0.76810   0.92267   0.00000  Uiso   1.00
C100   C     0.63124   0.77533   0.86853   0.00000  Uiso   1.00
C101   C     0.69700   0.76472   0.78366   0.00000  Uiso   1.00
C102   C     0.53991   0.86520   0.04695   0.00000  Uiso   1.00
C103   C     0.55242   0.85948   0.11482   0.00000  Uiso   1.00
C104   C     0.57011   0.90851   0.14857   0.00000  Uiso   1.00
C105   C     0.60046   0.97498   0.22577   0.00000  Uiso   1.00
C106   C     0.52907   0.91444   0.93969   0.00000  Uiso   1.00
C107   C     0.46832   0.89033   0.93720   0.00000  Uiso   1.00
C108   C     0.42159   0.91611   0.90632   0.00000  Uiso   1.00
C109   C     0.36963   0.88717   0.90962   0.00000  Uiso   1.00
C110   C     0.56770   0.86836   0.90955   0.00000  Uiso   1.00
C111   C     0.60454   0.87567   0.85543   0.00000  Uiso   1.00
C112   C     0.63624   0.82824   0.83546   0.00000  Uiso   1.00
C113   C     0.54490   0.91801   0.01394   0.00000  Uiso   1.00
C114   C     0.56258   0.96705   0.04758   0.00000  Uiso   1.00
C115   C     0.57511   0.96142   0.11550   0.00000  Uiso   1.00
H116   H     0.51600   0.77610   0.02616   0.00000  Uiso   1.00
H117   H     0.40758   0.76767   0.99911   0.00000  Uiso   1.00
H118   H     0.59050   0.72724   0.94823   0.00000  Uiso   1.00
H119   H     0.54855   0.81861   0.14035   0.00000  Uiso   1.00
H120   H     0.28959   0.78161   0.95454   0.00000  Uiso   1.00
H121   H     0.67530   0.69635   0.84728   0.00000  Uiso   1.00
H122   H     0.58684   0.88903   0.25240   0.00000  Uiso   1.00
H123   H     0.53296   0.95556   0.91399   0.00000  Uiso   1.00
H124   H     0.42547   0.95698   0.88078   0.00000  Uiso   1.00
H125   H     0.60839   0.91654   0.82990   0.00000  Uiso   1.00
H126   H     0.56644   0.00791   0.02202   0.00000  Uiso   1.00
H127   H     0.30411   0.93525   0.85850   0.00000  Uiso   1.00
H128   H     0.68982   0.85000   0.75124   0.00000  Uiso   1.00
H129   H     0.60136   0.04267   0.15636   0.00000  Uiso   1.00
O130   O     0.22583   0.85612   0.88668   0.00000  Uiso   1.00
O131   O     0.73188   0.74427   0.74597   0.00000  Uiso   1.00
O132   O     0.61582   0.99705   0.27748   0.00000  Uiso   1.00
N133   N     0.30775   0.81758   0.93650   0.00000  Uiso   1.00
N134   N     0.66836   0.73787   0.83621   0.00000  Uiso   1.00
N135   N     0.58568   0.91800   0.21497   0.00000  Uiso   1.00
N136   N     0.31557   0.90025   0.88482   0.00000  Uiso   1.00
N137   N     0.67618   0.82054   0.78453   0.00000  Uiso   1.00
N138   N     0.59349   0.00067   0.16329   0.00000  Uiso   1.00
C139   C     0.01988   0.31722   0.50046   0.00000  Uiso   1.00
C140   C     0.96333   0.33752   0.47021   0.00000  Uiso   1.00
C141   C     0.91143   0.30854   0.47356   0.00000  Uiso   1.00
C142   C     0.86463   0.33427   0.44269   0.00000  Uiso   1.00
C143   C     0.77606   0.35775   0.40072   0.00000  Uiso   1.00
C144   C     0.06271   0.31555   0.44256   0.00000  Uiso   1.00
C145   C     0.09437   0.26810   0.42267   0.00000  Uiso   1.00
C146   C     0.13124   0.27533   0.36853   0.00000  Uiso   1.00
C147   C     0.19700   0.26472   0.28366   0.00000  Uiso   1.00
C148   C     0.03991   0.36520   0.54695   0.00000  Uiso   1.00
C149   C     0.05242   0.35948   0.61482   0.00000  Uiso   1.00
C150   C     0.07011   0.40851   0.64857   0.00000  Uiso   1.00
C151   C     0.10046   0.47498   0.72577   0.00000  Uiso   1.00
C152   C     0.02907   0.41444   0.43969   0.00000  Uiso   1.00
C153   C     0.96832   0.39033   0.43720   0.00000  Uiso   1.00
C154   C     0.92159   0.41611   0.40632   0.00000  Uiso   1.00
C155   C     0.86963   0.38717   0.40962   0.00000  Uiso   1.00
C156   C     0.06770   0.36836   0.40955   0.00000  Uiso   1.00
C157   C     0.10454   0.37567   0.35543   0.00000  Uiso   1.00
C158   C     0.13624   0.32824   0.33546   0.00000  Uiso   1.00
C159   C     0.04490   0.41801   0.51394   0.00000  Uiso   1.00
C160   C     0.06258   0.46705   0.54758   0.00000  Uiso   1.00
C161   C     0.07511   0.46142   0.61550   0.00000  Uiso   1.00
H162   H     0.01600   0.27610   0.52616   0.00000  Uiso   1.00
H163   H     0.90758   0.26767   0.49911   0.00000  Uiso   1.00
H164   H     0.09050   0.22724   0.44823   0.00000  Uiso   1.00
H165   H     0.04855   0.31861   0.64035   0.00000  Uiso   1.00
H166   H     0.78959   0.28161   0.45454   0.00000  Uiso   1.00
H167   H     0.17530   0.19635   0.34728   0.00000  Uiso   1.00
H168   H     0.08684   0.38903   0.75240   0.00000  Uiso   1.00
H169   H     0.03296   0.45556   0.41399   0.00000  Uiso   1.00
H170   H     0.92547   0.45698   0.38078   0.00000  Uiso   1.00
H171   H     0.10839   0.41654   0.32990   0.00000  Uiso   1.00
H172   H     0.06644   0.50791   0.52202   0.00000  Uiso   1.00
H173   H     0.80411   0.43525   0.35850   0.00000  Uiso   1.00
H174   H     0.18982   0.35000   0.25124   0.00000  Uiso   1.00
H175   H     0.10136   0.54267   0.65636   0.00000  Uiso   1.00
O176   O     0.72583   0.35612   0.38668   0.00000  Uiso   1.00
O177   O     0.23188   0.24427   0.24597   0.00000  Uiso   1.00
O178   O     0.11582   0.49705   0.77748   0.00000  Uiso   1.00
N179   N     0.80775   0.31758   0.43650   0.00000  Uiso   1.00
N180   N     0.16836   0.23787   0.33621   0.00000  Uiso   1.00
N181   N     0.08568   0.41800   0.71497   0.00000  Uiso   1.00
N182   N     0.81557   0.40025   0.38482   0.00000  Uiso   1.00
N183   N     0.17618   0.32054   0.28453   0.00000  Uiso   1.00
N184   N     0.09349   0.50067   0.66329   0.00000  Uiso   1.00
C185   C     0.31722   0.48012   0.75046   0.00000  Uiso   1.00
C186   C     0.33752   0.53667   0.72021   0.00000  Uiso   1.00
C187   C     0.30854   0.58857   0.72356   0.00000  Uiso   1.00
C188   C     0.33427   0.63537   0.69269   0.00000  Uiso   1.00
C189   C     0.35775   0.72394   0.65072   0.00000  Uiso   1.00
C190   C     0.31555   0.43729   0.69256   0.00000  Uiso   1.00
C191   C     0.26810   0.40563   0.67267   0.00000  Uiso   1.00
C192   C     0.27533   0.36876   0.61853   0.00000  Uiso   1.00
C193   C     0.26472   0.30300   0.53366   0.00000  Uiso   1.00
C194   C     0.36520   0.46009   0.79695   0.00000  Uiso   1.00
C195   C     0.35948   0.44758   0.86482   0.00000  Uiso   1.00
C196   C     0.40851   0.42989   0.89857   0.00000  Uiso   1.00
C197   C     0.47498   0.39954   0.97577   0.00000  Uiso   1.00
C198   C     0.41444   0.47093   0.68969   0.00000  Uiso   1.00
C199   C     0.39033   0.53168   0.68720   0.00000  Uiso   1.00
C200   C     0.41611   0.57841   0.65632   0.00000  Uiso   1.00
C201   C     0.38717   0.63037   0.65962   0.00000  Uiso   1.00
C202   C     0.36836   0.43230   0.65955   0.00000  Uiso   1.00
C203   C     0.37567   0.39546   0.60543   0.00000  Uiso   1.00
C204   C     0.32824   0.36376   0.58546   0.00000  Uiso   1.00
C205   C     0.41801   0.45510   0.76394   0.00000  Uiso   1.00
C206   C     0.46705   0.43742   0.79758   0.00000  Uiso   1.00
C207   C     0.46142   0.42489   0.86550   0.00000  Uiso   1.00
H208   H     0.27610   0.48400   0.77616   0.00000  Uiso   1.00
H209   H     0.26767   0.59242   0.74911   0.00000  Uiso   1.00
H210   H     0.22724   0.40950   0.69823   0.00000  Uiso   1.00
H211   H     0.31861   0.45145   0.89035   0.00000  Uiso   1.00
H212   H     0.28161   0.71041   0.70454   0.00000  Uiso   1.00
H213   H     0.19635   0.32470   0.59728   0.00000  Uiso   1.00
H214   H     0.38903   0.41316   0.00240   0.00000  Uiso   1.00
H215   H     0.45556   0.46704   0.66399   0.00000  Uiso   1.00
H216   H     0.45698   0.57453   0.63078   0.00000  Uiso   1.00
H217   H     0.41654   0.39161   0.57990   0.00000  Uiso   1.00
H218   H     0.50791   0.43356   0.77202   0.00000  Uiso   1.00
H219   H     0.43525   0.69589   0.60850   0.00000  Uiso   1.00
H220   H     0.35000   0.31018   0.50124   0.00000  Uiso   1.00
H221   H     0.54267   0.39864   0.90636   0.00000  Uiso   1.00
O222   O     0.35612   0.77417   0.63668   0.00000  Uiso   1.00
O223   O     0.24427   0.26812   0.49597   0.00000  Uiso   1.00
O224   O     0.49705   0.38418   0.02748   0.00000  Uiso   1.00
N225   N     0.31758   0.69225   0.68650   0.00000  Uiso   1.00
N226   N     0.23787   0.33164   0.58621   0.00000  Uiso   1.00
N227   N     0.41800   0.41432   0.96497   0.00000  Uiso   1.00
N228   N     0.40025   0.68443   0.63482   0.00000  Uiso   1.00
N229   N     0.32054   0.32382   0.53453   0.00000  Uiso   1.00
N230   N     0.50067   0.40651   0.91329   0.00000  Uiso   1.00
C231   C     0.81722   0.98012   0.25046   0.00000  Uiso   1.00
C232   C     0.83752   0.03667   0.22021   0.00000  Uiso   1.00
C233   C     0.80854   0.08857   0.22356   0.00000  Uiso   1.00
C234   C     0.83427   0.13537   0.19269   0.00000  Uiso   1.00
C235   C     0.85775   0.22394   0.15072   0.00000  Uiso   1.00
C236   C     0.81555   0.93729   0.19256   0.00000  Uiso   1.00
C237   C     0.76810   0.90563   0.17267   0.00000  Uiso   1.00
C238   C     0.77533   0.86876   0.11853   0.00000  Uiso   1.00
C239   C     0.76472   0.80300   0.03366   0.00000  Uiso   1.00
C240   C     0.86520   0.96009   0.29695   0.00000  Uiso   1.00
C241   C     0.85948   0.94758   0.36482   0.00000  Uiso   1.00
C242   C     0.90851   0.92989   0.39857   0.00000  Uiso   1.00
C243   C     0.97498   0.89954   0.47577   0.00000  Uiso   1.00
C244   C     0.91444   0.97093   0.18969   0.00000  Uiso   1.00
C245   C     0.89033   0.03168   0.18720   0.00000  Uiso   1.00
C246   C     0.91611   0.07841   0.15632   0.00000  Uiso   1.00
C247   C     0.88717   0.13037   0.15962   0.00000  Uiso   1.00
C248   C     0.86836   0.93230   0.15955   0.00000  Uiso   1.00
C249   C     0.87567   0.89546   0.10543   0.00000  Uiso   1.00
C250   C     0.82824   0.86376   0.08546   0.00000  Uiso   1.00
C251   C     0.91801   0.95510   0.26394   0.00000  Uiso   1.00
C252   C     0.96705   0.93742   0.29758   0.00000  Uiso   1.00
C253   C     0.96142   0.92489   0.36550   0.00000  Uiso   1.00
H254   H     0.77610   0.98400   0.27616   0.00000  Uiso   1.00
H255   H     0.76767   0.09242   0.24911   0.00000  Uiso   1.00
H256   H     0.72724   0.90950   0.19823   0.00000  Uiso   1.00
H257   H     0.81861   0.95145   0.39035   0.00000  Uiso   1.00
H258   H     0.78161   0.21041   0.20454   0.00000  Uiso   1.00
H259   H     0.69635   0.82470   0.09728   0.00000  Uiso   1.00
H260   H     0.88903   0.91316   0.50240   0.00000  Uiso   1.00
H261   H     0.95556   0.96704   0.16399   0.00000  Uiso   1.00
H262   H     0.95698   0.07453   0.13078   0.00000  Uiso   1.00
H263   H     0.91654   0.89161   0.07990   0.00000  Uiso   1.00
H264   H     0.00791   0.93356   0.27202   0.00000  Uiso   1.00
H265   H     0.93525   0.19589   0.10850   0.00000  Uiso   1.00
H266   H     0.85000   0.81018   0.00124   0.00000  Uiso   1.00
H267   H     0.04267   0.89864   0.40636   0.00000  Uiso   1.00
O268   O     0.85612   0.27417   0.13668   0.00000  Uiso   1.00
O269   O     0.74427   0.76812   0.99597   0.00000  Uiso   1.00
O270   O     0.99705   0.88418   0.52748   0.00000  Uiso   1.00
N271   N     0.81758   0.19225   0.18650   0.00000  Uiso   1.00
N272   N     0.73787   0.83164   0.08621   0.00000  Uiso   1.00
N273   N     0.91800   0.91432   0.46497   0.00000  Uiso   1.00
N274   N     0.90025   0.18443   0.13482   0.00000  Uiso   1.00
N275   N     0.82054   0.82382   0.03453   0.00000  Uiso   1.00
N276   N     0.00067   0.90651   0.41329   0.00000  Uiso   1.00
C277   C     0.18278   0.01988   0.25046   0.00000  Uiso   1.00
C278   C     0.16248   0.96333   0.22021   0.00000  Uiso   1.00
C279   C     0.19146   0.91143   0.22356   0.00000  Uiso   1.00
C280   C     0.16573   0.86463   0.19269   0.00000  Uiso   1.00
C281   C     0.14225   0.77606   0.15072   0.00000  Uiso   1.00
C282   C     0.18445   0.06271   0.19256   0.00000  Uiso   1.00
C283   C     0.23190   0.09437   0.17267   0.00000  Uiso   1.00
C284   C     0.22467   0.13124   0.11853   0.00000  Uiso   1.00
C285   C     0.23528   0.19700   0.03366   0.00000  Uiso   1.00
C286   C     0.13480   0.03991   0.29695   0.00000  Uiso   1.00
C287   C     0.14052   0.05242   0.36482   0.00000  Uiso   1.00
C288   C     0.09149   0.07011   0.39857   0.00000  Uiso   1.00
C289   C     0.02502   0.10046   0.47577   0.00000  Uiso   1.00
C290   C     0.08556   0.02907   0.18969   0.00000  Uiso   1.00
C291   C     0.10967   0.96832   0.18720   0.00000  Uiso   1.00
C292   C     0.08389   0.92159   0.15632   0.00000  Uiso   1.00
C293   C     0.11283   0.86963   0.15962   0.00000  Uiso   1.00
C294   C     0.13164   0.06770   0.15955   0.00000  Uiso   1.00
C295   C     0.12433   0.10454   0.10543   0.00000  Uiso   1.00
C296   C     0.17176   0.13624   0.08546   0.00000  Uiso   1.00
C297   C     0.08199   0.04490   0.26394   0.00000  Uiso   1.00
C298   C     0.03295   0.06258   0.29758   0.00000  Uiso   1.00
C299   C     0.03858   0.07511   0.36550   0.00000  Uiso   1.00
H300   H     0.22390   0.01600   0.27616   0.00000  Uiso   1.00
H301   H     0.23233   0.90758   0.24911   0.00000  Uiso   1.00
H302   H     0.27276   0.09050   0.19823   0.00000  Uiso   1.00
H303   H     0.18139   0.04855   0.39035   0.00000  Uiso   1.00
H304   H     0.21839   0.78959   0.20454   0.00000  Uiso   1.00
H305   H     0.30365   0.17530   0.09728   0.00000  Uiso   1.00
H306   H     0.11097   0.08684   0.50240   0.00000  Uiso   1.00
H307   H     0.04444   0.03296   0.16399   0.00000  Uiso   1.00
H308   H     0.04302   0.92547   0.13078   0.00000  Uiso   1.00
H309   H     0.08346   0.10839   0.07990   0.00000  Uiso   1.00
H310   H     0.99209   0.06644   0.27202   0.00000  Uiso   1.00
H311   H     0.06475   0.80411   0.10850   0.00000  Uiso   1.00
H312   H     0.15000   0.18982   0.00124   0.00000  Uiso   1.00
H313   H     0.95733   0.10136   0.40636   0.00000  Uiso   1.00
O314   O     0.14388   0.72583   0.13668   0.00000  Uiso   1.00
O315   O     0.25573   0.23188   0.99597   0.00000  Uiso   1.00
O316   O     0.00295   0.11582   0.52748   0.00000  Uiso   1.00
N317   N     0.18242   0.80775   0.18650   0.00000  Uiso   1.00
N318   N     0.26213   0.16836   0.08621   0.00000  Uiso   1.00
N319   N     0.08200   0.08568   0.46497   0.00000  Uiso   1.00
N320   N     0.09975   0.81557   0.13482   0.00000  Uiso   1.00
N321   N     0.17946   0.17618   0.03453   0.00000  Uiso   1.00
N322   N     0.99933   0.09349   0.41329   0.00000  Uiso   1.00
C323   C     0.68278   0.51988   0.75046   0.00000  Uiso   1.00
C324   C     0.66248   0.46333   0.72021   0.00000  Uiso   1.00
C325   C     0.69146   0.41143   0.72356   0.00000  Uiso   1.00
C326   C     0.66573   0.36463   0.69269   0.00000  Uiso   1.00
C327   C     0.64225   0.27606   0.65072   0.00000  Uiso   1.00
C328   C     0.68445   0.56271   0.69256   0.00000  Uiso   1.00
C329   C     0.73190   0.59437   0.67267   0.00000  Uiso   1.00
C330   C     0.72467   0.63124   0.61853   0.00000  Uiso   1.00
C331   C     0.73528   0.69700   0.53366   0.00000  Uiso   1.00
C332   C     0.63480   0.53991   0.79695   0.00000  Uiso   1.00
C333   C     0.64052   0.55242   0.86482   0.00000  Uiso   1.00
C334   C     0.59149   0.57011   0.89857   0.00000  Uiso   1.00
C335   C     0.52502   0.60046   0.97577   0.00000  Uiso   1.00
C336   C     0.58556   0.52907   0.68969   0.00000  Uiso   1.00
C337   C     0.60967   0.46832   0.68720   0.00000  Uiso   1.00
C338   C     0.58389   0.42159   0.65632   0.00000  Uiso   1.00
C339   C     0.61283   0.36963   0.65962   0.00000  Uiso   1.00
C340   C     0.63164   0.56770   0.65955   0.00000  Uiso   1.00
C341   C     0.62433   0.60454   0.60543   0.00000  Uiso   1.00
C342   C     0.67176   0.63624   0.58546   0.00000  Uiso   1.00
C343   C     0.58199   0.54490   0.76394   0.00000  Uiso   1.00
C344   C     0.53295   0.56258   0.79758   0.00000  Uiso   1.00
C345   C     0.53858   0.57511   0.86550   0.00000  Uiso   1.00
H346   H     0.72390   0.51600   0.77616   0.00000  Uiso   1.00
H347   H     0.73233   0.40758   0.74911   0.00000  Uiso   1.00
H348   H     0.77276   0.59050   0.69823   0.00000  Uiso   1.00
H349   H     0.68139   0.54855   0.89035   0.00000  Uiso   1.00
H350   H     0.71839   0.28959   0.70454   0.00000  Uiso   1.00
H351   H     0.80365   0.67530   0.59728   0.00000  Uiso   1.00
H352   H     0.61097   0.58684   0.00240   0.00000  Uiso   1.00
H353   H     0.54444   0.53296   0.66399   0.00000  Uiso   1.00
H354   H     0.54302   0.42547   0.63078   0.00000  Uiso   1.00
H355   H     0.58346   0.60839   0.57990   0.00000  Uiso   1.00
H356   H     0.49209   0.56644   0.77202   0.00000  Uiso   1.00
H357   H     0.56475   0.30411   0.60850   0.00000  Uiso   1.00
H358   H     0.65000   0.68982   0.50124   0.00000  Uiso   1.00
H359   H     0.45733   0.60136   0.90636   0.00000  Uiso   1.00
O360   O     0.64388   0.22583   0.63668   0.00000  Uiso   1.00
O361   O     0.75573   0.73188   0.49597   0.00000  Uiso   1.00
O362   O     0.50295   0.61582   0.02748   0.00000  Uiso   1.00
N363   N     0.68242   0.30775   0.68650   0.00000  Uiso   1.00
N364   N     0.76213   0.66836   0.58621   0.00000  Uiso   1.00
N365   N     0.58200   0.58568   0.96497   0.00000  Uiso   1.00
N366   N     0.59975   0.31557   0.63482   0.00000  Uiso   1.00
N367   N     0.67946   0.67618   0.53453   0.00000  Uiso   1.00
N368   N     0.49933   0.59349   0.91329   0.00000  Uiso   1.00
C369   C     0.98012   0.31722   0.00046   0.00000  Uiso   1.00
C370   C     0.03667   0.33752   0.97021   0.00000  Uiso   1.00
C371   C     0.08857   0.30854   0.97356   0.00000  Uiso   1.00
C372   C     0.13537   0.33427   0.94269   0.00000  Uiso   1.00
C373   C     0.22394   0.35775   0.90072   0.00000  Uiso   1.00
C374   C     0.93729   0.31555   0.94256   0.00000  Uiso   1.00
C375   C     0.90563   0.26810   0.92267   0.00000  Uiso   1.00
C376   C     0.86876   0.27533   0.86853   0.00000  Uiso   1.00
C377   C     0.80300   0.26472   0.78366   0.00000  Uiso   1.00
C378   C     0.96009   0.36520   0.04695   0.00000  Uiso   1.00
C379   C     0.94758   0.35948   0.11482   0.00000  Uiso   1.00
C380   C     0.92989   0.40851   0.14857   0.00000  Uiso   1.00
C381   C     0.89954   0.47498   0.22577   0.00000  Uiso   1.00
C382   C     0.97093   0.41444   0.93969   0.00000  Uiso   1.00
C383   C     0.03168   0.39033   0.93720   0.00000  Uiso   1.00
C384   C     0.07841   0.41611   0.90632   0.00000  Uiso   1.00
C385   C     0.13037   0.38717   0.90962   0.00000  Uiso   1.00
C386   C     0.93230   0.36836   0.90955   0.00000  Uiso   1.00
C387   C     0.89546   0.37567   0.85543   0.00000  Uiso   1.00
C388   C     0.86376   0.32824   0.83546   0.00000  Uiso   1.00
C389   C     0.95510   0.41801   0.01394   0.00000  Uiso   1.00
C390   C     0.93742   0.46705   0.04758   0.00000  Uiso   1.00
C391   C     0.92489   0.46142   0.11550   0.00000  Uiso   1.00
H392   H     0.98400   0.27610   0.02616   0.00000  Uiso   1.00
H393   H     0.09242   0.26767   0.99911   0.00000  Uiso   1.00
H394   H     0.90950   0.22724   0.94823   0.00000  Uiso   1.00
H395   H     0.95145   0.31861   0.14035   0.00000  Uiso   1.00
H396   H     0.21041   0.28161   0.95454   0.00000  Uiso   1.00
H397   H     0.82470   0.19635   0.84728   0.00000  Uiso   1.00
H398   H     0.91316   0.38903   0.25240   0.00000  Uiso   1.00
H399   H     0.96704   0.45556   0.91399   0.00000  Uiso   1.00
H400   H     0.07453   0.45698   0.88078   0.00000  Uiso   1.00
H401   H     0.89161   0.41654   0.82990   0.00000  Uiso   1.00
H402   H     0.93356   0.50791   0.02202   0.00000  Uiso   1.00
H403   H     0.19589   0.43525   0.85850   0.00000  Uiso   1.00
H404   H     0.81018   0.35000   0.75124   0.00000  Uiso   1.00
H405   H     0.89864   0.54267   0.15636   0.00000  Uiso   1.00
O406   O     0.27417   0.35612   0.88668   0.00000  Uiso   1.00
O407   O     0.76812   0.24427   0.74597   0.00000  Uiso   1.00
O408   O     0.88418   0.49705   0.27748   0.00000  Uiso   1.00
N409   N     0.19225   0.31758   0.93650   0.00000  Uiso   1.00
N410   N     0.83164   0.23787   0.83621   0.00000  Uiso   1.00
N411   N     0.91432   0.41800   0.21497   0.00000  Uiso   1.00
N412   N     0.18443   0.40025   0.88482   0.00000  Uiso   1.00
N413   N     0.82382   0.32054   0.78453   0.00000  Uiso   1.00
N414   N     0.90651   0.50067   0.16329   0.00000  Uiso   1.00
C415   C     0.48012   0.81722   0.50046   0.00000  Uiso   1.00
C416   C     0.53667   0.83752   0.47021   0.00000  Uiso   1.00
C417   C     0.58857   0.80854   0.47356   0.00000  Uiso   1.00
C418   C     0.63537   0.83427   0.44269   0.00000  Uiso   1.00
C419   C     0.72394   0.85775   0.40072   0.00000  Uiso   1.00
C420   C     0.43729   0.81555   0.44256   0.00000  Uiso   1.00
C421   C     0.40563   0.76810   0.42267   0.00000  Uiso   1.00
C422   C     0.36876   0.77533   0.36853   0.00000  Uiso   1.00
C423   C     0.30300   0.76472   0.28366   0.00000  Uiso   1.00
C424   C     0.46009   0.86520   0.54695   0.00000  Uiso   1.00
C425   C     0.44758   0.85948   0.61482   0.00000  Uiso   1.00
C426   C     0.42989   0.90851   0.64857   0.00000  Uiso   1.00
C427   C     0.39954   0.97498   0.72577   0.00000  Uiso   1.00
C428   C     0.47093   0.91444   0.43969   0.00000  Uiso   1.00
C429   C     0.53168   0.89033   0.43720   0.00000  Uiso   1.00
C430   C     0.57841   0.91611   0.40632   0.00000  Uiso   1.00
C431   C     0.63037   0.88717   0.40962   0.00000  Uiso   1.00
C432   C     0.43230   0.86836   0.40955   0.00000  Uiso   1.00
C433   C     0.39546   0.87567   0.35543   0.00000  Uiso   1.00
C434   C     0.36376   0.82824   0.33546   0.00000  Uiso   1.00
C435   C     0.45510   0.91801   0.51394   0.00000  Uiso   1.00
C436   C     0.43742   0.96705   0.54758   0.00000  Uiso   1.00
C437   C     0.42489   0.96142   0.61550   0.00000  Uiso   1.00
H438   H     0.48400   0.77610   0.52616   0.00000  Uiso   1.00
H439   H     0.59242   0.76767   0.49911   0.00000  Uiso   1.00
H440   H     0.40950   0.72724   0.44823   0.00000  Uiso   1.00
H441   H     0.45145   0.81861   0.64035   0.00000  Uiso   1.00
H442   H     0.71041   0.78161   0.45454   0.00000  Uiso   1.00
H443   H     0.32470   0.69635   0.34728   0.00000  Uiso   1.00
H444   H     0.41316   0.88903   0.75240   0.00000  Uiso   1.00
H445   H     0.46704   0.95556   0.41399   0.00000  Uiso   1.00
H446   H     0.57453   0.95698   0.38078   0.00000  Uiso   1.00
H447   H     0.39161   0.91654   0.32990   0.00000  Uiso   1.00
H448   H     0.43356   0.00791   0.52202   0.00000  Uiso   1.00
H449   H     0.69589   0.93525   0.35850   0.00000  Uiso   1.00
H450   H     0.31018   0.85000   0.25124   0.00000  Uiso   1.00
H451   H     0.39864   0.04267   0.65636   0.00000  Uiso   1.00
O452   O     0.77417   0.85612   0.38668   0.00000  Uiso   1.00
O453   O     0.26812   0.74427   0.24597   0.00000  Uiso   1.00
O454   O     0.38418   0.99705   0.77748   0.00000  Uiso   1.00
N455   N     0.69225   0.81758   0.43650   0.00000  Uiso   1.00
N456   N     0.33164   0.73787   0.33621   0.00000  Uiso   1.00
N457   N     0.41432   0.91800   0.71497   0.00000  Uiso   1.00
N458   N     0.68443   0.90025   0.38482   0.00000  Uiso   1.00
N459   N     0.32382   0.82054   0.28453   0.00000  Uiso   1.00
N460   N     0.40651   0.00067   0.66329   0.00000  Uiso   1.00
C461   C     0.51988   0.18278   0.50046   0.00000  Uiso   1.00
C462   C     0.46333   0.16248   0.47021   0.00000  Uiso   1.00
C463   C     0.41143   0.19146   0.47356   0.00000  Uiso   1.00
C464   C     0.36463   0.16573   0.44269   0.00000  Uiso   1.00
C465   C     0.27606   0.14225   0.40072   0.00000  Uiso   1.00
C466   C     0.56271   0.18445   0.44256   0.00000  Uiso   1.00
C467   C     0.59437   0.23190   0.42267   0.00000  Uiso   1.00
C468   C     0.63124   0.22467   0.36853   0.00000  Uiso   1.00
C469   C     0.69700   0.23528   0.28366   0.00000  Uiso   1.00
C470   C     0.53991   0.13480   0.54695   0.00000  Uiso   1.00
C471   C     0.55242   0.14052   0.61482   0.00000  Uiso   1.00
C472   C     0.57011   0.09149   0.64857   0.00000  Uiso   1.00
C473   C     0.60046   0.02502   0.72577   0.00000  Uiso   1.00
C474   C     0.52907   0.08556   0.43969   0.00000  Uiso   1.00
C475   C     0.46832   0.10967   0.43720   0.00000  Uiso   1.00
C476   C     0.42159   0.08389   0.40632   0.00000  Uiso   1.00
C477   C     0.36963   0.11283   0.40962   0.00000  Uiso   1.00
C478   C     0.56770   0.13164   0.40955   0.00000  Uiso   1.00
C479   C     0.60454   0.12433   0.35543   0.00000  Uiso   1.00
C480   C     0.63624   0.17176   0.33546   0.00000  Uiso   1.00
C481   C     0.54490   0.08199   0.51394   0.00000  Uiso   1.00
C482   C     0.56258   0.03295   0.54758   0.00000  Uiso   1.00
C483   C     0.57511   0.03858   0.61550   0.00000  Uiso   1.00
H484   H     0.51600   0.22390   0.52616   0.00000  Uiso   1.00
H485   H     0.40758   0.23233   0.49911   0.00000  Uiso   1.00
H486   H     0.59050   0.27276   0.44823   0.00000  Uiso   1.00
H487   H     0.54855   0.18139   0.64035   0.00000  Uiso   1.00
H488   H     0.28959   0.21839   0.45454   0.00000  Uiso   1.00
H489   H     0.67530   0.30365   0.34728   0.00000  Uiso   1.00
H490   H     0.58684   0.11097   0.75240   0.00000  Uiso   1.00
H491   H     0.53296   0.04444   0.41399   0.00000  Uiso   1.00
H492   H     0.42547   0.04302   0.38078   0.00000  Uiso   1.00
H493   H     0.60839   0.08346   0.32990   0.00000  Uiso   1.00
H494   H     0.56644   0.99209   0.52202   0.00000  Uiso   1.00
H495   H     0.30411   0.06475   0.35850   0.00000  Uiso   1.00
H496   H     0.68982   0.15000   0.25124   0.00000  Uiso   1.00
H497   H     0.60136   0.95733   0.65636   0.00000  Uiso   1.00
O498   O     0.22583   0.14388   0.38668   0.00000  Uiso   1.00
O499   O     0.73188   0.25573   0.24597   0.00000  Uiso   1.00
O500   O     0.61582   0.00295   0.77748   0.00000  Uiso   1.00
N501   N     0.30775   0.18242   0.43650   0.00000  Uiso   1.00
N502   N     0.66836   0.26213   0.33621   0.00000  Uiso   1.00
N503   N     0.58568   0.08200   0.71497   0.00000  Uiso   1.00
N504   N     0.31557   0.09975   0.38482   0.00000  Uiso   1.00
N505   N     0.67618   0.17946   0.28453   0.00000  Uiso   1.00
N506   N     0.59349   0.99933   0.66329   0.00000  Uiso   1.00
C507   C     0.01988   0.68278   0.00046   0.00000  Uiso   1.00
C508   C     0.96333   0.66248   0.97021   0.00000  Uiso   1.00
C509   C     0.91143   0.69146   0.97356   0.00000  Uiso   1.00
C510   C     0.86463   0.66573   0.94269   0.00000  Uiso   1.00
C511   C     0.77606   0.64225   0.90072   0.00000  Uiso   1.00
C512   C     0.06271   0.68445   0.94256   0.00000  Uiso   1.00
C513   C     0.09437   0.73190   0.92267   0.00000  Uiso   1.00
C514   C     0.13124   0.72467   0.86853   0.00000  Uiso   1.00
C515   C     0.19700   0.73528   0.78366   0.00000  Uiso   1.00
C516   C     0.03991   0.63480   0.04695   0.00000  Uiso   1.00
C517   C     0.05242   0.64052   0.11482   0.00000  Uiso   1.00
C518   C     0.07011   0.59149   0.14857   0.00000  Uiso   1.00
C519   C     0.10046   0.52502   0.22577   0.00000  Uiso   1.00
C520   C     0.02907   0.58556   0.93969   0.00000  Uiso   1.00
C521   C     0.96832   0.60967   0.93720   0.00000  Uiso   1.00
C522   C     0.92159   0.58389   0.90632   0.00000  Uiso   1.00
C523   C     0.86963   0.61283   0.90962   0.00000  Uiso   1.00
C524   C     0.06770   0.63164   0.90955   0.00000  Uiso   1.00
C525   C     0.10454   0.62433   0.85543   0.00000  Uiso   1.00
C526   C     0.13624   0.67176   0.83546   0.00000  Uiso   1.00
C527   C     0.04490   0.58199   0.01394   0.00000  Uiso   1.00
C528   C     0.06258   0.53295   0.04758   0.00000  Uiso   1.00
C529   C     0.07511   0.53858   0.11550   0.00000  Uiso   1.00
H530   H     0.01600   0.72390   0.02616   0.00000  Uiso   1.00
H531   H     0.90758   0.73233   0.99911   0.00000  Uiso   1.00
H532   H     0.09050   0.77276   0.94823   0.00000  Uiso   1.00
H533   H     0.04855   0.68139   0.14035   0.00000  Uiso   1.00
H534   H     0.78959   0.71839   0.95454   0.00000  Uiso   1.00
H535   H     0.17530   0.80365   0.84728   0.00000  Uiso   1.00
H536   H     0.08684   0.61097   0.25240   0.00000  Uiso   1.00
H537   H     0.03296   0.54444   0.91399   0.00000  Uiso   1.00
H538   H     0.92547   0.54302   0.88078   0.00000  Uiso   1.00
H539   H     0.10839   0.58346   0.82990   0.00000  Uiso   1.00
H540   H     0.06644   0.49209   0.02202   0.00000  Uiso   1.00
H541   H     0.80411   0.56475   0.85850   0.00000  Uiso   1.00
H542   H     0.18982   0.65000   0.75124   0.00000  Uiso   1.00
H543   H     0.10136   0.45733   0.15636   0.00000  Uiso   1.00
O544   O     0.72583   0.64388   0.88668   0.00000  Uiso   1.00
O545   O     0.23188   0.75573   0.74597   0.00000  Uiso   1.00
O546   O     0.11582   0.50295   0.27748   0.00000  Uiso   1.00
N547   N     0.80775   0.68242   0.93650   0.00000  Uiso   1.00
N548   N     0.16836   0.76213   0.83621   0.00000  Uiso   1.00
N549   N     0.08568   0.58200   0.21497   0.00000  Uiso   1.00
N550   N     0.81557   0.59975   0.88482   0.00000  Uiso   1.00
N551   N     0.17618   0.67946   0.78453   0.00000  Uiso   1.00
N552   N     0.09349   0.49933   0.16329   0.00000  Uiso   1.00
C553   C     0.31722   0.51988   0.25046   0.00000  Uiso   1.00
C554   C     0.33752   0.46333   0.22021   0.00000  Uiso   1.00
C555   C     0.30854   0.41143   0.22356   0.00000  Uiso   1.00
C556   C     0.33427   0.36463   0.19269   0.00000  Uiso   1.00
C557   C     0.35775   0.27606   0.15072   0.00000  Uiso   1.00
C558   C     0.31555   0.56271   0.19256   0.00000  Uiso   1.00
C559   C     0.26810   0.59437   0.17267   0.00000  Uiso   1.00
C560   C     0.27533   0.63124   0.11853   0.00000  Uiso   1.00
C561   C     0.26472   0.69700   0.03366   0.00000  Uiso   1.00
C562   C     0.36520   0.53991   0.29695   0.00000  Uiso   1.00
C563   C     0.35948   0.55242   0.36482   0.00000  Uiso   1.00
C564   C     0.40851   0.57011   0.39857   0.00000  Uiso   1.00
C565   C     0.47498   0.60046   0.47577   0.00000  Uiso   1.00
C566   C     0.41444   0.52907   0.18969   0.00000  Uiso   1.00
C567   C     0.39033   0.46832   0.18720   0.00000  Uiso   1.00
C568   C     0.41611   0.42159   0.15632   0.00000  Uiso   1.00
C569   C     0.38717   0.36963   0.15962   0.00000  Uiso   1.00
C570   C     0.36836   0.56770   0.15955   0.00000  Uiso   1.00
C571   C     0.37567   0.60454   0.10543   0.00000  Uiso   1.00
C572   C     0.32824   0.63624   0.08546   0.00000  Uiso   1.00
C573   C     0.41801   0.54490   0.26394   0.00000  Uiso   1.00
C574   C     0.46705   0.56258   0.29758   0.00000  Uiso   1.00
C575   C     0.46142   0.57511   0.36550   0.00000  Uiso   1.00
H576   H     0.27610   0.51600   0.27616   0.00000  Uiso   1.00
H577   H     0.26767   0.40758   0.24911   0.00000  Uiso   1.00
H578   H     0.22724   0.59050   0.19823   0.00000  Uiso   1.00
H579   H     0.31861   0.54855   0.39035   0.00000  Uiso   1.00
H580   H     0.28161   0.28959   0.20454   0.00000  Uiso   1.00
H581   H     0.19635   0.67530   0.09728   0.00000  Uiso   1.00
H582   H     0.38903   0.58684   0.50240   0.00000  Uiso   1.00
H583   H     0.45556   0.53296   0.16399   0.00000  Uiso   1.00
H584   H     0.45698   0.42547   0.13078   0.00000  Uiso   1.00
H585   H     0.41654   0.60839   0.07990   0.00000  Uiso   1.00
H586   H     0.50791   0.56644   0.27202   0.00000  Uiso   1.00
H587   H     0.43525   0.30411   0.10850   0.00000  Uiso   1.00
H588   H     0.35000   0.68982   0.00124   0.00000  Uiso   1.00
H589   H     0.54267   0.60136   0.40636   0.00000  Uiso   1.00
O590   O     0.35612   0.22583   0.13668   0.00000  Uiso   1.00
O591   O     0.24427   0.73188   0.99597   0.00000  Uiso   1.00
O592   O     0.49705   0.61582   0.52748   0.00000  Uiso   1.00
N593   N     0.31758   0.30775   0.18650   0.00000  Uiso   1.00
N594   N     0.23787   0.66836   0.08621   0.00000  Uiso   1.00
N595   N     0.41800   0.58568   0.46497   0.00000  Uiso   1.00
N596   N     0.40025   0.31557   0.13482   0.00000  Uiso   1.00
N597   N     0.32054   0.67618   0.03453   0.00000  Uiso   1.00
N598   N     0.50067   0.59349   0.41329   0.00000  Uiso   1.00
C599   C     0.81722   0.01988   0.75046   0.00000  Uiso   1.00
C600   C     0.83752   0.96333   0.72021   0.00000  Uiso   1.00
C601   C     0.80854   0.91143   0.72356   0.00000  Uiso   1.00
C602   C     0.83427   0.86463   0.69269   0.00000  Uiso   1.00
C603   C     0.85775   0.77606   0.65072   0.00000  Uiso   1.00
C604   C     0.81555   0.06271   0.69256   0.00000  Uiso   1.00
C605   C     0.76810   0.09437   0.67267   0.00000  Uiso   1.00
C606   C     0.77533   0.13124   0.61853   0.00000  Uiso   1.00
C607   C     0.76472   0.19700   0.53366   0.00000  Uiso   1.00
C608   C     0.86520   0.03991   0.79695   0.00000  Uiso   1.00
C609   C     0.85948   0.05242   0.86482   0.00000  Uiso   1.00
C610   C     0.90851   0.07011   0.89857   0.00000  Uiso   1.00
C611   C     0.97498   0.10046   0.97577   0.00000  Uiso   1.00
C612   C     0.91444   0.02907   0.68969   0.00000  Uiso   1.00
C613   C     0.89033   0.96832   0.68720   0.00000  Uiso   1.00
C614   C     0.91611   0.92159   0.65632   0.00000  Uiso   1.00
C615   C     0.88717   0.86963   0.65962   0.00000  Uiso   1.00
C616   C     0.86836   0.06770   0.65955   0.00000  Uiso   1.00
C617   C     0.87567   0.10454   0.60543   0.00000  Uiso   1.00
C618   C     0.82824   0.13624   0.58546   0.00000  Uiso   1.00
C619   C     0.91801   0.04490   0.76394   0.00000  Uiso   1.00
C620   C     0.96705   0.06258   0.79758   0.00000  Uiso   1.00
C621   C     0.96142   0.07511   0.86550   0.00000  Uiso   1.00
H622   H     0.77610   0.01600   0.77616   0.00000  Uiso   1.00
H623   H     0.76767   0.90758   0.74911   0.00000  Uiso   1.00
H624   H     0.72724   0.09050   0.69823   0.00000  Uiso   1.00
H625   H     0.81861   0.04855   0.89035   0.00000  Uiso   1.00
H626   H     0.78161   0.78959   0.70454   0.00000  Uiso   1.00
H627   H     0.69635   0.17530   0.59728   0.00000  Uiso   1.00
H628   H     0.88903   0.08684   0.00240   0.00000  Uiso   1.00
H629   H     0.95556   0.03296   0.66399   0.00000  Uiso   1.00
H630   H     0.95698   0.92547   0.63078   0.00000  Uiso   1.00
H631   H     0.91654   0.10839   0.57990   0.00000  Uiso   1.00
H632   H     0.00791   0.06644   0.77202   0.00000  Uiso   1.00
H633   H     0.93525   0.80411   0.60850   0.00000  Uiso   1.00
H634   H     0.85000   0.18982   0.50124   0.00000  Uiso   1.00
H635   H     0.04267   0.10136   0.90636   0.00000  Uiso   1.00
O636   O     0.85612   0.72583   0.63668   0.00000  Uiso   1.00
O637   O     0.74427   0.23188   0.49597   0.00000  Uiso   1.00
O638   O     0.99705   0.11582   0.02748   0.00000  Uiso   1.00
N639   N     0.81758   0.80775   0.68650   0.00000  Uiso   1.00
N640   N     0.73787   0.16836   0.58621   0.00000  Uiso   1.00
N641   N     0.91800   0.08568   0.96497   0.00000  Uiso   1.00
N642   N     0.90025   0.81557   0.63482   0.00000  Uiso   1.00
N643   N     0.82054   0.17618   0.53453   0.00000  Uiso   1.00
N644   N     0.00067   0.09349   0.91329   0.00000  Uiso   1.00
C645   C     0.18278   0.98012   0.75046   0.00000  Uiso   1.00
C646   C     0.16248   0.03667   0.72021   0.00000  Uiso   1.00
C647   C     0.19146   0.08857   0.72356   0.00000  Uiso   1.00
C648   C     0.16573   0.13537   0.69269   0.00000  Uiso   1.00
C649   C     0.14225   0.22394   0.65072   0.00000  Uiso   1.00
C650   C     0.18445   0.93729   0.69256   0.00000  Uiso   1.00
C651   C     0.23190   0.90563   0.67267   0.00000  Uiso   1.00
C652   C     0.22467   0.86876   0.61853   0.00000  Uiso   1.00
C653   C     0.23528   0.80300   0.53366   0.00000  Uiso   1.00
C654   C     0.13480   0.96009   0.79695   0.00000  Uiso   1.00
C655   C     0.14052   0.94758   0.86482   0.00000  Uiso   1.00
C656   C     0.09149   0.92989   0.89857   0.00000  Uiso   1.00
C657   C     0.02502   0.89954   0.97577   0.00000  Uiso   1.00
C658   C     0.08556   0.97093   0.68969   0.00000  Uiso   1.00
C659   C     0.10967   0.03168   0.68720   0.00000  Uiso   1.00
C660   C     0.08389   0.07841   0.65632   0.00000  Uiso   1.00
C661   C     0.11283   0.13037   0.65962   0.00000  Uiso   1.00
C662   C     0.13164   0.93230   0.65955   0.00000  Uiso   1.00
C663   C     0.12433   0.89546   0.60543   0.00000  Uiso   1.00
C664   C     0.17176   0.86376   0.58546   0.00000  Uiso   1.00
C665   C     0.08199   0.95510   0.76394   0.00000  Uiso   1.00
C666   C     0.03295   0.93742   0.79758   0.00000  Uiso   1.00
C667   C     0.03858   0.92489   0.86550   0.00000  Uiso   1.00
H668   H     0.22390   0.98400   0.77616   0.00000  Uiso   1.00
H669   H     0.23233   0.09242   0.74911   0.00000  Uiso   1.00
H670   H     0.27276   0.90950   0.69823   0.00000  Uiso   1.00
H671   H     0.18139   0.95145   0.89035   0.00000  Uiso   1.00
H672   H     0.21839   0.21041   0.70454   0.00000  Uiso   1.00
H673   H     0.30365   0.82470   0.59728   0.00000  Uiso   1.00
H674   H     0.11097   0.91316   0.00240   0.00000  Uiso   1.00
H675   H     0.04444   0.96704   0.66399   0.00000  Uiso   1.00
H676   H     0.04302   0.07453   0.63078   0.00000  Uiso   1.00
H677   H     0.08346   0.89161   0.57990   0.00000  Uiso   1.00
H678   H     0.99209   0.93356   0.77202   0.00000  Uiso   1.00
H679   H     0.06475   0.19589   0.60850   0.00000  Uiso   1.00
H680   H     0.15000   0.81018   0.50124   0.00000  Uiso   1.00
H681   H     0.95733   0.89864   0.90636   0.00000  Uiso   1.00
O682   O     0.14388   0.27417   0.63668   0.00000  Uiso   1.00
O683   O     0.25573   0.76812   0.49597   0.00000  Uiso   1.00
O684   O     0.00295   0.88418   0.02748   0.00000  Uiso   1.00
N685   N     0.18242   0.19225   0.68650   0.00000  Uiso   1.00
N686   N     0.26213   0.83164   0.58621   0.00000  Uiso   1.00
N687   N     0.08200   0.91432   0.96497   0.00000  Uiso   1.00
N688   N     0.09975   0.18443   0.63482   0.00000  Uiso   1.00
N689   N     0.17946   0.82382   0.53453   0.00000  Uiso   1.00
N690   N     0.99933   0.90651   0.91329   0.00000  Uiso   1.00
C691   C     0.68278   0.48012   0.25046   0.00000  Uiso   1.00
C692   C     0.66248   0.53667   0.22021   0.00000  Uiso   1.00
C693   C     0.69146   0.58857   0.22356   0.00000  Uiso   1.00
C694   C     0.66573   0.63537   0.19269   0.00000  Uiso   1.00
C695   C     0.64225   0.72394   0.15072   0.00000  Uiso   1.00
C696   C     0.68445   0.43729   0.19256   0.00000  Uiso   1.00
C697   C     0.73190   0.40563   0.17267   0.00000  Uiso   1.00
C698   C     0.72467   0.36876   0.11853   0.00000  Uiso   1.00
C699   C     0.73528   0.30300   0.03366   0.00000  Uiso   1.00
C700   C     0.63480   0.46009   0.29695   0.00000  Uiso   1.00
C701   C     0.64052   0.44758   0.36482   0.00000  Uiso   1.00
C702   C     0.59149   0.42989   0.39857   0.00000  Uiso   1.00
C703   C     0.52502   0.39954   0.47577   0.00000  Uiso   1.00
C704   C     0.58556   0.47093   0.18969   0.00000  Uiso   1.00
C705   C     0.60967   0.53168   0.18720   0.00000  Uiso   1.00
C706   C     0.58389   0.57841   0.15632   0.00000  Uiso   1.00
C707   C     0.61283   0.63037   0.15962   0.00000  Uiso   1.00
C708   C     0.63164   0.43230   0.15955   0.00000  Uiso   1.00
C709   C     0.62433   0.39546   0.10543   0.00000  Uiso   1.00
C710   C     0.67176   0.36376   0.08546   0.00000  Uiso   1.00
C711   C     0.58199   0.45510   0.26394   0.00000  Uiso   1.00
C712   C     0.53295   0.43742   0.29758   0.00000  Uiso   1.00
C713   C     0.53858   0.42489   0.36550   0.00000  Uiso   1.00
H714   H     0.72390   0.48400   0.27616   0.00000  Uiso   1.00
H715   H     0.73233   0.59242   0.24911   0.00000  Uiso   1.00
H716   H     0.77276   0.40950   0.19823   0.00000  Uiso   1.00
H717   H     0.68139   0.45145   0.39035   0.00000  Uiso   1.00
H718   H     0.71839   0.71041   0.20454   0.00000  Uiso   1.00
H719   H     0.80365   0.32470   0.09728   0.00000  Uiso   1.00
H720   H     0.61097   0.41316   0.50240   0.00000  Uiso   1.00
H721   H     0.54444   0.46704   0.16399   0.00000  Uiso   1.00
H722   H     0.54302   0.57453   0.13078   0.00000  Uiso   1.00
H723   H     0.58346   0.39161   0.07990   0.00000  Uiso   1.00
H724   H     0.49209   0.43356   0.27202   0.00000  Uiso   1.00
H725   H     0.56475   0.69589   0.10850   0.00000  Uiso   1.00
H726   H     0.65000   0.31018   0.00124   0.00000  Uiso   1.00
H727   H     0.45733   0.39864   0.40636   0.00000  Uiso   1.00
O728   O     0.64388   0.77417   0.13668   0.00000  Uiso   1.00
O729   O     0.75573   0.26812   0.99597   0.00000  Uiso   1.00
O730   O     0.50295   0.38418   0.52748   0.00000  Uiso   1.00
N731   N     0.68242   0.69225   0.18650   0.00000  Uiso   1.00
N732   N     0.76213   0.33164   0.08621   0.00000  Uiso   1.00
N733   N     0.58200   0.41432   0.46497   0.00000  Uiso   1.00
N734   N     0.59975   0.68443   0.13482   0.00000  Uiso   1.00
N735   N     0.67946   0.32382   0.03453   0.00000  Uiso   1.00
N736   N     0.49933   0.40651   0.41329   0.00000  Uiso   1.00
