data_job_03750
_audit_creation_date              2018-12-19
_audit_creation_method            'Materials Studio'
_symmetry_space_group_name_H-M    'P1'
_symmetry_Int_Tables_number       1
_symmetry_cell_setting            triclinic
loop_
_symmetry_equiv_pos_as_xyz
  x,y,z
_cell_length_a                    16.1097
_cell_length_b                    16.1097
_cell_length_c                    49.1653
_cell_angle_alpha                 90.0000
_cell_angle_beta                  90.0000
_cell_angle_gamma                 90.0000
loop_
_atom_site_label
_atom_site_type_symbol
_atom_site_fract_x
_atom_site_fract_y
_atom_site_fract_z
_atom_site_U_iso_or_equiv
_atom_site_adp_type
_atom_site_occupancy
C1     C     0.98941   0.12192   0.89550   0.00000  Uiso   1.00
C2     C     0.95427   0.13025   0.86683   0.00000  Uiso   1.00
C3     C     0.91606   0.06755   0.85207   0.00000  Uiso   1.00
C4     C     0.88812   0.08762   0.82618   0.00000  Uiso   1.00
C5     C     0.83208   0.08838   0.78329   0.00000  Uiso   1.00
C6     C     0.08021   0.14806   0.89364   0.00000  Uiso   1.00
C7     C     0.14789   0.10034   0.90142   0.00000  Uiso   1.00
C8     C     0.22596   0.13542   0.89810   0.00000  Uiso   1.00
C9     C     0.36544   0.16386   0.89684   0.00000  Uiso   1.00
C10    C     0.94630   0.18829   0.91252   0.00000  Uiso   1.00
C11    C     0.90140   0.17440   0.93618   0.00000  Uiso   1.00
C12    C     0.86675   0.24335   0.94875   0.00000  Uiso   1.00
C13    C     0.79832   0.33425   0.97681   0.00000  Uiso   1.00
C14    C     0.00771   0.26907   0.87577   0.00000  Uiso   1.00
C15    C     0.96421   0.21018   0.85612   0.00000  Uiso   1.00
C16    C     0.93632   0.23035   0.83024   0.00000  Uiso   1.00
C17    C     0.89808   0.16769   0.81544   0.00000  Uiso   1.00
C18    C     0.09015   0.22799   0.88292   0.00000  Uiso   1.00
C19    C     0.16814   0.26315   0.87959   0.00000  Uiso   1.00
C20    C     0.23592   0.21549   0.88736   0.00000  Uiso   1.00
C21    C     0.95624   0.26822   0.90180   0.00000  Uiso   1.00
C22    C     0.92165   0.33721   0.91434   0.00000  Uiso   1.00
C23    C     0.87671   0.32342   0.93802   0.00000  Uiso   1.00
H24    H     0.98167   0.05969   0.90385   0.00000  Uiso   1.00
H25    H     0.90839   0.00570   0.86037   0.00000  Uiso   1.00
H26    H     0.14017   0.03849   0.90971   0.00000  Uiso   1.00
H27    H     0.89372   0.11254   0.94446   0.00000  Uiso   1.00
H28    H     0.83155   0.98107   0.80744   0.00000  Uiso   1.00
H29    H     0.32028   0.05023   0.91149   0.00000  Uiso   1.00
H30    H     0.80060   0.20637   0.98477   0.00000  Uiso   1.00
H31    H     0.01545   0.33130   0.86743   0.00000  Uiso   1.00
H32    H     0.94402   0.29221   0.82195   0.00000  Uiso   1.00
H33    H     0.17581   0.32500   0.87130   0.00000  Uiso   1.00
H34    H     0.92936   0.39905   0.90605   0.00000  Uiso   1.00
H35    H     0.86048   0.21362   0.77626   0.00000  Uiso   1.00
H36    H     0.34921   0.28277   0.88031   0.00000  Uiso   1.00
H37    H     0.82952   0.43892   0.95359   0.00000  Uiso   1.00
O38    O     0.79844   0.06672   0.76258   0.00000  Uiso   1.00
O39    O     0.43963   0.15746   0.89910   0.00000  Uiso   1.00
O40    O     0.75781   0.36231   0.99524   0.00000  Uiso   1.00
N41    N     0.84815   0.04117   0.80634   0.00000  Uiso   1.00
N42    N     0.30508   0.10582   0.90362   0.00000  Uiso   1.00
N43    N     0.81924   0.25181   0.97213   0.00000  Uiso   1.00
N44    N     0.86371   0.16630   0.78956   0.00000  Uiso   1.00
N45    N     0.32064   0.23095   0.88684   0.00000  Uiso   1.00
N46    N     0.83480   0.37694   0.95535   0.00000  Uiso   1.00
C47    C     0.01059   0.87808   0.89550   0.00000  Uiso   1.00
C48    C     0.04573   0.86975   0.86683   0.00000  Uiso   1.00
C49    C     0.08394   0.93245   0.85207   0.00000  Uiso   1.00
C50    C     0.11188   0.91238   0.82618   0.00000  Uiso   1.00
C51    C     0.16792   0.91162   0.78329   0.00000  Uiso   1.00
C52    C     0.91979   0.85194   0.89364   0.00000  Uiso   1.00
C53    C     0.85211   0.89966   0.90142   0.00000  Uiso   1.00
C54    C     0.77404   0.86458   0.89810   0.00000  Uiso   1.00
C55    C     0.63456   0.83614   0.89684   0.00000  Uiso   1.00
C56    C     0.05370   0.81171   0.91252   0.00000  Uiso   1.00
C57    C     0.09860   0.82560   0.93618   0.00000  Uiso   1.00
C58    C     0.13325   0.75665   0.94875   0.00000  Uiso   1.00
C59    C     0.20168   0.66575   0.97681   0.00000  Uiso   1.00
C60    C     0.99229   0.73093   0.87577   0.00000  Uiso   1.00
C61    C     0.03579   0.78982   0.85612   0.00000  Uiso   1.00
C62    C     0.06368   0.76965   0.83024   0.00000  Uiso   1.00
C63    C     0.10192   0.83231   0.81544   0.00000  Uiso   1.00
C64    C     0.90985   0.77201   0.88292   0.00000  Uiso   1.00
C65    C     0.83186   0.73685   0.87959   0.00000  Uiso   1.00
C66    C     0.76408   0.78451   0.88736   0.00000  Uiso   1.00
C67    C     0.04376   0.73178   0.90180   0.00000  Uiso   1.00
C68    C     0.07835   0.66279   0.91434   0.00000  Uiso   1.00
C69    C     0.12329   0.67658   0.93802   0.00000  Uiso   1.00
H70    H     0.01833   0.94031   0.90385   0.00000  Uiso   1.00
H71    H     0.09161   0.99430   0.86037   0.00000  Uiso   1.00
H72    H     0.85983   0.96151   0.90971   0.00000  Uiso   1.00
H73    H     0.10628   0.88746   0.94446   0.00000  Uiso   1.00
H74    H     0.16845   0.01893   0.80744   0.00000  Uiso   1.00
H75    H     0.67972   0.94977   0.91149   0.00000  Uiso   1.00
H76    H     0.19940   0.79363   0.98477   0.00000  Uiso   1.00
H77    H     0.98455   0.66870   0.86743   0.00000  Uiso   1.00
H78    H     0.05598   0.70779   0.82195   0.00000  Uiso   1.00
H79    H     0.82419   0.67500   0.87130   0.00000  Uiso   1.00
H80    H     0.07064   0.60095   0.90605   0.00000  Uiso   1.00
H81    H     0.13952   0.78638   0.77626   0.00000  Uiso   1.00
H82    H     0.65079   0.71723   0.88031   0.00000  Uiso   1.00
H83    H     0.17048   0.56108   0.95359   0.00000  Uiso   1.00
O84    O     0.20156   0.93328   0.76258   0.00000  Uiso   1.00
O85    O     0.56037   0.84254   0.89910   0.00000  Uiso   1.00
O86    O     0.24219   0.63769   0.99524   0.00000  Uiso   1.00
N87    N     0.15185   0.95883   0.80634   0.00000  Uiso   1.00
N88    N     0.69492   0.89418   0.90362   0.00000  Uiso   1.00
N89    N     0.18076   0.74819   0.97213   0.00000  Uiso   1.00
N90    N     0.13629   0.83370   0.78956   0.00000  Uiso   1.00
N91    N     0.67936   0.76905   0.88684   0.00000  Uiso   1.00
N92    N     0.16520   0.62306   0.95535   0.00000  Uiso   1.00
C93    C     0.37808   0.48941   0.89550   0.00000  Uiso   1.00
C94    C     0.36975   0.45427   0.86683   0.00000  Uiso   1.00
C95    C     0.43245   0.41606   0.85207   0.00000  Uiso   1.00
C96    C     0.41238   0.38812   0.82618   0.00000  Uiso   1.00
C97    C     0.41162   0.33208   0.78329   0.00000  Uiso   1.00
C98    C     0.35194   0.58021   0.89364   0.00000  Uiso   1.00
C99    C     0.39966   0.64789   0.90142   0.00000  Uiso   1.00
C100   C     0.36458   0.72596   0.89810   0.00000  Uiso   1.00
C101   C     0.33614   0.86544   0.89684   0.00000  Uiso   1.00
C102   C     0.31171   0.44630   0.91252   0.00000  Uiso   1.00
C103   C     0.32560   0.40140   0.93618   0.00000  Uiso   1.00
C104   C     0.25665   0.36675   0.94875   0.00000  Uiso   1.00
C105   C     0.16575   0.29832   0.97681   0.00000  Uiso   1.00
C106   C     0.23093   0.50771   0.87577   0.00000  Uiso   1.00
C107   C     0.28982   0.46421   0.85612   0.00000  Uiso   1.00
C108   C     0.26965   0.43632   0.83024   0.00000  Uiso   1.00
C109   C     0.33231   0.39808   0.81544   0.00000  Uiso   1.00
C110   C     0.27201   0.59015   0.88292   0.00000  Uiso   1.00
C111   C     0.23685   0.66814   0.87959   0.00000  Uiso   1.00
C112   C     0.28451   0.73592   0.88736   0.00000  Uiso   1.00
C113   C     0.23178   0.45624   0.90180   0.00000  Uiso   1.00
C114   C     0.16279   0.42165   0.91434   0.00000  Uiso   1.00
C115   C     0.17658   0.37671   0.93802   0.00000  Uiso   1.00
H116   H     0.44031   0.48167   0.90385   0.00000  Uiso   1.00
H117   H     0.49430   0.40839   0.86037   0.00000  Uiso   1.00
H118   H     0.46151   0.64017   0.90971   0.00000  Uiso   1.00
H119   H     0.38746   0.39372   0.94446   0.00000  Uiso   1.00
H120   H     0.51893   0.33155   0.80744   0.00000  Uiso   1.00
H121   H     0.44977   0.82028   0.91149   0.00000  Uiso   1.00
H122   H     0.29363   0.30060   0.98477   0.00000  Uiso   1.00
H123   H     0.16870   0.51545   0.86743   0.00000  Uiso   1.00
H124   H     0.20779   0.44402   0.82195   0.00000  Uiso   1.00
H125   H     0.17500   0.67581   0.87130   0.00000  Uiso   1.00
H126   H     0.10095   0.42936   0.90605   0.00000  Uiso   1.00
H127   H     0.28638   0.36048   0.77626   0.00000  Uiso   1.00
H128   H     0.21723   0.84921   0.88031   0.00000  Uiso   1.00
H129   H     0.06108   0.32952   0.95359   0.00000  Uiso   1.00
O130   O     0.43328   0.29844   0.76258   0.00000  Uiso   1.00
O131   O     0.34254   0.93963   0.89910   0.00000  Uiso   1.00
O132   O     0.13769   0.25781   0.99524   0.00000  Uiso   1.00
N133   N     0.45883   0.34815   0.80634   0.00000  Uiso   1.00
N134   N     0.39418   0.80508   0.90362   0.00000  Uiso   1.00
N135   N     0.24819   0.31924   0.97213   0.00000  Uiso   1.00
N136   N     0.33370   0.36371   0.78956   0.00000  Uiso   1.00
N137   N     0.26905   0.82064   0.88684   0.00000  Uiso   1.00
N138   N     0.12306   0.33480   0.95535   0.00000  Uiso   1.00
C139   C     0.62192   0.51059   0.89550   0.00000  Uiso   1.00
C140   C     0.63025   0.54573   0.86683   0.00000  Uiso   1.00
C141   C     0.56755   0.58394   0.85207   0.00000  Uiso   1.00
C142   C     0.58762   0.61188   0.82618   0.00000  Uiso   1.00
C143   C     0.58838   0.66792   0.78329   0.00000  Uiso   1.00
C144   C     0.64806   0.41979   0.89364   0.00000  Uiso   1.00
C145   C     0.60034   0.35211   0.90142   0.00000  Uiso   1.00
C146   C     0.63542   0.27404   0.89810   0.00000  Uiso   1.00
C147   C     0.66386   0.13456   0.89684   0.00000  Uiso   1.00
C148   C     0.68829   0.55370   0.91252   0.00000  Uiso   1.00
C149   C     0.67440   0.59860   0.93618   0.00000  Uiso   1.00
C150   C     0.74335   0.63325   0.94875   0.00000  Uiso   1.00
C151   C     0.83425   0.70168   0.97681   0.00000  Uiso   1.00
C152   C     0.76907   0.49229   0.87577   0.00000  Uiso   1.00
C153   C     0.71018   0.53579   0.85612   0.00000  Uiso   1.00
C154   C     0.73035   0.56368   0.83024   0.00000  Uiso   1.00
C155   C     0.66769   0.60192   0.81544   0.00000  Uiso   1.00
C156   C     0.72799   0.40985   0.88292   0.00000  Uiso   1.00
C157   C     0.76315   0.33186   0.87959   0.00000  Uiso   1.00
C158   C     0.71549   0.26408   0.88736   0.00000  Uiso   1.00
C159   C     0.76822   0.54376   0.90180   0.00000  Uiso   1.00
C160   C     0.83721   0.57835   0.91434   0.00000  Uiso   1.00
C161   C     0.82342   0.62329   0.93802   0.00000  Uiso   1.00
H162   H     0.55969   0.51833   0.90385   0.00000  Uiso   1.00
H163   H     0.50570   0.59161   0.86037   0.00000  Uiso   1.00
H164   H     0.53849   0.35983   0.90971   0.00000  Uiso   1.00
H165   H     0.61254   0.60628   0.94446   0.00000  Uiso   1.00
H166   H     0.48107   0.66845   0.80744   0.00000  Uiso   1.00
H167   H     0.55023   0.17972   0.91149   0.00000  Uiso   1.00
H168   H     0.70637   0.69940   0.98477   0.00000  Uiso   1.00
H169   H     0.83130   0.48455   0.86743   0.00000  Uiso   1.00
H170   H     0.79221   0.55598   0.82195   0.00000  Uiso   1.00
H171   H     0.82500   0.32419   0.87130   0.00000  Uiso   1.00
H172   H     0.89905   0.57064   0.90605   0.00000  Uiso   1.00
H173   H     0.71362   0.63952   0.77626   0.00000  Uiso   1.00
H174   H     0.78277   0.15079   0.88031   0.00000  Uiso   1.00
H175   H     0.93892   0.67048   0.95359   0.00000  Uiso   1.00
O176   O     0.56672   0.70156   0.76258   0.00000  Uiso   1.00
O177   O     0.65746   0.06037   0.89910   0.00000  Uiso   1.00
O178   O     0.86231   0.74219   0.99524   0.00000  Uiso   1.00
N179   N     0.54117   0.65185   0.80634   0.00000  Uiso   1.00
N180   N     0.60582   0.19492   0.90362   0.00000  Uiso   1.00
N181   N     0.75181   0.68076   0.97213   0.00000  Uiso   1.00
N182   N     0.66630   0.63629   0.78956   0.00000  Uiso   1.00
N183   N     0.73095   0.17936   0.88684   0.00000  Uiso   1.00
N184   N     0.87694   0.66520   0.95535   0.00000  Uiso   1.00
C185   C     0.51059   0.62192   0.60450   0.00000  Uiso   1.00
C186   C     0.54573   0.63025   0.63317   0.00000  Uiso   1.00
C187   C     0.58394   0.56755   0.64793   0.00000  Uiso   1.00
C188   C     0.61188   0.58762   0.67382   0.00000  Uiso   1.00
C189   C     0.66792   0.58838   0.71671   0.00000  Uiso   1.00
C190   C     0.41979   0.64806   0.60636   0.00000  Uiso   1.00
C191   C     0.35211   0.60034   0.59858   0.00000  Uiso   1.00
C192   C     0.27404   0.63542   0.60190   0.00000  Uiso   1.00
C193   C     0.13456   0.66386   0.60316   0.00000  Uiso   1.00
C194   C     0.55370   0.68829   0.58748   0.00000  Uiso   1.00
C195   C     0.59860   0.67440   0.56382   0.00000  Uiso   1.00
C196   C     0.63325   0.74335   0.55125   0.00000  Uiso   1.00
C197   C     0.70168   0.83425   0.52319   0.00000  Uiso   1.00
C198   C     0.49229   0.76907   0.62423   0.00000  Uiso   1.00
C199   C     0.53579   0.71018   0.64388   0.00000  Uiso   1.00
C200   C     0.56368   0.73035   0.66976   0.00000  Uiso   1.00
C201   C     0.60192   0.66769   0.68456   0.00000  Uiso   1.00
C202   C     0.40985   0.72799   0.61708   0.00000  Uiso   1.00
C203   C     0.33186   0.76315   0.62041   0.00000  Uiso   1.00
C204   C     0.26408   0.71549   0.61264   0.00000  Uiso   1.00
C205   C     0.54376   0.76822   0.59820   0.00000  Uiso   1.00
C206   C     0.57835   0.83721   0.58566   0.00000  Uiso   1.00
C207   C     0.62329   0.82342   0.56198   0.00000  Uiso   1.00
H208   H     0.51833   0.55969   0.59615   0.00000  Uiso   1.00
H209   H     0.59161   0.50570   0.63963   0.00000  Uiso   1.00
H210   H     0.35983   0.53849   0.59029   0.00000  Uiso   1.00
H211   H     0.60628   0.61254   0.55554   0.00000  Uiso   1.00
H212   H     0.66845   0.48107   0.69256   0.00000  Uiso   1.00
H213   H     0.17972   0.55023   0.58851   0.00000  Uiso   1.00
H214   H     0.69940   0.70637   0.51523   0.00000  Uiso   1.00
H215   H     0.48455   0.83130   0.63257   0.00000  Uiso   1.00
H216   H     0.55598   0.79221   0.67805   0.00000  Uiso   1.00
H217   H     0.32419   0.82500   0.62870   0.00000  Uiso   1.00
H218   H     0.57064   0.89905   0.59395   0.00000  Uiso   1.00
H219   H     0.63952   0.71362   0.72374   0.00000  Uiso   1.00
H220   H     0.15079   0.78277   0.61969   0.00000  Uiso   1.00
H221   H     0.67048   0.93892   0.54641   0.00000  Uiso   1.00
O222   O     0.70156   0.56672   0.73742   0.00000  Uiso   1.00
O223   O     0.06037   0.65746   0.60090   0.00000  Uiso   1.00
O224   O     0.74219   0.86231   0.50476   0.00000  Uiso   1.00
N225   N     0.65185   0.54117   0.69366   0.00000  Uiso   1.00
N226   N     0.19492   0.60582   0.59638   0.00000  Uiso   1.00
N227   N     0.68076   0.75181   0.52787   0.00000  Uiso   1.00
N228   N     0.63629   0.66630   0.71044   0.00000  Uiso   1.00
N229   N     0.17936   0.73095   0.61316   0.00000  Uiso   1.00
N230   N     0.66520   0.87694   0.54465   0.00000  Uiso   1.00
C231   C     0.48941   0.37808   0.60450   0.00000  Uiso   1.00
C232   C     0.45427   0.36975   0.63317   0.00000  Uiso   1.00
C233   C     0.41606   0.43245   0.64793   0.00000  Uiso   1.00
C234   C     0.38812   0.41238   0.67382   0.00000  Uiso   1.00
C235   C     0.33208   0.41162   0.71671   0.00000  Uiso   1.00
C236   C     0.58021   0.35194   0.60636   0.00000  Uiso   1.00
C237   C     0.64789   0.39966   0.59858   0.00000  Uiso   1.00
C238   C     0.72596   0.36458   0.60190   0.00000  Uiso   1.00
C239   C     0.86544   0.33614   0.60316   0.00000  Uiso   1.00
C240   C     0.44630   0.31171   0.58748   0.00000  Uiso   1.00
C241   C     0.40140   0.32560   0.56382   0.00000  Uiso   1.00
C242   C     0.36675   0.25665   0.55125   0.00000  Uiso   1.00
C243   C     0.29832   0.16575   0.52319   0.00000  Uiso   1.00
C244   C     0.50771   0.23093   0.62423   0.00000  Uiso   1.00
C245   C     0.46421   0.28982   0.64388   0.00000  Uiso   1.00
C246   C     0.43632   0.26965   0.66976   0.00000  Uiso   1.00
C247   C     0.39808   0.33231   0.68456   0.00000  Uiso   1.00
C248   C     0.59015   0.27201   0.61708   0.00000  Uiso   1.00
C249   C     0.66814   0.23685   0.62041   0.00000  Uiso   1.00
C250   C     0.73592   0.28451   0.61264   0.00000  Uiso   1.00
C251   C     0.45624   0.23178   0.59820   0.00000  Uiso   1.00
C252   C     0.42165   0.16279   0.58566   0.00000  Uiso   1.00
C253   C     0.37671   0.17658   0.56198   0.00000  Uiso   1.00
H254   H     0.48167   0.44031   0.59615   0.00000  Uiso   1.00
H255   H     0.40839   0.49430   0.63963   0.00000  Uiso   1.00
H256   H     0.64017   0.46151   0.59029   0.00000  Uiso   1.00
H257   H     0.39372   0.38746   0.55554   0.00000  Uiso   1.00
H258   H     0.33155   0.51893   0.69256   0.00000  Uiso   1.00
H259   H     0.82028   0.44977   0.58851   0.00000  Uiso   1.00
H260   H     0.30060   0.29363   0.51523   0.00000  Uiso   1.00
H261   H     0.51545   0.16870   0.63257   0.00000  Uiso   1.00
H262   H     0.44402   0.20779   0.67805   0.00000  Uiso   1.00
H263   H     0.67581   0.17500   0.62870   0.00000  Uiso   1.00
H264   H     0.42936   0.10095   0.59395   0.00000  Uiso   1.00
H265   H     0.36048   0.28638   0.72374   0.00000  Uiso   1.00
H266   H     0.84921   0.21723   0.61969   0.00000  Uiso   1.00
H267   H     0.32952   0.06108   0.54641   0.00000  Uiso   1.00
O268   O     0.29844   0.43328   0.73742   0.00000  Uiso   1.00
O269   O     0.93963   0.34254   0.60090   0.00000  Uiso   1.00
O270   O     0.25781   0.13769   0.50476   0.00000  Uiso   1.00
N271   N     0.34815   0.45883   0.69366   0.00000  Uiso   1.00
N272   N     0.80508   0.39418   0.59638   0.00000  Uiso   1.00
N273   N     0.31924   0.24819   0.52787   0.00000  Uiso   1.00
N274   N     0.36371   0.33370   0.71044   0.00000  Uiso   1.00
N275   N     0.82064   0.26905   0.61316   0.00000  Uiso   1.00
N276   N     0.33480   0.12306   0.54465   0.00000  Uiso   1.00
C277   C     0.12192   0.98941   0.60450   0.00000  Uiso   1.00
C278   C     0.13025   0.95427   0.63317   0.00000  Uiso   1.00
C279   C     0.06755   0.91606   0.64793   0.00000  Uiso   1.00
C280   C     0.08762   0.88812   0.67382   0.00000  Uiso   1.00
C281   C     0.08838   0.83208   0.71671   0.00000  Uiso   1.00
C282   C     0.14806   0.08021   0.60636   0.00000  Uiso   1.00
C283   C     0.10034   0.14789   0.59858   0.00000  Uiso   1.00
C284   C     0.13542   0.22596   0.60190   0.00000  Uiso   1.00
C285   C     0.16386   0.36544   0.60316   0.00000  Uiso   1.00
C286   C     0.18829   0.94630   0.58748   0.00000  Uiso   1.00
C287   C     0.17440   0.90140   0.56382   0.00000  Uiso   1.00
C288   C     0.24335   0.86675   0.55125   0.00000  Uiso   1.00
C289   C     0.33425   0.79832   0.52319   0.00000  Uiso   1.00
C290   C     0.26907   0.00771   0.62423   0.00000  Uiso   1.00
C291   C     0.21018   0.96421   0.64388   0.00000  Uiso   1.00
C292   C     0.23035   0.93632   0.66976   0.00000  Uiso   1.00
C293   C     0.16769   0.89808   0.68456   0.00000  Uiso   1.00
C294   C     0.22799   0.09015   0.61708   0.00000  Uiso   1.00
C295   C     0.26315   0.16814   0.62041   0.00000  Uiso   1.00
C296   C     0.21549   0.23592   0.61264   0.00000  Uiso   1.00
C297   C     0.26822   0.95624   0.59820   0.00000  Uiso   1.00
C298   C     0.33721   0.92165   0.58566   0.00000  Uiso   1.00
C299   C     0.32342   0.87671   0.56198   0.00000  Uiso   1.00
H300   H     0.05969   0.98167   0.59615   0.00000  Uiso   1.00
H301   H     0.00570   0.90839   0.63963   0.00000  Uiso   1.00
H302   H     0.03849   0.14017   0.59029   0.00000  Uiso   1.00
H303   H     0.11254   0.89372   0.55554   0.00000  Uiso   1.00
H304   H     0.98107   0.83155   0.69256   0.00000  Uiso   1.00
H305   H     0.05023   0.32028   0.58851   0.00000  Uiso   1.00
H306   H     0.20637   0.80060   0.51523   0.00000  Uiso   1.00
H307   H     0.33130   0.01545   0.63257   0.00000  Uiso   1.00
H308   H     0.29221   0.94402   0.67805   0.00000  Uiso   1.00
H309   H     0.32500   0.17581   0.62870   0.00000  Uiso   1.00
H310   H     0.39905   0.92936   0.59395   0.00000  Uiso   1.00
H311   H     0.21362   0.86048   0.72374   0.00000  Uiso   1.00
H312   H     0.28277   0.34921   0.61969   0.00000  Uiso   1.00
H313   H     0.43892   0.82952   0.54641   0.00000  Uiso   1.00
O314   O     0.06672   0.79844   0.73742   0.00000  Uiso   1.00
O315   O     0.15746   0.43963   0.60090   0.00000  Uiso   1.00
O316   O     0.36231   0.75781   0.50476   0.00000  Uiso   1.00
N317   N     0.04117   0.84815   0.69366   0.00000  Uiso   1.00
N318   N     0.10582   0.30508   0.59638   0.00000  Uiso   1.00
N319   N     0.25181   0.81924   0.52787   0.00000  Uiso   1.00
N320   N     0.16630   0.86371   0.71044   0.00000  Uiso   1.00
N321   N     0.23095   0.32064   0.61316   0.00000  Uiso   1.00
N322   N     0.37694   0.83480   0.54465   0.00000  Uiso   1.00
C323   C     0.87808   0.01059   0.60450   0.00000  Uiso   1.00
C324   C     0.86975   0.04573   0.63317   0.00000  Uiso   1.00
C325   C     0.93245   0.08394   0.64793   0.00000  Uiso   1.00
C326   C     0.91238   0.11188   0.67382   0.00000  Uiso   1.00
C327   C     0.91162   0.16792   0.71671   0.00000  Uiso   1.00
C328   C     0.85194   0.91979   0.60636   0.00000  Uiso   1.00
C329   C     0.89966   0.85211   0.59858   0.00000  Uiso   1.00
C330   C     0.86458   0.77404   0.60190   0.00000  Uiso   1.00
C331   C     0.83614   0.63456   0.60316   0.00000  Uiso   1.00
C332   C     0.81171   0.05370   0.58748   0.00000  Uiso   1.00
C333   C     0.82560   0.09860   0.56382   0.00000  Uiso   1.00
C334   C     0.75665   0.13325   0.55125   0.00000  Uiso   1.00
C335   C     0.66575   0.20168   0.52319   0.00000  Uiso   1.00
C336   C     0.73093   0.99229   0.62423   0.00000  Uiso   1.00
C337   C     0.78982   0.03579   0.64388   0.00000  Uiso   1.00
C338   C     0.76965   0.06368   0.66976   0.00000  Uiso   1.00
C339   C     0.83231   0.10192   0.68456   0.00000  Uiso   1.00
C340   C     0.77201   0.90985   0.61708   0.00000  Uiso   1.00
C341   C     0.73685   0.83186   0.62041   0.00000  Uiso   1.00
C342   C     0.78451   0.76408   0.61264   0.00000  Uiso   1.00
C343   C     0.73178   0.04376   0.59820   0.00000  Uiso   1.00
C344   C     0.66279   0.07835   0.58566   0.00000  Uiso   1.00
C345   C     0.67658   0.12329   0.56198   0.00000  Uiso   1.00
H346   H     0.94031   0.01833   0.59615   0.00000  Uiso   1.00
H347   H     0.99430   0.09161   0.63963   0.00000  Uiso   1.00
H348   H     0.96151   0.85983   0.59029   0.00000  Uiso   1.00
H349   H     0.88746   0.10628   0.55554   0.00000  Uiso   1.00
H350   H     0.01893   0.16845   0.69256   0.00000  Uiso   1.00
H351   H     0.94977   0.67972   0.58851   0.00000  Uiso   1.00
H352   H     0.79363   0.19940   0.51523   0.00000  Uiso   1.00
H353   H     0.66870   0.98455   0.63257   0.00000  Uiso   1.00
H354   H     0.70779   0.05598   0.67805   0.00000  Uiso   1.00
H355   H     0.67500   0.82419   0.62870   0.00000  Uiso   1.00
H356   H     0.60095   0.07064   0.59395   0.00000  Uiso   1.00
H357   H     0.78638   0.13952   0.72374   0.00000  Uiso   1.00
H358   H     0.71723   0.65079   0.61969   0.00000  Uiso   1.00
H359   H     0.56108   0.17048   0.54641   0.00000  Uiso   1.00
O360   O     0.93328   0.20156   0.73742   0.00000  Uiso   1.00
O361   O     0.84254   0.56037   0.60090   0.00000  Uiso   1.00
O362   O     0.63769   0.24219   0.50476   0.00000  Uiso   1.00
N363   N     0.95883   0.15185   0.69366   0.00000  Uiso   1.00
N364   N     0.89418   0.69492   0.59638   0.00000  Uiso   1.00
N365   N     0.74819   0.18076   0.52787   0.00000  Uiso   1.00
N366   N     0.83370   0.13629   0.71044   0.00000  Uiso   1.00
N367   N     0.76905   0.67936   0.61316   0.00000  Uiso   1.00
N368   N     0.62306   0.16520   0.54465   0.00000  Uiso   1.00
C369   C     0.51059   0.37808   0.10450   0.00000  Uiso   1.00
C370   C     0.54573   0.36975   0.13317   0.00000  Uiso   1.00
C371   C     0.58394   0.43245   0.14793   0.00000  Uiso   1.00
C372   C     0.61188   0.41238   0.17382   0.00000  Uiso   1.00
C373   C     0.66792   0.41162   0.21671   0.00000  Uiso   1.00
C374   C     0.41979   0.35194   0.10636   0.00000  Uiso   1.00
C375   C     0.35211   0.39966   0.09858   0.00000  Uiso   1.00
C376   C     0.27404   0.36458   0.10190   0.00000  Uiso   1.00
C377   C     0.13456   0.33614   0.10316   0.00000  Uiso   1.00
C378   C     0.55370   0.31171   0.08748   0.00000  Uiso   1.00
C379   C     0.59860   0.32560   0.06382   0.00000  Uiso   1.00
C380   C     0.63325   0.25665   0.05125   0.00000  Uiso   1.00
C381   C     0.70168   0.16575   0.02319   0.00000  Uiso   1.00
C382   C     0.49229   0.23093   0.12423   0.00000  Uiso   1.00
C383   C     0.53579   0.28982   0.14388   0.00000  Uiso   1.00
C384   C     0.56368   0.26965   0.16976   0.00000  Uiso   1.00
C385   C     0.60192   0.33231   0.18456   0.00000  Uiso   1.00
C386   C     0.40985   0.27201   0.11708   0.00000  Uiso   1.00
C387   C     0.33186   0.23685   0.12041   0.00000  Uiso   1.00
C388   C     0.26408   0.28451   0.11264   0.00000  Uiso   1.00
C389   C     0.54376   0.23178   0.09820   0.00000  Uiso   1.00
C390   C     0.57835   0.16279   0.08566   0.00000  Uiso   1.00
C391   C     0.62329   0.17658   0.06198   0.00000  Uiso   1.00
H392   H     0.51833   0.44031   0.09615   0.00000  Uiso   1.00
H393   H     0.59161   0.49430   0.13963   0.00000  Uiso   1.00
H394   H     0.35983   0.46151   0.09029   0.00000  Uiso   1.00
H395   H     0.60628   0.38746   0.05554   0.00000  Uiso   1.00
H396   H     0.66845   0.51893   0.19256   0.00000  Uiso   1.00
H397   H     0.17972   0.44977   0.08851   0.00000  Uiso   1.00
H398   H     0.69940   0.29363   0.01523   0.00000  Uiso   1.00
H399   H     0.48455   0.16870   0.13257   0.00000  Uiso   1.00
H400   H     0.55598   0.20779   0.17805   0.00000  Uiso   1.00
H401   H     0.32419   0.17500   0.12870   0.00000  Uiso   1.00
H402   H     0.57064   0.10095   0.09395   0.00000  Uiso   1.00
H403   H     0.63952   0.28638   0.22374   0.00000  Uiso   1.00
H404   H     0.15079   0.21723   0.11969   0.00000  Uiso   1.00
H405   H     0.67048   0.06108   0.04641   0.00000  Uiso   1.00
O406   O     0.70156   0.43328   0.23742   0.00000  Uiso   1.00
O407   O     0.06037   0.34254   0.10090   0.00000  Uiso   1.00
O408   O     0.74219   0.13769   0.00476   0.00000  Uiso   1.00
N409   N     0.65185   0.45883   0.19366   0.00000  Uiso   1.00
N410   N     0.19492   0.39418   0.09638   0.00000  Uiso   1.00
N411   N     0.68076   0.24819   0.02787   0.00000  Uiso   1.00
N412   N     0.63629   0.33370   0.21044   0.00000  Uiso   1.00
N413   N     0.17936   0.26905   0.11316   0.00000  Uiso   1.00
N414   N     0.66520   0.12306   0.04465   0.00000  Uiso   1.00
C415   C     0.48941   0.62192   0.10450   0.00000  Uiso   1.00
C416   C     0.45427   0.63025   0.13317   0.00000  Uiso   1.00
C417   C     0.41606   0.56755   0.14793   0.00000  Uiso   1.00
C418   C     0.38812   0.58762   0.17382   0.00000  Uiso   1.00
C419   C     0.33208   0.58838   0.21671   0.00000  Uiso   1.00
C420   C     0.58021   0.64806   0.10636   0.00000  Uiso   1.00
C421   C     0.64789   0.60034   0.09858   0.00000  Uiso   1.00
C422   C     0.72596   0.63542   0.10190   0.00000  Uiso   1.00
C423   C     0.86544   0.66386   0.10316   0.00000  Uiso   1.00
C424   C     0.44630   0.68829   0.08748   0.00000  Uiso   1.00
C425   C     0.40140   0.67440   0.06382   0.00000  Uiso   1.00
C426   C     0.36675   0.74335   0.05125   0.00000  Uiso   1.00
C427   C     0.29832   0.83425   0.02319   0.00000  Uiso   1.00
C428   C     0.50771   0.76907   0.12423   0.00000  Uiso   1.00
C429   C     0.46421   0.71018   0.14388   0.00000  Uiso   1.00
C430   C     0.43632   0.73035   0.16976   0.00000  Uiso   1.00
C431   C     0.39808   0.66769   0.18456   0.00000  Uiso   1.00
C432   C     0.59015   0.72799   0.11708   0.00000  Uiso   1.00
C433   C     0.66814   0.76315   0.12041   0.00000  Uiso   1.00
C434   C     0.73592   0.71549   0.11264   0.00000  Uiso   1.00
C435   C     0.45624   0.76822   0.09820   0.00000  Uiso   1.00
C436   C     0.42165   0.83721   0.08566   0.00000  Uiso   1.00
C437   C     0.37671   0.82342   0.06198   0.00000  Uiso   1.00
H438   H     0.48167   0.55969   0.09615   0.00000  Uiso   1.00
H439   H     0.40839   0.50570   0.13963   0.00000  Uiso   1.00
H440   H     0.64017   0.53849   0.09029   0.00000  Uiso   1.00
H441   H     0.39372   0.61254   0.05554   0.00000  Uiso   1.00
H442   H     0.33155   0.48107   0.19256   0.00000  Uiso   1.00
H443   H     0.82028   0.55023   0.08851   0.00000  Uiso   1.00
H444   H     0.30060   0.70637   0.01523   0.00000  Uiso   1.00
H445   H     0.51545   0.83130   0.13257   0.00000  Uiso   1.00
H446   H     0.44402   0.79221   0.17805   0.00000  Uiso   1.00
H447   H     0.67581   0.82500   0.12870   0.00000  Uiso   1.00
H448   H     0.42936   0.89905   0.09395   0.00000  Uiso   1.00
H449   H     0.36048   0.71362   0.22374   0.00000  Uiso   1.00
H450   H     0.84921   0.78277   0.11969   0.00000  Uiso   1.00
H451   H     0.32952   0.93892   0.04641   0.00000  Uiso   1.00
O452   O     0.29844   0.56672   0.23742   0.00000  Uiso   1.00
O453   O     0.93963   0.65746   0.10090   0.00000  Uiso   1.00
O454   O     0.25781   0.86231   0.00476   0.00000  Uiso   1.00
N455   N     0.34815   0.54117   0.19366   0.00000  Uiso   1.00
N456   N     0.80508   0.60582   0.09638   0.00000  Uiso   1.00
N457   N     0.31924   0.75181   0.02787   0.00000  Uiso   1.00
N458   N     0.36371   0.66630   0.21044   0.00000  Uiso   1.00
N459   N     0.82064   0.73095   0.11316   0.00000  Uiso   1.00
N460   N     0.33480   0.87694   0.04465   0.00000  Uiso   1.00
C461   C     0.12192   0.01059   0.10450   0.00000  Uiso   1.00
C462   C     0.13025   0.04573   0.13317   0.00000  Uiso   1.00
C463   C     0.06755   0.08394   0.14793   0.00000  Uiso   1.00
C464   C     0.08762   0.11188   0.17382   0.00000  Uiso   1.00
C465   C     0.08838   0.16792   0.21671   0.00000  Uiso   1.00
C466   C     0.14806   0.91979   0.10636   0.00000  Uiso   1.00
C467   C     0.10034   0.85211   0.09858   0.00000  Uiso   1.00
C468   C     0.13542   0.77404   0.10190   0.00000  Uiso   1.00
C469   C     0.16386   0.63456   0.10316   0.00000  Uiso   1.00
C470   C     0.18829   0.05370   0.08748   0.00000  Uiso   1.00
C471   C     0.17440   0.09860   0.06382   0.00000  Uiso   1.00
C472   C     0.24335   0.13325   0.05125   0.00000  Uiso   1.00
C473   C     0.33425   0.20168   0.02319   0.00000  Uiso   1.00
C474   C     0.26907   0.99229   0.12423   0.00000  Uiso   1.00
C475   C     0.21018   0.03579   0.14388   0.00000  Uiso   1.00
C476   C     0.23035   0.06368   0.16976   0.00000  Uiso   1.00
C477   C     0.16769   0.10192   0.18456   0.00000  Uiso   1.00
C478   C     0.22799   0.90985   0.11708   0.00000  Uiso   1.00
C479   C     0.26315   0.83186   0.12041   0.00000  Uiso   1.00
C480   C     0.21549   0.76408   0.11264   0.00000  Uiso   1.00
C481   C     0.26822   0.04376   0.09820   0.00000  Uiso   1.00
C482   C     0.33721   0.07835   0.08566   0.00000  Uiso   1.00
C483   C     0.32342   0.12329   0.06198   0.00000  Uiso   1.00
H484   H     0.05969   0.01833   0.09615   0.00000  Uiso   1.00
H485   H     0.00570   0.09161   0.13963   0.00000  Uiso   1.00
H486   H     0.03849   0.85983   0.09029   0.00000  Uiso   1.00
H487   H     0.11254   0.10628   0.05554   0.00000  Uiso   1.00
H488   H     0.98107   0.16845   0.19256   0.00000  Uiso   1.00
H489   H     0.05023   0.67972   0.08851   0.00000  Uiso   1.00
H490   H     0.20637   0.19940   0.01523   0.00000  Uiso   1.00
H491   H     0.33130   0.98455   0.13257   0.00000  Uiso   1.00
H492   H     0.29221   0.05598   0.17805   0.00000  Uiso   1.00
H493   H     0.32500   0.82419   0.12870   0.00000  Uiso   1.00
H494   H     0.39905   0.07064   0.09395   0.00000  Uiso   1.00
H495   H     0.21362   0.13952   0.22374   0.00000  Uiso   1.00
H496   H     0.28277   0.65079   0.11969   0.00000  Uiso   1.00
H497   H     0.43892   0.17048   0.04641   0.00000  Uiso   1.00
O498   O     0.06672   0.20156   0.23742   0.00000  Uiso   1.00
O499   O     0.15746   0.56037   0.10090   0.00000  Uiso   1.00
O500   O     0.36231   0.24219   0.00476   0.00000  Uiso   1.00
N501   N     0.04117   0.15185   0.19366   0.00000  Uiso   1.00
N502   N     0.10582   0.69492   0.09638   0.00000  Uiso   1.00
N503   N     0.25181   0.18076   0.02787   0.00000  Uiso   1.00
N504   N     0.16630   0.13629   0.21044   0.00000  Uiso   1.00
N505   N     0.23095   0.67936   0.11316   0.00000  Uiso   1.00
N506   N     0.37694   0.16520   0.04465   0.00000  Uiso   1.00
C507   C     0.87808   0.98941   0.10450   0.00000  Uiso   1.00
C508   C     0.86975   0.95427   0.13317   0.00000  Uiso   1.00
C509   C     0.93245   0.91606   0.14793   0.00000  Uiso   1.00
C510   C     0.91238   0.88812   0.17382   0.00000  Uiso   1.00
C511   C     0.91162   0.83208   0.21671   0.00000  Uiso   1.00
C512   C     0.85194   0.08021   0.10636   0.00000  Uiso   1.00
C513   C     0.89966   0.14789   0.09858   0.00000  Uiso   1.00
C514   C     0.86458   0.22596   0.10190   0.00000  Uiso   1.00
C515   C     0.83614   0.36544   0.10316   0.00000  Uiso   1.00
C516   C     0.81171   0.94630   0.08748   0.00000  Uiso   1.00
C517   C     0.82560   0.90140   0.06382   0.00000  Uiso   1.00
C518   C     0.75665   0.86675   0.05125   0.00000  Uiso   1.00
C519   C     0.66575   0.79832   0.02319   0.00000  Uiso   1.00
C520   C     0.73093   0.00771   0.12423   0.00000  Uiso   1.00
C521   C     0.78982   0.96421   0.14388   0.00000  Uiso   1.00
C522   C     0.76965   0.93632   0.16976   0.00000  Uiso   1.00
C523   C     0.83231   0.89808   0.18456   0.00000  Uiso   1.00
C524   C     0.77201   0.09015   0.11708   0.00000  Uiso   1.00
C525   C     0.73685   0.16814   0.12041   0.00000  Uiso   1.00
C526   C     0.78451   0.23592   0.11264   0.00000  Uiso   1.00
C527   C     0.73178   0.95624   0.09820   0.00000  Uiso   1.00
C528   C     0.66279   0.92165   0.08566   0.00000  Uiso   1.00
C529   C     0.67658   0.87671   0.06198   0.00000  Uiso   1.00
H530   H     0.94031   0.98167   0.09615   0.00000  Uiso   1.00
H531   H     0.99430   0.90839   0.13963   0.00000  Uiso   1.00
H532   H     0.96151   0.14017   0.09029   0.00000  Uiso   1.00
H533   H     0.88746   0.89372   0.05554   0.00000  Uiso   1.00
H534   H     0.01893   0.83155   0.19256   0.00000  Uiso   1.00
H535   H     0.94977   0.32028   0.08851   0.00000  Uiso   1.00
H536   H     0.79363   0.80060   0.01523   0.00000  Uiso   1.00
H537   H     0.66870   0.01545   0.13257   0.00000  Uiso   1.00
H538   H     0.70779   0.94402   0.17805   0.00000  Uiso   1.00
H539   H     0.67500   0.17581   0.12870   0.00000  Uiso   1.00
H540   H     0.60095   0.92936   0.09395   0.00000  Uiso   1.00
H541   H     0.78638   0.86048   0.22374   0.00000  Uiso   1.00
H542   H     0.71723   0.34921   0.11969   0.00000  Uiso   1.00
H543   H     0.56108   0.82952   0.04641   0.00000  Uiso   1.00
O544   O     0.93328   0.79844   0.23742   0.00000  Uiso   1.00
O545   O     0.84254   0.43963   0.10090   0.00000  Uiso   1.00
O546   O     0.63769   0.75781   0.00476   0.00000  Uiso   1.00
N547   N     0.95883   0.84815   0.19366   0.00000  Uiso   1.00
N548   N     0.89418   0.30508   0.09638   0.00000  Uiso   1.00
N549   N     0.74819   0.81924   0.02787   0.00000  Uiso   1.00
N550   N     0.83370   0.86371   0.21044   0.00000  Uiso   1.00
N551   N     0.76905   0.32064   0.11316   0.00000  Uiso   1.00
N552   N     0.62306   0.83480   0.04465   0.00000  Uiso   1.00
C553   C     0.98941   0.87808   0.39550   0.00000  Uiso   1.00
C554   C     0.95427   0.86975   0.36683   0.00000  Uiso   1.00
C555   C     0.91606   0.93245   0.35207   0.00000  Uiso   1.00
C556   C     0.88812   0.91238   0.32618   0.00000  Uiso   1.00
C557   C     0.83208   0.91162   0.28329   0.00000  Uiso   1.00
C558   C     0.08021   0.85194   0.39364   0.00000  Uiso   1.00
C559   C     0.14789   0.89966   0.40142   0.00000  Uiso   1.00
C560   C     0.22596   0.86458   0.39810   0.00000  Uiso   1.00
C561   C     0.36544   0.83614   0.39684   0.00000  Uiso   1.00
C562   C     0.94630   0.81171   0.41252   0.00000  Uiso   1.00
C563   C     0.90140   0.82560   0.43618   0.00000  Uiso   1.00
C564   C     0.86675   0.75665   0.44875   0.00000  Uiso   1.00
C565   C     0.79832   0.66575   0.47681   0.00000  Uiso   1.00
C566   C     0.00771   0.73093   0.37577   0.00000  Uiso   1.00
C567   C     0.96421   0.78982   0.35612   0.00000  Uiso   1.00
C568   C     0.93632   0.76965   0.33024   0.00000  Uiso   1.00
C569   C     0.89808   0.83231   0.31544   0.00000  Uiso   1.00
C570   C     0.09015   0.77201   0.38292   0.00000  Uiso   1.00
C571   C     0.16814   0.73685   0.37959   0.00000  Uiso   1.00
C572   C     0.23592   0.78451   0.38736   0.00000  Uiso   1.00
C573   C     0.95624   0.73178   0.40180   0.00000  Uiso   1.00
C574   C     0.92165   0.66279   0.41434   0.00000  Uiso   1.00
C575   C     0.87671   0.67658   0.43802   0.00000  Uiso   1.00
H576   H     0.98167   0.94031   0.40385   0.00000  Uiso   1.00
H577   H     0.90839   0.99430   0.36037   0.00000  Uiso   1.00
H578   H     0.14017   0.96151   0.40971   0.00000  Uiso   1.00
H579   H     0.89372   0.88746   0.44446   0.00000  Uiso   1.00
H580   H     0.83155   0.01893   0.30744   0.00000  Uiso   1.00
H581   H     0.32028   0.94977   0.41149   0.00000  Uiso   1.00
H582   H     0.80060   0.79363   0.48477   0.00000  Uiso   1.00
H583   H     0.01545   0.66870   0.36743   0.00000  Uiso   1.00
H584   H     0.94402   0.70779   0.32195   0.00000  Uiso   1.00
H585   H     0.17581   0.67500   0.37130   0.00000  Uiso   1.00
H586   H     0.92936   0.60095   0.40605   0.00000  Uiso   1.00
H587   H     0.86048   0.78638   0.27626   0.00000  Uiso   1.00
H588   H     0.34921   0.71723   0.38031   0.00000  Uiso   1.00
H589   H     0.82952   0.56108   0.45359   0.00000  Uiso   1.00
O590   O     0.79844   0.93328   0.26258   0.00000  Uiso   1.00
O591   O     0.43963   0.84254   0.39910   0.00000  Uiso   1.00
O592   O     0.75781   0.63769   0.49524   0.00000  Uiso   1.00
N593   N     0.84815   0.95883   0.30634   0.00000  Uiso   1.00
N594   N     0.30508   0.89418   0.40362   0.00000  Uiso   1.00
N595   N     0.81924   0.74819   0.47213   0.00000  Uiso   1.00
N596   N     0.86371   0.83370   0.28956   0.00000  Uiso   1.00
N597   N     0.32064   0.76905   0.38684   0.00000  Uiso   1.00
N598   N     0.83480   0.62306   0.45535   0.00000  Uiso   1.00
C599   C     0.01059   0.12192   0.39550   0.00000  Uiso   1.00
C600   C     0.04573   0.13025   0.36683   0.00000  Uiso   1.00
C601   C     0.08394   0.06755   0.35207   0.00000  Uiso   1.00
C602   C     0.11188   0.08762   0.32618   0.00000  Uiso   1.00
C603   C     0.16792   0.08838   0.28329   0.00000  Uiso   1.00
C604   C     0.91979   0.14806   0.39364   0.00000  Uiso   1.00
C605   C     0.85211   0.10034   0.40142   0.00000  Uiso   1.00
C606   C     0.77404   0.13542   0.39810   0.00000  Uiso   1.00
C607   C     0.63456   0.16386   0.39684   0.00000  Uiso   1.00
C608   C     0.05370   0.18829   0.41252   0.00000  Uiso   1.00
C609   C     0.09860   0.17440   0.43618   0.00000  Uiso   1.00
C610   C     0.13325   0.24335   0.44875   0.00000  Uiso   1.00
C611   C     0.20168   0.33425   0.47681   0.00000  Uiso   1.00
C612   C     0.99229   0.26907   0.37577   0.00000  Uiso   1.00
C613   C     0.03579   0.21018   0.35612   0.00000  Uiso   1.00
C614   C     0.06368   0.23035   0.33024   0.00000  Uiso   1.00
C615   C     0.10192   0.16769   0.31544   0.00000  Uiso   1.00
C616   C     0.90985   0.22799   0.38292   0.00000  Uiso   1.00
C617   C     0.83186   0.26315   0.37959   0.00000  Uiso   1.00
C618   C     0.76408   0.21549   0.38736   0.00000  Uiso   1.00
C619   C     0.04376   0.26822   0.40180   0.00000  Uiso   1.00
C620   C     0.07835   0.33721   0.41434   0.00000  Uiso   1.00
C621   C     0.12329   0.32342   0.43802   0.00000  Uiso   1.00
H622   H     0.01833   0.05969   0.40385   0.00000  Uiso   1.00
H623   H     0.09161   0.00570   0.36037   0.00000  Uiso   1.00
H624   H     0.85983   0.03849   0.40971   0.00000  Uiso   1.00
H625   H     0.10628   0.11254   0.44446   0.00000  Uiso   1.00
H626   H     0.16845   0.98107   0.30744   0.00000  Uiso   1.00
H627   H     0.67972   0.05023   0.41149   0.00000  Uiso   1.00
H628   H     0.19940   0.20637   0.48477   0.00000  Uiso   1.00
H629   H     0.98455   0.33130   0.36743   0.00000  Uiso   1.00
H630   H     0.05598   0.29221   0.32195   0.00000  Uiso   1.00
H631   H     0.82419   0.32500   0.37130   0.00000  Uiso   1.00
H632   H     0.07064   0.39905   0.40605   0.00000  Uiso   1.00
H633   H     0.13952   0.21362   0.27626   0.00000  Uiso   1.00
H634   H     0.65079   0.28277   0.38031   0.00000  Uiso   1.00
H635   H     0.17048   0.43892   0.45359   0.00000  Uiso   1.00
O636   O     0.20156   0.06672   0.26258   0.00000  Uiso   1.00
O637   O     0.56037   0.15746   0.39910   0.00000  Uiso   1.00
O638   O     0.24219   0.36231   0.49524   0.00000  Uiso   1.00
N639   N     0.15185   0.04117   0.30634   0.00000  Uiso   1.00
N640   N     0.69492   0.10582   0.40362   0.00000  Uiso   1.00
N641   N     0.18076   0.25181   0.47213   0.00000  Uiso   1.00
N642   N     0.13629   0.16630   0.28956   0.00000  Uiso   1.00
N643   N     0.67936   0.23095   0.38684   0.00000  Uiso   1.00
N644   N     0.16520   0.37694   0.45535   0.00000  Uiso   1.00
C645   C     0.37808   0.51059   0.39550   0.00000  Uiso   1.00
C646   C     0.36975   0.54573   0.36683   0.00000  Uiso   1.00
C647   C     0.43245   0.58394   0.35207   0.00000  Uiso   1.00
C648   C     0.41238   0.61188   0.32618   0.00000  Uiso   1.00
C649   C     0.41162   0.66792   0.28329   0.00000  Uiso   1.00
C650   C     0.35194   0.41979   0.39364   0.00000  Uiso   1.00
C651   C     0.39966   0.35211   0.40142   0.00000  Uiso   1.00
C652   C     0.36458   0.27404   0.39810   0.00000  Uiso   1.00
C653   C     0.33614   0.13456   0.39684   0.00000  Uiso   1.00
C654   C     0.31171   0.55370   0.41252   0.00000  Uiso   1.00
C655   C     0.32560   0.59860   0.43618   0.00000  Uiso   1.00
C656   C     0.25665   0.63325   0.44875   0.00000  Uiso   1.00
C657   C     0.16575   0.70168   0.47681   0.00000  Uiso   1.00
C658   C     0.23093   0.49229   0.37577   0.00000  Uiso   1.00
C659   C     0.28982   0.53579   0.35612   0.00000  Uiso   1.00
C660   C     0.26965   0.56368   0.33024   0.00000  Uiso   1.00
C661   C     0.33231   0.60192   0.31544   0.00000  Uiso   1.00
C662   C     0.27201   0.40985   0.38292   0.00000  Uiso   1.00
C663   C     0.23685   0.33186   0.37959   0.00000  Uiso   1.00
C664   C     0.28451   0.26408   0.38736   0.00000  Uiso   1.00
C665   C     0.23178   0.54376   0.40180   0.00000  Uiso   1.00
C666   C     0.16279   0.57835   0.41434   0.00000  Uiso   1.00
C667   C     0.17658   0.62329   0.43802   0.00000  Uiso   1.00
H668   H     0.44031   0.51833   0.40385   0.00000  Uiso   1.00
H669   H     0.49430   0.59161   0.36037   0.00000  Uiso   1.00
H670   H     0.46151   0.35983   0.40971   0.00000  Uiso   1.00
H671   H     0.38746   0.60628   0.44446   0.00000  Uiso   1.00
H672   H     0.51893   0.66845   0.30744   0.00000  Uiso   1.00
H673   H     0.44977   0.17972   0.41149   0.00000  Uiso   1.00
H674   H     0.29363   0.69940   0.48477   0.00000  Uiso   1.00
H675   H     0.16870   0.48455   0.36743   0.00000  Uiso   1.00
H676   H     0.20779   0.55598   0.32195   0.00000  Uiso   1.00
H677   H     0.17500   0.32419   0.37130   0.00000  Uiso   1.00
H678   H     0.10095   0.57064   0.40605   0.00000  Uiso   1.00
H679   H     0.28638   0.63952   0.27626   0.00000  Uiso   1.00
H680   H     0.21723   0.15079   0.38031   0.00000  Uiso   1.00
H681   H     0.06108   0.67048   0.45359   0.00000  Uiso   1.00
O682   O     0.43328   0.70156   0.26258   0.00000  Uiso   1.00
O683   O     0.34254   0.06037   0.39910   0.00000  Uiso   1.00
O684   O     0.13769   0.74219   0.49524   0.00000  Uiso   1.00
N685   N     0.45883   0.65185   0.30634   0.00000  Uiso   1.00
N686   N     0.39418   0.19492   0.40362   0.00000  Uiso   1.00
N687   N     0.24819   0.68076   0.47213   0.00000  Uiso   1.00
N688   N     0.33370   0.63629   0.28956   0.00000  Uiso   1.00
N689   N     0.26905   0.17936   0.38684   0.00000  Uiso   1.00
N690   N     0.12306   0.66520   0.45535   0.00000  Uiso   1.00
C691   C     0.62192   0.48941   0.39550   0.00000  Uiso   1.00
C692   C     0.63025   0.45427   0.36683   0.00000  Uiso   1.00
C693   C     0.56755   0.41606   0.35207   0.00000  Uiso   1.00
C694   C     0.58762   0.38812   0.32618   0.00000  Uiso   1.00
C695   C     0.58838   0.33208   0.28329   0.00000  Uiso   1.00
C696   C     0.64806   0.58021   0.39364   0.00000  Uiso   1.00
C697   C     0.60034   0.64789   0.40142   0.00000  Uiso   1.00
C698   C     0.63542   0.72596   0.39810   0.00000  Uiso   1.00
C699   C     0.66386   0.86544   0.39684   0.00000  Uiso   1.00
C700   C     0.68829   0.44630   0.41252   0.00000  Uiso   1.00
C701   C     0.67440   0.40140   0.43618   0.00000  Uiso   1.00
C702   C     0.74335   0.36675   0.44875   0.00000  Uiso   1.00
C703   C     0.83425   0.29832   0.47681   0.00000  Uiso   1.00
C704   C     0.76907   0.50771   0.37577   0.00000  Uiso   1.00
C705   C     0.71018   0.46421   0.35612   0.00000  Uiso   1.00
C706   C     0.73035   0.43632   0.33024   0.00000  Uiso   1.00
C707   C     0.66769   0.39808   0.31544   0.00000  Uiso   1.00
C708   C     0.72799   0.59015   0.38292   0.00000  Uiso   1.00
C709   C     0.76315   0.66814   0.37959   0.00000  Uiso   1.00
C710   C     0.71549   0.73592   0.38736   0.00000  Uiso   1.00
C711   C     0.76822   0.45624   0.40180   0.00000  Uiso   1.00
C712   C     0.83721   0.42165   0.41434   0.00000  Uiso   1.00
C713   C     0.82342   0.37671   0.43802   0.00000  Uiso   1.00
H714   H     0.55969   0.48167   0.40385   0.00000  Uiso   1.00
H715   H     0.50570   0.40839   0.36037   0.00000  Uiso   1.00
H716   H     0.53849   0.64017   0.40971   0.00000  Uiso   1.00
H717   H     0.61254   0.39372   0.44446   0.00000  Uiso   1.00
H718   H     0.48107   0.33155   0.30744   0.00000  Uiso   1.00
H719   H     0.55023   0.82028   0.41149   0.00000  Uiso   1.00
H720   H     0.70637   0.30060   0.48477   0.00000  Uiso   1.00
H721   H     0.83130   0.51545   0.36743   0.00000  Uiso   1.00
H722   H     0.79221   0.44402   0.32195   0.00000  Uiso   1.00
H723   H     0.82500   0.67581   0.37130   0.00000  Uiso   1.00
H724   H     0.89905   0.42936   0.40605   0.00000  Uiso   1.00
H725   H     0.71362   0.36048   0.27626   0.00000  Uiso   1.00
H726   H     0.78277   0.84921   0.38031   0.00000  Uiso   1.00
H727   H     0.93892   0.32952   0.45359   0.00000  Uiso   1.00
O728   O     0.56672   0.29844   0.26258   0.00000  Uiso   1.00
O729   O     0.65746   0.93963   0.39910   0.00000  Uiso   1.00
O730   O     0.86231   0.25781   0.49524   0.00000  Uiso   1.00
N731   N     0.54117   0.34815   0.30634   0.00000  Uiso   1.00
N732   N     0.60582   0.80508   0.40362   0.00000  Uiso   1.00
N733   N     0.75181   0.31924   0.47213   0.00000  Uiso   1.00
N734   N     0.66630   0.36371   0.28956   0.00000  Uiso   1.00
N735   N     0.73095   0.82064   0.38684   0.00000  Uiso   1.00
N736   N     0.87694   0.33480   0.45535   0.00000  Uiso   1.00
