data_job_07097
_audit_creation_date              2018-12-19
_audit_creation_method            'Materials Studio'
_symmetry_space_group_name_H-M    'P1'
_symmetry_Int_Tables_number       1
_symmetry_cell_setting            triclinic
loop_
_symmetry_equiv_pos_as_xyz
  x,y,z
_cell_length_a                    29.6296
_cell_length_b                    39.6103
_cell_length_c                    23.5177
_cell_angle_alpha                 90.0000
_cell_angle_beta                  110.1815
_cell_angle_gamma                 90.0000
loop_
_atom_site_label
_atom_site_type_symbol
_atom_site_fract_x
_atom_site_fract_y
_atom_site_fract_z
_atom_site_U_iso_or_equiv
_atom_site_adp_type
_atom_site_occupancy
C1     C     0.67657   0.91755   0.59806   0.00000  Uiso   1.00
C2     C     0.64107   0.92656   0.62968   0.00000  Uiso   1.00
C3     C     0.65304   0.93550   0.69015   0.00000  Uiso   1.00
C4     C     0.61533   0.94282   0.71042   0.00000  Uiso   1.00
C5     C     0.56751   0.95703   0.76542   0.00000  Uiso   1.00
C6     C     0.66224   0.88249   0.57108   0.00000  Uiso   1.00
C7     C     0.69200   0.85439   0.58227   0.00000  Uiso   1.00
C8     C     0.67210   0.82462   0.55320   0.00000  Uiso   1.00
C9     C     0.65715   0.77042   0.51720   0.00000  Uiso   1.00
C10    C     0.66590   0.94161   0.54440   0.00000  Uiso   1.00
C11    C     0.69874   0.96320   0.53316   0.00000  Uiso   1.00
C12    C     0.68192   0.98320   0.48162   0.00000  Uiso   1.00
C13    C     0.67265   0.02078   0.40420   0.00000  Uiso   1.00
C14    C     0.58830   0.91465   0.52651   0.00000  Uiso   1.00
C15    C     0.59313   0.92498   0.59081   0.00000  Uiso   1.00
C16    C     0.55539   0.93229   0.61099   0.00000  Uiso   1.00
C17    C     0.56730   0.94125   0.67148   0.00000  Uiso   1.00
C18    C     0.61430   0.88092   0.53222   0.00000  Uiso   1.00
C19    C     0.59435   0.85118   0.50312   0.00000  Uiso   1.00
C20    C     0.62407   0.82304   0.51427   0.00000  Uiso   1.00
C21    C     0.61795   0.94003   0.50554   0.00000  Uiso   1.00
C22    C     0.60108   0.95999   0.45400   0.00000  Uiso   1.00
C23    C     0.63389   0.98162   0.44269   0.00000  Uiso   1.00
H24    H     0.71389   0.91878   0.62832   0.00000  Uiso   1.00
H25    H     0.69015   0.93672   0.72021   0.00000  Uiso   1.00
H26    H     0.72910   0.85562   0.61235   0.00000  Uiso   1.00
H27    H     0.73584   0.96442   0.56324   0.00000  Uiso   1.00
H28    H     0.64268   0.95590   0.80496   0.00000  Uiso   1.00
H29    H     0.72482   0.78490   0.57751   0.00000  Uiso   1.00
H30    H     0.73903   0.01432   0.47396   0.00000  Uiso   1.00
H31    H     0.55097   0.91342   0.49626   0.00000  Uiso   1.00
H32    H     0.51829   0.93107   0.58091   0.00000  Uiso   1.00
H33    H     0.55725   0.84997   0.47304   0.00000  Uiso   1.00
H34    H     0.56398   0.95877   0.42394   0.00000  Uiso   1.00
H35    H     0.50320   0.95132   0.69190   0.00000  Uiso   1.00
H36    H     0.58534   0.78032   0.46444   0.00000  Uiso   1.00
H37    H     0.59954   0.00974   0.36090   0.00000  Uiso   1.00
O38    O     0.55438   0.96530   0.80650   0.00000  Uiso   1.00
O39    O     0.66215   0.74096   0.50808   0.00000  Uiso   1.00
O40    O     0.68078   0.04196   0.37224   0.00000  Uiso   1.00
N41    N     0.61434   0.95241   0.76673   0.00000  Uiso   1.00
N42    N     0.69114   0.79253   0.55408   0.00000  Uiso   1.00
N43    N     0.70442   0.00701   0.45727   0.00000  Uiso   1.00
N44    N     0.53928   0.94994   0.70589   0.00000  Uiso   1.00
N45    N     0.61608   0.79006   0.49324   0.00000  Uiso   1.00
N46    N     0.62936   0.00455   0.39643   0.00000  Uiso   1.00
C47    C     0.62961   0.59006   0.57172   0.00000  Uiso   1.00
C48    C     0.61765   0.55544   0.54193   0.00000  Uiso   1.00
C49    C     0.64279   0.52581   0.56323   0.00000  Uiso   1.00
C50    C     0.62613   0.49677   0.52946   0.00000  Uiso   1.00
C51    C     0.61372   0.44292   0.49128   0.00000  Uiso   1.00
C52    C     0.63596   0.61353   0.52363   0.00000  Uiso   1.00
C53    C     0.67650   0.63275   0.52955   0.00000  Uiso   1.00
C54    C     0.67525   0.65261   0.48038   0.00000  Uiso   1.00
C55    C     0.69126   0.68897   0.41381   0.00000  Uiso   1.00
C56    C     0.58430   0.60197   0.58253   0.00000  Uiso   1.00
C57    C     0.58139   0.61147   0.63796   0.00000  Uiso   1.00
C58    C     0.53665   0.62160   0.63838   0.00000  Uiso   1.00
C59    C     0.47243   0.64001   0.66325   0.00000  Uiso   1.00
C60    C     0.55531   0.59117   0.47388   0.00000  Uiso   1.00
C61    C     0.57729   0.55604   0.48879   0.00000  Uiso   1.00
C62    C     0.56059   0.52703   0.45498   0.00000  Uiso   1.00
C63    C     0.58570   0.49736   0.47622   0.00000  Uiso   1.00
C64    C     0.59561   0.61413   0.47049   0.00000  Uiso   1.00
C65    C     0.59430   0.63397   0.42130   0.00000  Uiso   1.00
C66    C     0.63483   0.65321   0.42714   0.00000  Uiso   1.00
C67    C     0.54394   0.60257   0.52939   0.00000  Uiso   1.00
C68    C     0.49919   0.61269   0.52972   0.00000  Uiso   1.00
C69    C     0.49622   0.62220   0.58514   0.00000  Uiso   1.00
H70    H     0.66103   0.58960   0.61309   0.00000  Uiso   1.00
H71    H     0.67403   0.52536   0.60435   0.00000  Uiso   1.00
H72    H     0.70773   0.63228   0.57068   0.00000  Uiso   1.00
H73    H     0.61263   0.61100   0.67908   0.00000  Uiso   1.00
H74    H     0.67065   0.45441   0.57122   0.00000  Uiso   1.00
H75    H     0.74170   0.67987   0.50023   0.00000  Uiso   1.00
H76    H     0.54118   0.63500   0.72881   0.00000  Uiso   1.00
H77    H     0.52389   0.59163   0.43250   0.00000  Uiso   1.00
H78    H     0.52936   0.52751   0.41386   0.00000  Uiso   1.00
H79    H     0.56306   0.63443   0.38019   0.00000  Uiso   1.00
H80    H     0.46796   0.61315   0.48858   0.00000  Uiso   1.00
H81    H     0.55323   0.45615   0.41661   0.00000  Uiso   1.00
H82    H     0.62429   0.68161   0.34562   0.00000  Uiso   1.00
H83    H     0.42376   0.63674   0.57420   0.00000  Uiso   1.00
O84    O     0.61803   0.41306   0.48490   0.00000  Uiso   1.00
O85    O     0.71124   0.70886   0.39177   0.00000  Uiso   1.00
O86    O     0.44815   0.64999   0.69166   0.00000  Uiso   1.00
N87    N     0.64226   0.46362   0.53740   0.00000  Uiso   1.00
N88    N     0.70869   0.67440   0.47103   0.00000  Uiso   1.00
N89    N     0.52122   0.63246   0.68472   0.00000  Uiso   1.00
N90    N     0.57908   0.46455   0.45420   0.00000  Uiso   1.00
N91    N     0.64551   0.67534   0.38783   0.00000  Uiso   1.00
N92    N     0.45804   0.63340   0.60153   0.00000  Uiso   1.00
C93    C     0.80881   0.72981   0.22431   0.00000  Uiso   1.00
C94    C     0.81030   0.75334   0.17366   0.00000  Uiso   1.00
C95    C     0.85157   0.76571   0.16581   0.00000  Uiso   1.00
C96    C     0.84532   0.78691   0.11666   0.00000  Uiso   1.00
C97    C     0.85461   0.82216   0.04409   0.00000  Uiso   1.00
C98    C     0.77845   0.74775   0.25586   0.00000  Uiso   1.00
C99    C     0.79294   0.75543   0.31713   0.00000  Uiso   1.00
C100   C     0.75988   0.77192   0.33717   0.00000  Uiso   1.00
C101   C     0.71971   0.79848   0.39223   0.00000  Uiso   1.00
C102   C     0.77978   0.69906   0.19316   0.00000  Uiso   1.00
C103   C     0.79538   0.66580   0.20172   0.00000  Uiso   1.00
C104   C     0.76343   0.64130   0.16899   0.00000  Uiso   1.00
C105   C     0.72532   0.59226   0.12670   0.00000  Uiso   1.00
C106   C     0.72430   0.74545   0.15097   0.00000  Uiso   1.00
C107   C     0.76439   0.76183   0.13382   0.00000  Uiso   1.00
C108   C     0.75808   0.78301   0.08467   0.00000  Uiso   1.00
C109   C     0.79934   0.79542   0.07675   0.00000  Uiso   1.00
C110   C     0.73255   0.75625   0.21603   0.00000  Uiso   1.00
C111   C     0.69945   0.77273   0.23599   0.00000  Uiso   1.00
C112   C     0.71389   0.78043   0.29727   0.00000  Uiso   1.00
C113   C     0.73387   0.70756   0.15332   0.00000  Uiso   1.00
C114   C     0.70189   0.68310   0.12058   0.00000  Uiso   1.00
C115   C     0.71745   0.64981   0.12909   0.00000  Uiso   1.00
H116   H     0.84454   0.72320   0.25532   0.00000  Uiso   1.00
H117   H     0.88709   0.75914   0.19665   0.00000  Uiso   1.00
H118   H     0.82846   0.74885   0.34794   0.00000  Uiso   1.00
H119   H     0.83090   0.65924   0.23255   0.00000  Uiso   1.00
H120   H     0.91401   0.80274   0.11405   0.00000  Uiso   1.00
H121   H     0.79040   0.78104   0.43306   0.00000  Uiso   1.00
H122   H     0.79554   0.59207   0.18974   0.00000  Uiso   1.00
H123   H     0.68857   0.75206   0.11996   0.00000  Uiso   1.00
H124   H     0.72255   0.78958   0.05385   0.00000  Uiso   1.00
H125   H     0.66393   0.77929   0.20515   0.00000  Uiso   1.00
H126   H     0.66637   0.68968   0.08976   0.00000  Uiso   1.00
H127   H     0.78047   0.82745   0.99815   0.00000  Uiso   1.00
H128   H     0.65686   0.80575   0.31716   0.00000  Uiso   1.00
H129   H     0.66200   0.61678   0.07384   0.00000  Uiso   1.00
O130   O     0.87241   0.83926   0.01507   0.00000  Uiso   1.00
O131   O     0.71024   0.81079   0.43360   0.00000  Uiso   1.00
O132   O     0.71699   0.56287   0.11437   0.00000  Uiso   1.00
N133   N     0.87792   0.80340   0.09583   0.00000  Uiso   1.00
N134   N     0.76235   0.78312   0.39409   0.00000  Uiso   1.00
N135   N     0.76716   0.60645   0.16662   0.00000  Uiso   1.00
N136   N     0.80606   0.81669   0.03347   0.00000  Uiso   1.00
N137   N     0.69049   0.79641   0.33173   0.00000  Uiso   1.00
N138   N     0.69530   0.61974   0.10426   0.00000  Uiso   1.00
C139   C     0.17657   0.41755   0.59806   0.00000  Uiso   1.00
C140   C     0.14107   0.42656   0.62968   0.00000  Uiso   1.00
C141   C     0.15304   0.43550   0.69015   0.00000  Uiso   1.00
C142   C     0.11533   0.44282   0.71042   0.00000  Uiso   1.00
C143   C     0.06751   0.45703   0.76542   0.00000  Uiso   1.00
C144   C     0.16224   0.38249   0.57108   0.00000  Uiso   1.00
C145   C     0.19200   0.35439   0.58227   0.00000  Uiso   1.00
C146   C     0.17210   0.32462   0.55320   0.00000  Uiso   1.00
C147   C     0.15715   0.27042   0.51720   0.00000  Uiso   1.00
C148   C     0.16590   0.44161   0.54440   0.00000  Uiso   1.00
C149   C     0.19874   0.46320   0.53316   0.00000  Uiso   1.00
C150   C     0.18192   0.48320   0.48162   0.00000  Uiso   1.00
C151   C     0.17265   0.52078   0.40420   0.00000  Uiso   1.00
C152   C     0.08830   0.41465   0.52651   0.00000  Uiso   1.00
C153   C     0.09313   0.42498   0.59081   0.00000  Uiso   1.00
C154   C     0.05539   0.43229   0.61099   0.00000  Uiso   1.00
C155   C     0.06730   0.44125   0.67148   0.00000  Uiso   1.00
C156   C     0.11430   0.38092   0.53222   0.00000  Uiso   1.00
C157   C     0.09435   0.35118   0.50312   0.00000  Uiso   1.00
C158   C     0.12407   0.32304   0.51427   0.00000  Uiso   1.00
C159   C     0.11795   0.44003   0.50554   0.00000  Uiso   1.00
C160   C     0.10108   0.45999   0.45400   0.00000  Uiso   1.00
C161   C     0.13389   0.48162   0.44269   0.00000  Uiso   1.00
H162   H     0.21389   0.41878   0.62832   0.00000  Uiso   1.00
H163   H     0.19015   0.43672   0.72021   0.00000  Uiso   1.00
H164   H     0.22910   0.35562   0.61235   0.00000  Uiso   1.00
H165   H     0.23584   0.46442   0.56324   0.00000  Uiso   1.00
H166   H     0.14268   0.45590   0.80496   0.00000  Uiso   1.00
H167   H     0.22482   0.28490   0.57751   0.00000  Uiso   1.00
H168   H     0.23903   0.51432   0.47396   0.00000  Uiso   1.00
H169   H     0.05097   0.41342   0.49626   0.00000  Uiso   1.00
H170   H     0.01829   0.43107   0.58091   0.00000  Uiso   1.00
H171   H     0.05725   0.34997   0.47304   0.00000  Uiso   1.00
H172   H     0.06398   0.45877   0.42394   0.00000  Uiso   1.00
H173   H     0.00320   0.45132   0.69190   0.00000  Uiso   1.00
H174   H     0.08534   0.28032   0.46444   0.00000  Uiso   1.00
H175   H     0.09954   0.50974   0.36090   0.00000  Uiso   1.00
O176   O     0.05438   0.46530   0.80650   0.00000  Uiso   1.00
O177   O     0.16215   0.24096   0.50808   0.00000  Uiso   1.00
O178   O     0.18078   0.54196   0.37224   0.00000  Uiso   1.00
N179   N     0.11434   0.45241   0.76673   0.00000  Uiso   1.00
N180   N     0.19114   0.29253   0.55408   0.00000  Uiso   1.00
N181   N     0.20442   0.50701   0.45727   0.00000  Uiso   1.00
N182   N     0.03928   0.44994   0.70589   0.00000  Uiso   1.00
N183   N     0.11608   0.29006   0.49324   0.00000  Uiso   1.00
N184   N     0.12936   0.50455   0.39643   0.00000  Uiso   1.00
C185   C     0.12961   0.09006   0.57172   0.00000  Uiso   1.00
C186   C     0.11765   0.05544   0.54193   0.00000  Uiso   1.00
C187   C     0.14279   0.02581   0.56323   0.00000  Uiso   1.00
C188   C     0.12613   0.99677   0.52946   0.00000  Uiso   1.00
C189   C     0.11372   0.94292   0.49128   0.00000  Uiso   1.00
C190   C     0.13596   0.11353   0.52363   0.00000  Uiso   1.00
C191   C     0.17650   0.13275   0.52955   0.00000  Uiso   1.00
C192   C     0.17525   0.15261   0.48038   0.00000  Uiso   1.00
C193   C     0.19126   0.18897   0.41381   0.00000  Uiso   1.00
C194   C     0.08430   0.10197   0.58253   0.00000  Uiso   1.00
C195   C     0.08139   0.11147   0.63796   0.00000  Uiso   1.00
C196   C     0.03665   0.12160   0.63838   0.00000  Uiso   1.00
C197   C     0.97243   0.14001   0.66325   0.00000  Uiso   1.00
C198   C     0.05531   0.09117   0.47388   0.00000  Uiso   1.00
C199   C     0.07729   0.05604   0.48879   0.00000  Uiso   1.00
C200   C     0.06059   0.02703   0.45498   0.00000  Uiso   1.00
C201   C     0.08570   0.99736   0.47622   0.00000  Uiso   1.00
C202   C     0.09561   0.11413   0.47049   0.00000  Uiso   1.00
C203   C     0.09430   0.13397   0.42130   0.00000  Uiso   1.00
C204   C     0.13483   0.15321   0.42714   0.00000  Uiso   1.00
C205   C     0.04394   0.10257   0.52939   0.00000  Uiso   1.00
C206   C     0.99919   0.11269   0.52972   0.00000  Uiso   1.00
C207   C     0.99622   0.12220   0.58514   0.00000  Uiso   1.00
H208   H     0.16103   0.08960   0.61309   0.00000  Uiso   1.00
H209   H     0.17403   0.02536   0.60435   0.00000  Uiso   1.00
H210   H     0.20773   0.13228   0.57068   0.00000  Uiso   1.00
H211   H     0.11263   0.11100   0.67908   0.00000  Uiso   1.00
H212   H     0.17065   0.95441   0.57122   0.00000  Uiso   1.00
H213   H     0.24170   0.17987   0.50023   0.00000  Uiso   1.00
H214   H     0.04118   0.13500   0.72881   0.00000  Uiso   1.00
H215   H     0.02389   0.09163   0.43250   0.00000  Uiso   1.00
H216   H     0.02936   0.02751   0.41386   0.00000  Uiso   1.00
H217   H     0.06306   0.13443   0.38019   0.00000  Uiso   1.00
H218   H     0.96796   0.11315   0.48858   0.00000  Uiso   1.00
H219   H     0.05323   0.95615   0.41661   0.00000  Uiso   1.00
H220   H     0.12429   0.18161   0.34562   0.00000  Uiso   1.00
H221   H     0.92376   0.13674   0.57420   0.00000  Uiso   1.00
O222   O     0.11803   0.91306   0.48490   0.00000  Uiso   1.00
O223   O     0.21124   0.20886   0.39177   0.00000  Uiso   1.00
O224   O     0.94815   0.14999   0.69166   0.00000  Uiso   1.00
N225   N     0.14226   0.96362   0.53740   0.00000  Uiso   1.00
N226   N     0.20869   0.17440   0.47103   0.00000  Uiso   1.00
N227   N     0.02122   0.13246   0.68472   0.00000  Uiso   1.00
N228   N     0.07908   0.96455   0.45420   0.00000  Uiso   1.00
N229   N     0.14551   0.17534   0.38783   0.00000  Uiso   1.00
N230   N     0.95804   0.13340   0.60153   0.00000  Uiso   1.00
C231   C     0.30881   0.22981   0.22431   0.00000  Uiso   1.00
C232   C     0.31030   0.25334   0.17366   0.00000  Uiso   1.00
C233   C     0.35157   0.26571   0.16581   0.00000  Uiso   1.00
C234   C     0.34532   0.28691   0.11666   0.00000  Uiso   1.00
C235   C     0.35461   0.32216   0.04409   0.00000  Uiso   1.00
C236   C     0.27845   0.24775   0.25586   0.00000  Uiso   1.00
C237   C     0.29294   0.25543   0.31713   0.00000  Uiso   1.00
C238   C     0.25988   0.27192   0.33717   0.00000  Uiso   1.00
C239   C     0.21971   0.29848   0.39223   0.00000  Uiso   1.00
C240   C     0.27978   0.19906   0.19316   0.00000  Uiso   1.00
C241   C     0.29538   0.16580   0.20172   0.00000  Uiso   1.00
C242   C     0.26343   0.14130   0.16899   0.00000  Uiso   1.00
C243   C     0.22532   0.09226   0.12670   0.00000  Uiso   1.00
C244   C     0.22430   0.24545   0.15097   0.00000  Uiso   1.00
C245   C     0.26439   0.26183   0.13382   0.00000  Uiso   1.00
C246   C     0.25808   0.28301   0.08467   0.00000  Uiso   1.00
C247   C     0.29934   0.29542   0.07675   0.00000  Uiso   1.00
C248   C     0.23255   0.25625   0.21603   0.00000  Uiso   1.00
C249   C     0.19945   0.27273   0.23599   0.00000  Uiso   1.00
C250   C     0.21389   0.28043   0.29727   0.00000  Uiso   1.00
C251   C     0.23387   0.20756   0.15332   0.00000  Uiso   1.00
C252   C     0.20189   0.18310   0.12058   0.00000  Uiso   1.00
C253   C     0.21745   0.14981   0.12909   0.00000  Uiso   1.00
H254   H     0.34454   0.22320   0.25532   0.00000  Uiso   1.00
H255   H     0.38709   0.25914   0.19665   0.00000  Uiso   1.00
H256   H     0.32846   0.24885   0.34794   0.00000  Uiso   1.00
H257   H     0.33090   0.15924   0.23255   0.00000  Uiso   1.00
H258   H     0.41401   0.30274   0.11405   0.00000  Uiso   1.00
H259   H     0.29040   0.28104   0.43306   0.00000  Uiso   1.00
H260   H     0.29554   0.09207   0.18974   0.00000  Uiso   1.00
H261   H     0.18857   0.25206   0.11996   0.00000  Uiso   1.00
H262   H     0.22255   0.28958   0.05385   0.00000  Uiso   1.00
H263   H     0.16393   0.27929   0.20515   0.00000  Uiso   1.00
H264   H     0.16637   0.18968   0.08976   0.00000  Uiso   1.00
H265   H     0.28047   0.32745   0.99815   0.00000  Uiso   1.00
H266   H     0.15686   0.30575   0.31716   0.00000  Uiso   1.00
H267   H     0.16200   0.11678   0.07384   0.00000  Uiso   1.00
O268   O     0.37241   0.33926   0.01507   0.00000  Uiso   1.00
O269   O     0.21024   0.31079   0.43360   0.00000  Uiso   1.00
O270   O     0.21699   0.06287   0.11437   0.00000  Uiso   1.00
N271   N     0.37792   0.30340   0.09583   0.00000  Uiso   1.00
N272   N     0.26235   0.28312   0.39409   0.00000  Uiso   1.00
N273   N     0.26716   0.10645   0.16662   0.00000  Uiso   1.00
N274   N     0.30606   0.31669   0.03347   0.00000  Uiso   1.00
N275   N     0.19049   0.29641   0.33173   0.00000  Uiso   1.00
N276   N     0.19530   0.11974   0.10426   0.00000  Uiso   1.00
C277   C     0.32343   0.91755   0.90194   0.00000  Uiso   1.00
C278   C     0.35893   0.92656   0.87032   0.00000  Uiso   1.00
C279   C     0.34696   0.93550   0.80985   0.00000  Uiso   1.00
C280   C     0.38467   0.94282   0.78958   0.00000  Uiso   1.00
C281   C     0.43249   0.95703   0.73458   0.00000  Uiso   1.00
C282   C     0.33776   0.88249   0.92892   0.00000  Uiso   1.00
C283   C     0.30800   0.85439   0.91773   0.00000  Uiso   1.00
C284   C     0.32790   0.82462   0.94680   0.00000  Uiso   1.00
C285   C     0.34285   0.77042   0.98280   0.00000  Uiso   1.00
C286   C     0.33410   0.94161   0.95560   0.00000  Uiso   1.00
C287   C     0.30126   0.96320   0.96684   0.00000  Uiso   1.00
C288   C     0.31808   0.98320   0.01838   0.00000  Uiso   1.00
C289   C     0.32735   0.02078   0.09580   0.00000  Uiso   1.00
C290   C     0.41170   0.91465   0.97349   0.00000  Uiso   1.00
C291   C     0.40687   0.92498   0.90919   0.00000  Uiso   1.00
C292   C     0.44461   0.93229   0.88901   0.00000  Uiso   1.00
C293   C     0.43270   0.94125   0.82852   0.00000  Uiso   1.00
C294   C     0.38570   0.88092   0.96778   0.00000  Uiso   1.00
C295   C     0.40565   0.85118   0.99688   0.00000  Uiso   1.00
C296   C     0.37593   0.82304   0.98573   0.00000  Uiso   1.00
C297   C     0.38205   0.94003   0.99446   0.00000  Uiso   1.00
C298   C     0.39892   0.95999   0.04600   0.00000  Uiso   1.00
C299   C     0.36611   0.98162   0.05731   0.00000  Uiso   1.00
H300   H     0.28611   0.91878   0.87168   0.00000  Uiso   1.00
H301   H     0.30985   0.93672   0.77979   0.00000  Uiso   1.00
H302   H     0.27090   0.85562   0.88765   0.00000  Uiso   1.00
H303   H     0.26416   0.96442   0.93676   0.00000  Uiso   1.00
H304   H     0.35732   0.95590   0.69504   0.00000  Uiso   1.00
H305   H     0.27518   0.78490   0.92249   0.00000  Uiso   1.00
H306   H     0.26097   0.01432   0.02604   0.00000  Uiso   1.00
H307   H     0.44903   0.91342   0.00374   0.00000  Uiso   1.00
H308   H     0.48171   0.93107   0.91909   0.00000  Uiso   1.00
H309   H     0.44275   0.84997   0.02696   0.00000  Uiso   1.00
H310   H     0.43602   0.95877   0.07606   0.00000  Uiso   1.00
H311   H     0.49680   0.95132   0.80810   0.00000  Uiso   1.00
H312   H     0.41466   0.78032   0.03556   0.00000  Uiso   1.00
H313   H     0.40046   0.00974   0.13910   0.00000  Uiso   1.00
O314   O     0.44562   0.96530   0.69350   0.00000  Uiso   1.00
O315   O     0.33785   0.74096   0.99192   0.00000  Uiso   1.00
O316   O     0.31922   0.04196   0.12776   0.00000  Uiso   1.00
N317   N     0.38566   0.95241   0.73327   0.00000  Uiso   1.00
N318   N     0.30886   0.79253   0.94592   0.00000  Uiso   1.00
N319   N     0.29558   0.00701   0.04273   0.00000  Uiso   1.00
N320   N     0.46072   0.94994   0.79411   0.00000  Uiso   1.00
N321   N     0.38392   0.79006   0.00676   0.00000  Uiso   1.00
N322   N     0.37064   0.00455   0.10357   0.00000  Uiso   1.00
C323   C     0.37039   0.59006   0.92828   0.00000  Uiso   1.00
C324   C     0.38235   0.55544   0.95807   0.00000  Uiso   1.00
C325   C     0.35721   0.52581   0.93677   0.00000  Uiso   1.00
C326   C     0.37387   0.49677   0.97054   0.00000  Uiso   1.00
C327   C     0.38628   0.44292   0.00872   0.00000  Uiso   1.00
C328   C     0.36404   0.61353   0.97637   0.00000  Uiso   1.00
C329   C     0.32350   0.63275   0.97045   0.00000  Uiso   1.00
C330   C     0.32475   0.65261   0.01962   0.00000  Uiso   1.00
C331   C     0.30874   0.68897   0.08619   0.00000  Uiso   1.00
C332   C     0.41570   0.60197   0.91747   0.00000  Uiso   1.00
C333   C     0.41861   0.61147   0.86204   0.00000  Uiso   1.00
C334   C     0.46335   0.62160   0.86162   0.00000  Uiso   1.00
C335   C     0.52757   0.64001   0.83675   0.00000  Uiso   1.00
C336   C     0.44469   0.59117   0.02612   0.00000  Uiso   1.00
C337   C     0.42271   0.55604   0.01121   0.00000  Uiso   1.00
C338   C     0.43941   0.52703   0.04502   0.00000  Uiso   1.00
C339   C     0.41430   0.49736   0.02378   0.00000  Uiso   1.00
C340   C     0.40439   0.61413   0.02951   0.00000  Uiso   1.00
C341   C     0.40570   0.63397   0.07870   0.00000  Uiso   1.00
C342   C     0.36517   0.65321   0.07286   0.00000  Uiso   1.00
C343   C     0.45606   0.60257   0.97061   0.00000  Uiso   1.00
C344   C     0.50081   0.61269   0.97028   0.00000  Uiso   1.00
C345   C     0.50378   0.62220   0.91486   0.00000  Uiso   1.00
H346   H     0.33897   0.58960   0.88691   0.00000  Uiso   1.00
H347   H     0.32597   0.52536   0.89565   0.00000  Uiso   1.00
H348   H     0.29227   0.63228   0.92932   0.00000  Uiso   1.00
H349   H     0.38737   0.61100   0.82092   0.00000  Uiso   1.00
H350   H     0.32935   0.45441   0.92878   0.00000  Uiso   1.00
H351   H     0.25830   0.67987   0.99977   0.00000  Uiso   1.00
H352   H     0.45882   0.63500   0.77119   0.00000  Uiso   1.00
H353   H     0.47611   0.59163   0.06750   0.00000  Uiso   1.00
H354   H     0.47064   0.52751   0.08614   0.00000  Uiso   1.00
H355   H     0.43694   0.63443   0.11981   0.00000  Uiso   1.00
H356   H     0.53204   0.61315   0.01142   0.00000  Uiso   1.00
H357   H     0.44677   0.45615   0.08339   0.00000  Uiso   1.00
H358   H     0.37571   0.68161   0.15438   0.00000  Uiso   1.00
H359   H     0.57624   0.63674   0.92580   0.00000  Uiso   1.00
O360   O     0.38197   0.41306   0.01510   0.00000  Uiso   1.00
O361   O     0.28876   0.70886   0.10823   0.00000  Uiso   1.00
O362   O     0.55185   0.64999   0.80834   0.00000  Uiso   1.00
N363   N     0.35774   0.46362   0.96260   0.00000  Uiso   1.00
N364   N     0.29131   0.67440   0.02897   0.00000  Uiso   1.00
N365   N     0.47878   0.63246   0.81528   0.00000  Uiso   1.00
N366   N     0.42092   0.46455   0.04580   0.00000  Uiso   1.00
N367   N     0.35449   0.67534   0.11217   0.00000  Uiso   1.00
N368   N     0.54196   0.63340   0.89847   0.00000  Uiso   1.00
C369   C     0.19119   0.72981   0.27569   0.00000  Uiso   1.00
C370   C     0.18970   0.75334   0.32634   0.00000  Uiso   1.00
C371   C     0.14843   0.76571   0.33419   0.00000  Uiso   1.00
C372   C     0.15468   0.78691   0.38334   0.00000  Uiso   1.00
C373   C     0.14539   0.82216   0.45591   0.00000  Uiso   1.00
C374   C     0.22155   0.74775   0.24414   0.00000  Uiso   1.00
C375   C     0.20706   0.75543   0.18287   0.00000  Uiso   1.00
C376   C     0.24012   0.77192   0.16283   0.00000  Uiso   1.00
C377   C     0.28029   0.79848   0.10777   0.00000  Uiso   1.00
C378   C     0.22022   0.69906   0.30684   0.00000  Uiso   1.00
C379   C     0.20462   0.66580   0.29828   0.00000  Uiso   1.00
C380   C     0.23657   0.64130   0.33101   0.00000  Uiso   1.00
C381   C     0.27468   0.59226   0.37330   0.00000  Uiso   1.00
C382   C     0.27570   0.74545   0.34903   0.00000  Uiso   1.00
C383   C     0.23561   0.76183   0.36618   0.00000  Uiso   1.00
C384   C     0.24192   0.78301   0.41533   0.00000  Uiso   1.00
C385   C     0.20066   0.79542   0.42325   0.00000  Uiso   1.00
C386   C     0.26745   0.75625   0.28397   0.00000  Uiso   1.00
C387   C     0.30055   0.77273   0.26401   0.00000  Uiso   1.00
C388   C     0.28611   0.78043   0.20273   0.00000  Uiso   1.00
C389   C     0.26613   0.70756   0.34668   0.00000  Uiso   1.00
C390   C     0.29811   0.68310   0.37942   0.00000  Uiso   1.00
C391   C     0.28255   0.64981   0.37091   0.00000  Uiso   1.00
H392   H     0.15546   0.72320   0.24468   0.00000  Uiso   1.00
H393   H     0.11291   0.75914   0.30335   0.00000  Uiso   1.00
H394   H     0.17154   0.74885   0.15206   0.00000  Uiso   1.00
H395   H     0.16910   0.65924   0.26745   0.00000  Uiso   1.00
H396   H     0.08599   0.80274   0.38595   0.00000  Uiso   1.00
H397   H     0.20960   0.78104   0.06694   0.00000  Uiso   1.00
H398   H     0.20446   0.59207   0.31026   0.00000  Uiso   1.00
H399   H     0.31143   0.75206   0.38004   0.00000  Uiso   1.00
H400   H     0.27745   0.78958   0.44615   0.00000  Uiso   1.00
H401   H     0.33607   0.77929   0.29485   0.00000  Uiso   1.00
H402   H     0.33363   0.68968   0.41024   0.00000  Uiso   1.00
H403   H     0.21953   0.82745   0.50185   0.00000  Uiso   1.00
H404   H     0.34314   0.80575   0.18284   0.00000  Uiso   1.00
H405   H     0.33800   0.61678   0.42616   0.00000  Uiso   1.00
O406   O     0.12759   0.83926   0.48493   0.00000  Uiso   1.00
O407   O     0.28976   0.81079   0.06640   0.00000  Uiso   1.00
O408   O     0.28301   0.56287   0.38563   0.00000  Uiso   1.00
N409   N     0.12208   0.80340   0.40417   0.00000  Uiso   1.00
N410   N     0.23765   0.78312   0.10591   0.00000  Uiso   1.00
N411   N     0.23284   0.60645   0.33338   0.00000  Uiso   1.00
N412   N     0.19394   0.81669   0.46653   0.00000  Uiso   1.00
N413   N     0.30951   0.79641   0.16827   0.00000  Uiso   1.00
N414   N     0.30470   0.61974   0.39574   0.00000  Uiso   1.00
C415   C     0.82343   0.41755   0.90194   0.00000  Uiso   1.00
C416   C     0.85893   0.42656   0.87032   0.00000  Uiso   1.00
C417   C     0.84696   0.43550   0.80985   0.00000  Uiso   1.00
C418   C     0.88467   0.44282   0.78958   0.00000  Uiso   1.00
C419   C     0.93249   0.45703   0.73458   0.00000  Uiso   1.00
C420   C     0.83776   0.38249   0.92892   0.00000  Uiso   1.00
C421   C     0.80800   0.35439   0.91773   0.00000  Uiso   1.00
C422   C     0.82790   0.32462   0.94680   0.00000  Uiso   1.00
C423   C     0.84285   0.27042   0.98280   0.00000  Uiso   1.00
C424   C     0.83410   0.44161   0.95560   0.00000  Uiso   1.00
C425   C     0.80126   0.46320   0.96684   0.00000  Uiso   1.00
C426   C     0.81808   0.48320   0.01838   0.00000  Uiso   1.00
C427   C     0.82735   0.52078   0.09580   0.00000  Uiso   1.00
C428   C     0.91170   0.41465   0.97349   0.00000  Uiso   1.00
C429   C     0.90687   0.42498   0.90919   0.00000  Uiso   1.00
C430   C     0.94461   0.43229   0.88901   0.00000  Uiso   1.00
C431   C     0.93270   0.44125   0.82852   0.00000  Uiso   1.00
C432   C     0.88570   0.38092   0.96778   0.00000  Uiso   1.00
C433   C     0.90565   0.35118   0.99688   0.00000  Uiso   1.00
C434   C     0.87593   0.32304   0.98573   0.00000  Uiso   1.00
C435   C     0.88205   0.44003   0.99446   0.00000  Uiso   1.00
C436   C     0.89892   0.45999   0.04600   0.00000  Uiso   1.00
C437   C     0.86611   0.48162   0.05731   0.00000  Uiso   1.00
H438   H     0.78611   0.41878   0.87168   0.00000  Uiso   1.00
H439   H     0.80985   0.43672   0.77979   0.00000  Uiso   1.00
H440   H     0.77090   0.35562   0.88765   0.00000  Uiso   1.00
H441   H     0.76416   0.46442   0.93676   0.00000  Uiso   1.00
H442   H     0.85732   0.45590   0.69504   0.00000  Uiso   1.00
H443   H     0.77518   0.28490   0.92249   0.00000  Uiso   1.00
H444   H     0.76097   0.51432   0.02604   0.00000  Uiso   1.00
H445   H     0.94903   0.41342   0.00374   0.00000  Uiso   1.00
H446   H     0.98171   0.43107   0.91909   0.00000  Uiso   1.00
H447   H     0.94275   0.34997   0.02696   0.00000  Uiso   1.00
H448   H     0.93602   0.45877   0.07606   0.00000  Uiso   1.00
H449   H     0.99680   0.45132   0.80810   0.00000  Uiso   1.00
H450   H     0.91466   0.28032   0.03556   0.00000  Uiso   1.00
H451   H     0.90046   0.50974   0.13910   0.00000  Uiso   1.00
O452   O     0.94562   0.46530   0.69350   0.00000  Uiso   1.00
O453   O     0.83785   0.24096   0.99192   0.00000  Uiso   1.00
O454   O     0.81922   0.54196   0.12776   0.00000  Uiso   1.00
N455   N     0.88566   0.45241   0.73327   0.00000  Uiso   1.00
N456   N     0.80886   0.29253   0.94592   0.00000  Uiso   1.00
N457   N     0.79558   0.50701   0.04273   0.00000  Uiso   1.00
N458   N     0.96072   0.44994   0.79411   0.00000  Uiso   1.00
N459   N     0.88392   0.29006   0.00676   0.00000  Uiso   1.00
N460   N     0.87064   0.50455   0.10357   0.00000  Uiso   1.00
C461   C     0.87039   0.09006   0.92828   0.00000  Uiso   1.00
C462   C     0.88235   0.05544   0.95807   0.00000  Uiso   1.00
C463   C     0.85721   0.02581   0.93677   0.00000  Uiso   1.00
C464   C     0.87387   0.99677   0.97054   0.00000  Uiso   1.00
C465   C     0.88628   0.94292   0.00872   0.00000  Uiso   1.00
C466   C     0.86404   0.11353   0.97637   0.00000  Uiso   1.00
C467   C     0.82350   0.13275   0.97045   0.00000  Uiso   1.00
C468   C     0.82475   0.15261   0.01962   0.00000  Uiso   1.00
C469   C     0.80874   0.18897   0.08619   0.00000  Uiso   1.00
C470   C     0.91570   0.10197   0.91747   0.00000  Uiso   1.00
C471   C     0.91861   0.11147   0.86204   0.00000  Uiso   1.00
C472   C     0.96335   0.12160   0.86162   0.00000  Uiso   1.00
C473   C     0.02757   0.14001   0.83675   0.00000  Uiso   1.00
C474   C     0.94469   0.09117   0.02612   0.00000  Uiso   1.00
C475   C     0.92271   0.05604   0.01121   0.00000  Uiso   1.00
C476   C     0.93941   0.02703   0.04502   0.00000  Uiso   1.00
C477   C     0.91430   0.99736   0.02378   0.00000  Uiso   1.00
C478   C     0.90439   0.11413   0.02951   0.00000  Uiso   1.00
C479   C     0.90570   0.13397   0.07870   0.00000  Uiso   1.00
C480   C     0.86517   0.15321   0.07286   0.00000  Uiso   1.00
C481   C     0.95606   0.10257   0.97061   0.00000  Uiso   1.00
C482   C     0.00081   0.11269   0.97028   0.00000  Uiso   1.00
C483   C     0.00378   0.12220   0.91486   0.00000  Uiso   1.00
H484   H     0.83897   0.08960   0.88691   0.00000  Uiso   1.00
H485   H     0.82597   0.02536   0.89565   0.00000  Uiso   1.00
H486   H     0.79227   0.13228   0.92932   0.00000  Uiso   1.00
H487   H     0.88737   0.11100   0.82092   0.00000  Uiso   1.00
H488   H     0.82935   0.95441   0.92878   0.00000  Uiso   1.00
H489   H     0.75830   0.17987   0.99977   0.00000  Uiso   1.00
H490   H     0.95882   0.13500   0.77119   0.00000  Uiso   1.00
H491   H     0.97611   0.09163   0.06750   0.00000  Uiso   1.00
H492   H     0.97064   0.02751   0.08614   0.00000  Uiso   1.00
H493   H     0.93694   0.13443   0.11981   0.00000  Uiso   1.00
H494   H     0.03204   0.11315   0.01142   0.00000  Uiso   1.00
H495   H     0.94677   0.95615   0.08339   0.00000  Uiso   1.00
H496   H     0.87571   0.18161   0.15438   0.00000  Uiso   1.00
H497   H     0.07624   0.13674   0.92580   0.00000  Uiso   1.00
O498   O     0.88197   0.91306   0.01510   0.00000  Uiso   1.00
O499   O     0.78876   0.20886   0.10823   0.00000  Uiso   1.00
O500   O     0.05185   0.14999   0.80834   0.00000  Uiso   1.00
N501   N     0.85774   0.96362   0.96260   0.00000  Uiso   1.00
N502   N     0.79131   0.17440   0.02897   0.00000  Uiso   1.00
N503   N     0.97878   0.13246   0.81528   0.00000  Uiso   1.00
N504   N     0.92092   0.96455   0.04580   0.00000  Uiso   1.00
N505   N     0.85449   0.17534   0.11217   0.00000  Uiso   1.00
N506   N     0.04196   0.13340   0.89847   0.00000  Uiso   1.00
C507   C     0.69119   0.22981   0.27569   0.00000  Uiso   1.00
C508   C     0.68970   0.25334   0.32634   0.00000  Uiso   1.00
C509   C     0.64843   0.26571   0.33419   0.00000  Uiso   1.00
C510   C     0.65468   0.28691   0.38334   0.00000  Uiso   1.00
C511   C     0.64539   0.32216   0.45591   0.00000  Uiso   1.00
C512   C     0.72155   0.24775   0.24414   0.00000  Uiso   1.00
C513   C     0.70706   0.25543   0.18287   0.00000  Uiso   1.00
C514   C     0.74012   0.27192   0.16283   0.00000  Uiso   1.00
C515   C     0.78029   0.29848   0.10777   0.00000  Uiso   1.00
C516   C     0.72022   0.19906   0.30684   0.00000  Uiso   1.00
C517   C     0.70462   0.16580   0.29828   0.00000  Uiso   1.00
C518   C     0.73657   0.14130   0.33101   0.00000  Uiso   1.00
C519   C     0.77468   0.09226   0.37330   0.00000  Uiso   1.00
C520   C     0.77570   0.24545   0.34903   0.00000  Uiso   1.00
C521   C     0.73561   0.26183   0.36618   0.00000  Uiso   1.00
C522   C     0.74192   0.28301   0.41533   0.00000  Uiso   1.00
C523   C     0.70066   0.29542   0.42325   0.00000  Uiso   1.00
C524   C     0.76745   0.25625   0.28397   0.00000  Uiso   1.00
C525   C     0.80055   0.27273   0.26401   0.00000  Uiso   1.00
C526   C     0.78611   0.28043   0.20273   0.00000  Uiso   1.00
C527   C     0.76613   0.20756   0.34668   0.00000  Uiso   1.00
C528   C     0.79811   0.18310   0.37942   0.00000  Uiso   1.00
C529   C     0.78255   0.14981   0.37091   0.00000  Uiso   1.00
H530   H     0.65546   0.22320   0.24468   0.00000  Uiso   1.00
H531   H     0.61291   0.25914   0.30335   0.00000  Uiso   1.00
H532   H     0.67154   0.24885   0.15206   0.00000  Uiso   1.00
H533   H     0.66910   0.15924   0.26745   0.00000  Uiso   1.00
H534   H     0.58599   0.30274   0.38595   0.00000  Uiso   1.00
H535   H     0.70960   0.28104   0.06694   0.00000  Uiso   1.00
H536   H     0.70446   0.09207   0.31026   0.00000  Uiso   1.00
H537   H     0.81143   0.25206   0.38004   0.00000  Uiso   1.00
H538   H     0.77745   0.28958   0.44615   0.00000  Uiso   1.00
H539   H     0.83607   0.27929   0.29485   0.00000  Uiso   1.00
H540   H     0.83363   0.18968   0.41024   0.00000  Uiso   1.00
H541   H     0.71953   0.32745   0.50185   0.00000  Uiso   1.00
H542   H     0.84314   0.30575   0.18284   0.00000  Uiso   1.00
H543   H     0.83800   0.11678   0.42616   0.00000  Uiso   1.00
O544   O     0.62759   0.33926   0.48493   0.00000  Uiso   1.00
O545   O     0.78976   0.31079   0.06640   0.00000  Uiso   1.00
O546   O     0.78301   0.06287   0.38563   0.00000  Uiso   1.00
N547   N     0.62208   0.30340   0.40417   0.00000  Uiso   1.00
N548   N     0.73765   0.28312   0.10591   0.00000  Uiso   1.00
N549   N     0.73284   0.10645   0.33338   0.00000  Uiso   1.00
N550   N     0.69394   0.31669   0.46653   0.00000  Uiso   1.00
N551   N     0.80951   0.29641   0.16827   0.00000  Uiso   1.00
N552   N     0.80470   0.11974   0.39574   0.00000  Uiso   1.00
C553   C     0.32343   0.08245   0.40194   0.00000  Uiso   1.00
C554   C     0.35893   0.07344   0.37032   0.00000  Uiso   1.00
C555   C     0.34696   0.06450   0.30985   0.00000  Uiso   1.00
C556   C     0.38467   0.05718   0.28958   0.00000  Uiso   1.00
C557   C     0.43249   0.04297   0.23458   0.00000  Uiso   1.00
C558   C     0.33776   0.11751   0.42892   0.00000  Uiso   1.00
C559   C     0.30800   0.14561   0.41773   0.00000  Uiso   1.00
C560   C     0.32790   0.17538   0.44680   0.00000  Uiso   1.00
C561   C     0.34285   0.22958   0.48280   0.00000  Uiso   1.00
C562   C     0.33410   0.05839   0.45560   0.00000  Uiso   1.00
C563   C     0.30126   0.03680   0.46684   0.00000  Uiso   1.00
C564   C     0.31808   0.01680   0.51838   0.00000  Uiso   1.00
C565   C     0.32735   0.97922   0.59580   0.00000  Uiso   1.00
C566   C     0.41170   0.08535   0.47349   0.00000  Uiso   1.00
C567   C     0.40687   0.07502   0.40919   0.00000  Uiso   1.00
C568   C     0.44461   0.06771   0.38901   0.00000  Uiso   1.00
C569   C     0.43270   0.05875   0.32852   0.00000  Uiso   1.00
C570   C     0.38570   0.11908   0.46778   0.00000  Uiso   1.00
C571   C     0.40565   0.14882   0.49688   0.00000  Uiso   1.00
C572   C     0.37593   0.17696   0.48573   0.00000  Uiso   1.00
C573   C     0.38205   0.05997   0.49446   0.00000  Uiso   1.00
C574   C     0.39892   0.04001   0.54600   0.00000  Uiso   1.00
C575   C     0.36611   0.01838   0.55731   0.00000  Uiso   1.00
H576   H     0.28611   0.08122   0.37168   0.00000  Uiso   1.00
H577   H     0.30985   0.06328   0.27979   0.00000  Uiso   1.00
H578   H     0.27090   0.14438   0.38765   0.00000  Uiso   1.00
H579   H     0.26416   0.03558   0.43676   0.00000  Uiso   1.00
H580   H     0.35732   0.04410   0.19504   0.00000  Uiso   1.00
H581   H     0.27518   0.21510   0.42249   0.00000  Uiso   1.00
H582   H     0.26097   0.98568   0.52604   0.00000  Uiso   1.00
H583   H     0.44903   0.08658   0.50374   0.00000  Uiso   1.00
H584   H     0.48171   0.06893   0.41909   0.00000  Uiso   1.00
H585   H     0.44275   0.15003   0.52696   0.00000  Uiso   1.00
H586   H     0.43602   0.04123   0.57606   0.00000  Uiso   1.00
H587   H     0.49680   0.04868   0.30810   0.00000  Uiso   1.00
H588   H     0.41466   0.21968   0.53556   0.00000  Uiso   1.00
H589   H     0.40046   0.99026   0.63910   0.00000  Uiso   1.00
O590   O     0.44562   0.03470   0.19350   0.00000  Uiso   1.00
O591   O     0.33785   0.25904   0.49192   0.00000  Uiso   1.00
O592   O     0.31922   0.95804   0.62776   0.00000  Uiso   1.00
N593   N     0.38566   0.04759   0.23327   0.00000  Uiso   1.00
N594   N     0.30886   0.20747   0.44592   0.00000  Uiso   1.00
N595   N     0.29558   0.99299   0.54273   0.00000  Uiso   1.00
N596   N     0.46072   0.05006   0.29411   0.00000  Uiso   1.00
N597   N     0.38392   0.20994   0.50676   0.00000  Uiso   1.00
N598   N     0.37064   0.99545   0.60357   0.00000  Uiso   1.00
C599   C     0.37039   0.40994   0.42828   0.00000  Uiso   1.00
C600   C     0.38235   0.44456   0.45807   0.00000  Uiso   1.00
C601   C     0.35721   0.47419   0.43677   0.00000  Uiso   1.00
C602   C     0.37387   0.50323   0.47054   0.00000  Uiso   1.00
C603   C     0.38628   0.55708   0.50872   0.00000  Uiso   1.00
C604   C     0.36404   0.38647   0.47637   0.00000  Uiso   1.00
C605   C     0.32350   0.36725   0.47045   0.00000  Uiso   1.00
C606   C     0.32475   0.34739   0.51962   0.00000  Uiso   1.00
C607   C     0.30874   0.31103   0.58619   0.00000  Uiso   1.00
C608   C     0.41570   0.39803   0.41747   0.00000  Uiso   1.00
C609   C     0.41861   0.38853   0.36204   0.00000  Uiso   1.00
C610   C     0.46335   0.37840   0.36162   0.00000  Uiso   1.00
C611   C     0.52757   0.35999   0.33675   0.00000  Uiso   1.00
C612   C     0.44469   0.40883   0.52612   0.00000  Uiso   1.00
C613   C     0.42271   0.44396   0.51121   0.00000  Uiso   1.00
C614   C     0.43941   0.47297   0.54502   0.00000  Uiso   1.00
C615   C     0.41430   0.50264   0.52378   0.00000  Uiso   1.00
C616   C     0.40439   0.38587   0.52951   0.00000  Uiso   1.00
C617   C     0.40570   0.36603   0.57870   0.00000  Uiso   1.00
C618   C     0.36517   0.34679   0.57286   0.00000  Uiso   1.00
C619   C     0.45606   0.39743   0.47061   0.00000  Uiso   1.00
C620   C     0.50081   0.38731   0.47028   0.00000  Uiso   1.00
C621   C     0.50378   0.37780   0.41486   0.00000  Uiso   1.00
H622   H     0.33897   0.41040   0.38691   0.00000  Uiso   1.00
H623   H     0.32597   0.47464   0.39565   0.00000  Uiso   1.00
H624   H     0.29227   0.36772   0.42932   0.00000  Uiso   1.00
H625   H     0.38737   0.38900   0.32092   0.00000  Uiso   1.00
H626   H     0.32935   0.54559   0.42878   0.00000  Uiso   1.00
H627   H     0.25830   0.32013   0.49977   0.00000  Uiso   1.00
H628   H     0.45882   0.36500   0.27119   0.00000  Uiso   1.00
H629   H     0.47611   0.40837   0.56750   0.00000  Uiso   1.00
H630   H     0.47064   0.47249   0.58614   0.00000  Uiso   1.00
H631   H     0.43694   0.36557   0.61981   0.00000  Uiso   1.00
H632   H     0.53204   0.38685   0.51142   0.00000  Uiso   1.00
H633   H     0.44677   0.54385   0.58339   0.00000  Uiso   1.00
H634   H     0.37571   0.31839   0.65438   0.00000  Uiso   1.00
H635   H     0.57624   0.36326   0.42580   0.00000  Uiso   1.00
O636   O     0.38197   0.58694   0.51510   0.00000  Uiso   1.00
O637   O     0.28876   0.29114   0.60823   0.00000  Uiso   1.00
O638   O     0.55185   0.35001   0.30834   0.00000  Uiso   1.00
N639   N     0.35774   0.53638   0.46260   0.00000  Uiso   1.00
N640   N     0.29131   0.32560   0.52897   0.00000  Uiso   1.00
N641   N     0.47878   0.36754   0.31528   0.00000  Uiso   1.00
N642   N     0.42092   0.53545   0.54580   0.00000  Uiso   1.00
N643   N     0.35449   0.32466   0.61217   0.00000  Uiso   1.00
N644   N     0.54196   0.36660   0.39847   0.00000  Uiso   1.00
C645   C     0.19119   0.27019   0.77569   0.00000  Uiso   1.00
C646   C     0.18970   0.24666   0.82634   0.00000  Uiso   1.00
C647   C     0.14843   0.23429   0.83419   0.00000  Uiso   1.00
C648   C     0.15468   0.21309   0.88334   0.00000  Uiso   1.00
C649   C     0.14539   0.17784   0.95591   0.00000  Uiso   1.00
C650   C     0.22155   0.25225   0.74414   0.00000  Uiso   1.00
C651   C     0.20706   0.24457   0.68287   0.00000  Uiso   1.00
C652   C     0.24012   0.22808   0.66283   0.00000  Uiso   1.00
C653   C     0.28029   0.20152   0.60777   0.00000  Uiso   1.00
C654   C     0.22022   0.30094   0.80684   0.00000  Uiso   1.00
C655   C     0.20462   0.33420   0.79828   0.00000  Uiso   1.00
C656   C     0.23657   0.35870   0.83101   0.00000  Uiso   1.00
C657   C     0.27468   0.40774   0.87330   0.00000  Uiso   1.00
C658   C     0.27570   0.25455   0.84903   0.00000  Uiso   1.00
C659   C     0.23561   0.23817   0.86618   0.00000  Uiso   1.00
C660   C     0.24192   0.21699   0.91533   0.00000  Uiso   1.00
C661   C     0.20066   0.20458   0.92325   0.00000  Uiso   1.00
C662   C     0.26745   0.24375   0.78397   0.00000  Uiso   1.00
C663   C     0.30055   0.22727   0.76401   0.00000  Uiso   1.00
C664   C     0.28611   0.21957   0.70273   0.00000  Uiso   1.00
C665   C     0.26613   0.29244   0.84668   0.00000  Uiso   1.00
C666   C     0.29811   0.31690   0.87942   0.00000  Uiso   1.00
C667   C     0.28255   0.35019   0.87091   0.00000  Uiso   1.00
H668   H     0.15546   0.27680   0.74468   0.00000  Uiso   1.00
H669   H     0.11291   0.24086   0.80335   0.00000  Uiso   1.00
H670   H     0.17154   0.25115   0.65206   0.00000  Uiso   1.00
H671   H     0.16910   0.34076   0.76745   0.00000  Uiso   1.00
H672   H     0.08599   0.19726   0.88595   0.00000  Uiso   1.00
H673   H     0.20960   0.21896   0.56694   0.00000  Uiso   1.00
H674   H     0.20446   0.40793   0.81026   0.00000  Uiso   1.00
H675   H     0.31143   0.24794   0.88004   0.00000  Uiso   1.00
H676   H     0.27745   0.21042   0.94615   0.00000  Uiso   1.00
H677   H     0.33607   0.22071   0.79485   0.00000  Uiso   1.00
H678   H     0.33363   0.31032   0.91024   0.00000  Uiso   1.00
H679   H     0.21953   0.17255   0.00185   0.00000  Uiso   1.00
H680   H     0.34314   0.19425   0.68284   0.00000  Uiso   1.00
H681   H     0.33800   0.38322   0.92616   0.00000  Uiso   1.00
O682   O     0.12759   0.16074   0.98493   0.00000  Uiso   1.00
O683   O     0.28976   0.18921   0.56640   0.00000  Uiso   1.00
O684   O     0.28301   0.43713   0.88563   0.00000  Uiso   1.00
N685   N     0.12208   0.19660   0.90417   0.00000  Uiso   1.00
N686   N     0.23765   0.21688   0.60591   0.00000  Uiso   1.00
N687   N     0.23284   0.39355   0.83338   0.00000  Uiso   1.00
N688   N     0.19394   0.18331   0.96653   0.00000  Uiso   1.00
N689   N     0.30951   0.20359   0.66827   0.00000  Uiso   1.00
N690   N     0.30470   0.38026   0.89574   0.00000  Uiso   1.00
C691   C     0.82343   0.58245   0.40194   0.00000  Uiso   1.00
C692   C     0.85893   0.57344   0.37032   0.00000  Uiso   1.00
C693   C     0.84696   0.56450   0.30985   0.00000  Uiso   1.00
C694   C     0.88467   0.55718   0.28958   0.00000  Uiso   1.00
C695   C     0.93249   0.54297   0.23458   0.00000  Uiso   1.00
C696   C     0.83776   0.61751   0.42892   0.00000  Uiso   1.00
C697   C     0.80800   0.64561   0.41773   0.00000  Uiso   1.00
C698   C     0.82790   0.67538   0.44680   0.00000  Uiso   1.00
C699   C     0.84285   0.72958   0.48280   0.00000  Uiso   1.00
C700   C     0.83410   0.55839   0.45560   0.00000  Uiso   1.00
C701   C     0.80126   0.53680   0.46684   0.00000  Uiso   1.00
C702   C     0.81808   0.51680   0.51838   0.00000  Uiso   1.00
C703   C     0.82735   0.47922   0.59580   0.00000  Uiso   1.00
C704   C     0.91170   0.58535   0.47349   0.00000  Uiso   1.00
C705   C     0.90687   0.57502   0.40919   0.00000  Uiso   1.00
C706   C     0.94461   0.56771   0.38901   0.00000  Uiso   1.00
C707   C     0.93270   0.55875   0.32852   0.00000  Uiso   1.00
C708   C     0.88570   0.61908   0.46778   0.00000  Uiso   1.00
C709   C     0.90565   0.64882   0.49688   0.00000  Uiso   1.00
C710   C     0.87593   0.67696   0.48573   0.00000  Uiso   1.00
C711   C     0.88205   0.55997   0.49446   0.00000  Uiso   1.00
C712   C     0.89892   0.54001   0.54600   0.00000  Uiso   1.00
C713   C     0.86611   0.51838   0.55731   0.00000  Uiso   1.00
H714   H     0.78611   0.58122   0.37168   0.00000  Uiso   1.00
H715   H     0.80985   0.56328   0.27979   0.00000  Uiso   1.00
H716   H     0.77090   0.64438   0.38765   0.00000  Uiso   1.00
H717   H     0.76416   0.53558   0.43676   0.00000  Uiso   1.00
H718   H     0.85732   0.54410   0.19504   0.00000  Uiso   1.00
H719   H     0.77518   0.71510   0.42249   0.00000  Uiso   1.00
H720   H     0.76097   0.48568   0.52604   0.00000  Uiso   1.00
H721   H     0.94903   0.58658   0.50374   0.00000  Uiso   1.00
H722   H     0.98171   0.56893   0.41909   0.00000  Uiso   1.00
H723   H     0.94275   0.65003   0.52696   0.00000  Uiso   1.00
H724   H     0.93602   0.54123   0.57606   0.00000  Uiso   1.00
H725   H     0.99680   0.54868   0.30810   0.00000  Uiso   1.00
H726   H     0.91466   0.71968   0.53556   0.00000  Uiso   1.00
H727   H     0.90046   0.49026   0.63910   0.00000  Uiso   1.00
O728   O     0.94562   0.53470   0.19350   0.00000  Uiso   1.00
O729   O     0.83785   0.75904   0.49192   0.00000  Uiso   1.00
O730   O     0.81922   0.45804   0.62776   0.00000  Uiso   1.00
N731   N     0.88566   0.54759   0.23327   0.00000  Uiso   1.00
N732   N     0.80886   0.70747   0.44592   0.00000  Uiso   1.00
N733   N     0.79558   0.49299   0.54273   0.00000  Uiso   1.00
N734   N     0.96072   0.55006   0.29411   0.00000  Uiso   1.00
N735   N     0.88392   0.70994   0.50676   0.00000  Uiso   1.00
N736   N     0.87064   0.49545   0.60357   0.00000  Uiso   1.00
C737   C     0.87039   0.90994   0.42828   0.00000  Uiso   1.00
C738   C     0.88235   0.94456   0.45807   0.00000  Uiso   1.00
C739   C     0.85721   0.97419   0.43677   0.00000  Uiso   1.00
C740   C     0.87387   0.00323   0.47054   0.00000  Uiso   1.00
C741   C     0.88628   0.05708   0.50872   0.00000  Uiso   1.00
C742   C     0.86404   0.88647   0.47637   0.00000  Uiso   1.00
C743   C     0.82350   0.86725   0.47045   0.00000  Uiso   1.00
C744   C     0.82475   0.84739   0.51962   0.00000  Uiso   1.00
C745   C     0.80874   0.81103   0.58619   0.00000  Uiso   1.00
C746   C     0.91570   0.89803   0.41747   0.00000  Uiso   1.00
C747   C     0.91861   0.88853   0.36204   0.00000  Uiso   1.00
C748   C     0.96335   0.87840   0.36162   0.00000  Uiso   1.00
C749   C     0.02757   0.85999   0.33675   0.00000  Uiso   1.00
C750   C     0.94469   0.90883   0.52612   0.00000  Uiso   1.00
C751   C     0.92271   0.94396   0.51121   0.00000  Uiso   1.00
C752   C     0.93941   0.97297   0.54502   0.00000  Uiso   1.00
C753   C     0.91430   0.00264   0.52378   0.00000  Uiso   1.00
C754   C     0.90439   0.88587   0.52951   0.00000  Uiso   1.00
C755   C     0.90570   0.86603   0.57870   0.00000  Uiso   1.00
C756   C     0.86517   0.84679   0.57286   0.00000  Uiso   1.00
C757   C     0.95606   0.89743   0.47061   0.00000  Uiso   1.00
C758   C     0.00081   0.88731   0.47028   0.00000  Uiso   1.00
C759   C     0.00378   0.87780   0.41486   0.00000  Uiso   1.00
H760   H     0.83897   0.91040   0.38691   0.00000  Uiso   1.00
H761   H     0.82597   0.97464   0.39565   0.00000  Uiso   1.00
H762   H     0.79227   0.86772   0.42932   0.00000  Uiso   1.00
H763   H     0.88737   0.88900   0.32092   0.00000  Uiso   1.00
H764   H     0.82935   0.04559   0.42878   0.00000  Uiso   1.00
H765   H     0.75830   0.82013   0.49977   0.00000  Uiso   1.00
H766   H     0.95882   0.86500   0.27119   0.00000  Uiso   1.00
H767   H     0.97611   0.90837   0.56750   0.00000  Uiso   1.00
H768   H     0.97064   0.97249   0.58614   0.00000  Uiso   1.00
H769   H     0.93694   0.86557   0.61981   0.00000  Uiso   1.00
H770   H     0.03204   0.88685   0.51142   0.00000  Uiso   1.00
H771   H     0.94677   0.04385   0.58339   0.00000  Uiso   1.00
H772   H     0.87571   0.81839   0.65438   0.00000  Uiso   1.00
H773   H     0.07624   0.86326   0.42580   0.00000  Uiso   1.00
O774   O     0.88197   0.08694   0.51510   0.00000  Uiso   1.00
O775   O     0.78876   0.79114   0.60823   0.00000  Uiso   1.00
O776   O     0.05185   0.85001   0.30834   0.00000  Uiso   1.00
N777   N     0.85774   0.03638   0.46260   0.00000  Uiso   1.00
N778   N     0.79131   0.82560   0.52897   0.00000  Uiso   1.00
N779   N     0.97878   0.86754   0.31528   0.00000  Uiso   1.00
N780   N     0.92092   0.03545   0.54580   0.00000  Uiso   1.00
N781   N     0.85449   0.82466   0.61217   0.00000  Uiso   1.00
N782   N     0.04196   0.86660   0.39847   0.00000  Uiso   1.00
C783   C     0.69119   0.77019   0.77569   0.00000  Uiso   1.00
C784   C     0.68970   0.74666   0.82634   0.00000  Uiso   1.00
C785   C     0.64843   0.73429   0.83419   0.00000  Uiso   1.00
C786   C     0.65468   0.71309   0.88334   0.00000  Uiso   1.00
C787   C     0.64539   0.67784   0.95591   0.00000  Uiso   1.00
C788   C     0.72155   0.75225   0.74414   0.00000  Uiso   1.00
C789   C     0.70706   0.74457   0.68287   0.00000  Uiso   1.00
C790   C     0.74012   0.72808   0.66283   0.00000  Uiso   1.00
C791   C     0.78029   0.70152   0.60777   0.00000  Uiso   1.00
C792   C     0.72022   0.80094   0.80684   0.00000  Uiso   1.00
C793   C     0.70462   0.83420   0.79828   0.00000  Uiso   1.00
C794   C     0.73657   0.85870   0.83101   0.00000  Uiso   1.00
C795   C     0.77468   0.90774   0.87330   0.00000  Uiso   1.00
C796   C     0.77570   0.75455   0.84903   0.00000  Uiso   1.00
C797   C     0.73561   0.73817   0.86618   0.00000  Uiso   1.00
C798   C     0.74192   0.71699   0.91533   0.00000  Uiso   1.00
C799   C     0.70066   0.70458   0.92325   0.00000  Uiso   1.00
C800   C     0.76745   0.74375   0.78397   0.00000  Uiso   1.00
C801   C     0.80055   0.72727   0.76401   0.00000  Uiso   1.00
C802   C     0.78611   0.71957   0.70273   0.00000  Uiso   1.00
C803   C     0.76613   0.79244   0.84668   0.00000  Uiso   1.00
C804   C     0.79811   0.81690   0.87942   0.00000  Uiso   1.00
C805   C     0.78255   0.85019   0.87091   0.00000  Uiso   1.00
H806   H     0.65546   0.77680   0.74468   0.00000  Uiso   1.00
H807   H     0.61291   0.74086   0.80335   0.00000  Uiso   1.00
H808   H     0.67154   0.75115   0.65206   0.00000  Uiso   1.00
H809   H     0.66910   0.84076   0.76745   0.00000  Uiso   1.00
H810   H     0.58599   0.69726   0.88595   0.00000  Uiso   1.00
H811   H     0.70960   0.71896   0.56694   0.00000  Uiso   1.00
H812   H     0.70446   0.90793   0.81026   0.00000  Uiso   1.00
H813   H     0.81143   0.74794   0.88004   0.00000  Uiso   1.00
H814   H     0.77745   0.71042   0.94615   0.00000  Uiso   1.00
H815   H     0.83607   0.72071   0.79485   0.00000  Uiso   1.00
H816   H     0.83363   0.81032   0.91024   0.00000  Uiso   1.00
H817   H     0.71953   0.67255   0.00185   0.00000  Uiso   1.00
H818   H     0.84314   0.69425   0.68284   0.00000  Uiso   1.00
H819   H     0.83800   0.88322   0.92616   0.00000  Uiso   1.00
O820   O     0.62759   0.66074   0.98493   0.00000  Uiso   1.00
O821   O     0.78976   0.68921   0.56640   0.00000  Uiso   1.00
O822   O     0.78301   0.93713   0.88563   0.00000  Uiso   1.00
N823   N     0.62208   0.69660   0.90417   0.00000  Uiso   1.00
N824   N     0.73765   0.71688   0.60591   0.00000  Uiso   1.00
N825   N     0.73284   0.89355   0.83338   0.00000  Uiso   1.00
N826   N     0.69394   0.68331   0.96653   0.00000  Uiso   1.00
N827   N     0.80951   0.70359   0.66827   0.00000  Uiso   1.00
N828   N     0.80470   0.88026   0.89574   0.00000  Uiso   1.00
C829   C     0.67657   0.08245   0.09806   0.00000  Uiso   1.00
C830   C     0.64107   0.07344   0.12968   0.00000  Uiso   1.00
C831   C     0.65304   0.06450   0.19015   0.00000  Uiso   1.00
C832   C     0.61533   0.05718   0.21042   0.00000  Uiso   1.00
C833   C     0.56751   0.04297   0.26542   0.00000  Uiso   1.00
C834   C     0.66224   0.11751   0.07108   0.00000  Uiso   1.00
C835   C     0.69200   0.14561   0.08227   0.00000  Uiso   1.00
C836   C     0.67210   0.17538   0.05320   0.00000  Uiso   1.00
C837   C     0.65715   0.22958   0.01720   0.00000  Uiso   1.00
C838   C     0.66590   0.05839   0.04440   0.00000  Uiso   1.00
C839   C     0.69874   0.03680   0.03316   0.00000  Uiso   1.00
C840   C     0.68192   0.01680   0.98162   0.00000  Uiso   1.00
C841   C     0.67265   0.97922   0.90420   0.00000  Uiso   1.00
C842   C     0.58830   0.08535   0.02651   0.00000  Uiso   1.00
C843   C     0.59313   0.07502   0.09081   0.00000  Uiso   1.00
C844   C     0.55539   0.06771   0.11099   0.00000  Uiso   1.00
C845   C     0.56730   0.05875   0.17148   0.00000  Uiso   1.00
C846   C     0.61430   0.11908   0.03222   0.00000  Uiso   1.00
C847   C     0.59435   0.14882   0.00312   0.00000  Uiso   1.00
C848   C     0.62407   0.17696   0.01427   0.00000  Uiso   1.00
C849   C     0.61795   0.05997   0.00554   0.00000  Uiso   1.00
C850   C     0.60108   0.04001   0.95400   0.00000  Uiso   1.00
C851   C     0.63389   0.01838   0.94269   0.00000  Uiso   1.00
H852   H     0.71389   0.08122   0.12832   0.00000  Uiso   1.00
H853   H     0.69015   0.06328   0.22021   0.00000  Uiso   1.00
H854   H     0.72910   0.14438   0.11235   0.00000  Uiso   1.00
H855   H     0.73584   0.03558   0.06324   0.00000  Uiso   1.00
H856   H     0.64268   0.04410   0.30496   0.00000  Uiso   1.00
H857   H     0.72482   0.21510   0.07751   0.00000  Uiso   1.00
H858   H     0.73903   0.98568   0.97396   0.00000  Uiso   1.00
H859   H     0.55097   0.08658   0.99626   0.00000  Uiso   1.00
H860   H     0.51829   0.06893   0.08091   0.00000  Uiso   1.00
H861   H     0.55725   0.15003   0.97304   0.00000  Uiso   1.00
H862   H     0.56398   0.04123   0.92394   0.00000  Uiso   1.00
H863   H     0.50320   0.04868   0.19190   0.00000  Uiso   1.00
H864   H     0.58534   0.21968   0.96444   0.00000  Uiso   1.00
H865   H     0.59954   0.99026   0.86090   0.00000  Uiso   1.00
O866   O     0.55438   0.03470   0.30650   0.00000  Uiso   1.00
O867   O     0.66215   0.25904   0.00808   0.00000  Uiso   1.00
O868   O     0.68078   0.95804   0.87224   0.00000  Uiso   1.00
N869   N     0.61434   0.04759   0.26673   0.00000  Uiso   1.00
N870   N     0.69114   0.20747   0.05408   0.00000  Uiso   1.00
N871   N     0.70442   0.99299   0.95727   0.00000  Uiso   1.00
N872   N     0.53928   0.05006   0.20589   0.00000  Uiso   1.00
N873   N     0.61608   0.20994   0.99324   0.00000  Uiso   1.00
N874   N     0.62936   0.99545   0.89643   0.00000  Uiso   1.00
C875   C     0.62961   0.40994   0.07172   0.00000  Uiso   1.00
C876   C     0.61765   0.44456   0.04193   0.00000  Uiso   1.00
C877   C     0.64279   0.47419   0.06323   0.00000  Uiso   1.00
C878   C     0.62613   0.50323   0.02946   0.00000  Uiso   1.00
C879   C     0.61372   0.55708   0.99128   0.00000  Uiso   1.00
C880   C     0.63596   0.38647   0.02363   0.00000  Uiso   1.00
C881   C     0.67650   0.36725   0.02955   0.00000  Uiso   1.00
C882   C     0.67525   0.34739   0.98038   0.00000  Uiso   1.00
C883   C     0.69126   0.31103   0.91381   0.00000  Uiso   1.00
C884   C     0.58430   0.39803   0.08253   0.00000  Uiso   1.00
C885   C     0.58139   0.38853   0.13796   0.00000  Uiso   1.00
C886   C     0.53665   0.37840   0.13838   0.00000  Uiso   1.00
C887   C     0.47243   0.35999   0.16325   0.00000  Uiso   1.00
C888   C     0.55531   0.40883   0.97388   0.00000  Uiso   1.00
C889   C     0.57729   0.44396   0.98879   0.00000  Uiso   1.00
C890   C     0.56059   0.47297   0.95498   0.00000  Uiso   1.00
C891   C     0.58570   0.50264   0.97622   0.00000  Uiso   1.00
C892   C     0.59561   0.38587   0.97049   0.00000  Uiso   1.00
C893   C     0.59430   0.36603   0.92130   0.00000  Uiso   1.00
C894   C     0.63483   0.34679   0.92714   0.00000  Uiso   1.00
C895   C     0.54394   0.39743   0.02939   0.00000  Uiso   1.00
C896   C     0.49919   0.38731   0.02972   0.00000  Uiso   1.00
C897   C     0.49622   0.37780   0.08514   0.00000  Uiso   1.00
H898   H     0.66103   0.41040   0.11309   0.00000  Uiso   1.00
H899   H     0.67403   0.47464   0.10435   0.00000  Uiso   1.00
H900   H     0.70773   0.36772   0.07068   0.00000  Uiso   1.00
H901   H     0.61263   0.38900   0.17908   0.00000  Uiso   1.00
H902   H     0.67065   0.54559   0.07122   0.00000  Uiso   1.00
H903   H     0.74170   0.32013   0.00023   0.00000  Uiso   1.00
H904   H     0.54118   0.36500   0.22881   0.00000  Uiso   1.00
H905   H     0.52389   0.40837   0.93250   0.00000  Uiso   1.00
H906   H     0.52936   0.47249   0.91386   0.00000  Uiso   1.00
H907   H     0.56306   0.36557   0.88019   0.00000  Uiso   1.00
H908   H     0.46796   0.38685   0.98858   0.00000  Uiso   1.00
H909   H     0.55323   0.54385   0.91661   0.00000  Uiso   1.00
H910   H     0.62429   0.31839   0.84562   0.00000  Uiso   1.00
H911   H     0.42376   0.36326   0.07420   0.00000  Uiso   1.00
O912   O     0.61803   0.58694   0.98490   0.00000  Uiso   1.00
O913   O     0.71124   0.29114   0.89177   0.00000  Uiso   1.00
O914   O     0.44815   0.35001   0.19166   0.00000  Uiso   1.00
N915   N     0.64226   0.53638   0.03740   0.00000  Uiso   1.00
N916   N     0.70869   0.32560   0.97103   0.00000  Uiso   1.00
N917   N     0.52122   0.36754   0.18472   0.00000  Uiso   1.00
N918   N     0.57908   0.53545   0.95420   0.00000  Uiso   1.00
N919   N     0.64551   0.32466   0.88783   0.00000  Uiso   1.00
N920   N     0.45804   0.36660   0.10153   0.00000  Uiso   1.00
C921   C     0.80881   0.27019   0.72431   0.00000  Uiso   1.00
C922   C     0.81030   0.24666   0.67366   0.00000  Uiso   1.00
C923   C     0.85157   0.23429   0.66581   0.00000  Uiso   1.00
C924   C     0.84532   0.21309   0.61666   0.00000  Uiso   1.00
C925   C     0.85461   0.17784   0.54409   0.00000  Uiso   1.00
C926   C     0.77845   0.25225   0.75586   0.00000  Uiso   1.00
C927   C     0.79294   0.24457   0.81713   0.00000  Uiso   1.00
C928   C     0.75988   0.22808   0.83717   0.00000  Uiso   1.00
C929   C     0.71971   0.20152   0.89223   0.00000  Uiso   1.00
C930   C     0.77978   0.30094   0.69316   0.00000  Uiso   1.00
C931   C     0.79538   0.33420   0.70172   0.00000  Uiso   1.00
C932   C     0.76343   0.35870   0.66899   0.00000  Uiso   1.00
C933   C     0.72532   0.40774   0.62670   0.00000  Uiso   1.00
C934   C     0.72430   0.25455   0.65097   0.00000  Uiso   1.00
C935   C     0.76439   0.23817   0.63382   0.00000  Uiso   1.00
C936   C     0.75808   0.21699   0.58467   0.00000  Uiso   1.00
C937   C     0.79934   0.20458   0.57675   0.00000  Uiso   1.00
C938   C     0.73255   0.24375   0.71603   0.00000  Uiso   1.00
C939   C     0.69945   0.22727   0.73599   0.00000  Uiso   1.00
C940   C     0.71389   0.21957   0.79727   0.00000  Uiso   1.00
C941   C     0.73387   0.29244   0.65332   0.00000  Uiso   1.00
C942   C     0.70189   0.31690   0.62058   0.00000  Uiso   1.00
C943   C     0.71745   0.35019   0.62909   0.00000  Uiso   1.00
H944   H     0.84454   0.27680   0.75532   0.00000  Uiso   1.00
H945   H     0.88709   0.24086   0.69665   0.00000  Uiso   1.00
H946   H     0.82846   0.25115   0.84794   0.00000  Uiso   1.00
H947   H     0.83090   0.34076   0.73255   0.00000  Uiso   1.00
H948   H     0.91401   0.19726   0.61405   0.00000  Uiso   1.00
H949   H     0.79040   0.21896   0.93306   0.00000  Uiso   1.00
H950   H     0.79554   0.40793   0.68974   0.00000  Uiso   1.00
H951   H     0.68857   0.24794   0.61996   0.00000  Uiso   1.00
H952   H     0.72255   0.21042   0.55385   0.00000  Uiso   1.00
H953   H     0.66393   0.22071   0.70515   0.00000  Uiso   1.00
H954   H     0.66637   0.31032   0.58976   0.00000  Uiso   1.00
H955   H     0.78047   0.17255   0.49815   0.00000  Uiso   1.00
H956   H     0.65686   0.19425   0.81716   0.00000  Uiso   1.00
H957   H     0.66200   0.38322   0.57384   0.00000  Uiso   1.00
O958   O     0.87241   0.16074   0.51507   0.00000  Uiso   1.00
O959   O     0.71024   0.18921   0.93360   0.00000  Uiso   1.00
O960   O     0.71699   0.43713   0.61437   0.00000  Uiso   1.00
N961   N     0.87792   0.19660   0.59583   0.00000  Uiso   1.00
N962   N     0.76235   0.21688   0.89409   0.00000  Uiso   1.00
N963   N     0.76716   0.39355   0.66662   0.00000  Uiso   1.00
N964   N     0.80606   0.18331   0.53347   0.00000  Uiso   1.00
N965   N     0.69049   0.20359   0.83173   0.00000  Uiso   1.00
N966   N     0.69530   0.38026   0.60426   0.00000  Uiso   1.00
C967   C     0.17657   0.58245   0.09806   0.00000  Uiso   1.00
C968   C     0.14107   0.57344   0.12968   0.00000  Uiso   1.00
C969   C     0.15304   0.56450   0.19015   0.00000  Uiso   1.00
C970   C     0.11533   0.55718   0.21042   0.00000  Uiso   1.00
C971   C     0.06751   0.54297   0.26542   0.00000  Uiso   1.00
C972   C     0.16224   0.61751   0.07108   0.00000  Uiso   1.00
C973   C     0.19200   0.64561   0.08227   0.00000  Uiso   1.00
C974   C     0.17210   0.67538   0.05320   0.00000  Uiso   1.00
C975   C     0.15715   0.72958   0.01720   0.00000  Uiso   1.00
C976   C     0.16590   0.55839   0.04440   0.00000  Uiso   1.00
C977   C     0.19874   0.53680   0.03316   0.00000  Uiso   1.00
C978   C     0.18192   0.51680   0.98162   0.00000  Uiso   1.00
C979   C     0.17265   0.47922   0.90420   0.00000  Uiso   1.00
C980   C     0.08830   0.58535   0.02651   0.00000  Uiso   1.00
C981   C     0.09313   0.57502   0.09081   0.00000  Uiso   1.00
C982   C     0.05539   0.56771   0.11099   0.00000  Uiso   1.00
C983   C     0.06730   0.55875   0.17148   0.00000  Uiso   1.00
C984   C     0.11430   0.61908   0.03222   0.00000  Uiso   1.00
C985   C     0.09435   0.64882   0.00312   0.00000  Uiso   1.00
C986   C     0.12407   0.67696   0.01427   0.00000  Uiso   1.00
C987   C     0.11795   0.55997   0.00554   0.00000  Uiso   1.00
C988   C     0.10108   0.54001   0.95400   0.00000  Uiso   1.00
C989   C     0.13389   0.51838   0.94269   0.00000  Uiso   1.00
H990   H     0.21389   0.58122   0.12832   0.00000  Uiso   1.00
H991   H     0.19015   0.56328   0.22021   0.00000  Uiso   1.00
H992   H     0.22910   0.64438   0.11235   0.00000  Uiso   1.00
H993   H     0.23584   0.53558   0.06324   0.00000  Uiso   1.00
H994   H     0.14268   0.54410   0.30496   0.00000  Uiso   1.00
H995   H     0.22482   0.71510   0.07751   0.00000  Uiso   1.00
H996   H     0.23903   0.48568   0.97396   0.00000  Uiso   1.00
H997   H     0.05097   0.58658   0.99626   0.00000  Uiso   1.00
H998   H     0.01829   0.56893   0.08091   0.00000  Uiso   1.00
H999   H     0.05725   0.65003   0.97304   0.00000  Uiso   1.00
H1000  H     0.06398   0.54123   0.92394   0.00000  Uiso   1.00
H1001  H     0.00320   0.54868   0.19190   0.00000  Uiso   1.00
H1002  H     0.08534   0.71968   0.96444   0.00000  Uiso   1.00
H1003  H     0.09954   0.49026   0.86090   0.00000  Uiso   1.00
O1004  O     0.05438   0.53470   0.30650   0.00000  Uiso   1.00
O1005  O     0.16215   0.75904   0.00808   0.00000  Uiso   1.00
O1006  O     0.18078   0.45804   0.87224   0.00000  Uiso   1.00
N1007  N     0.11434   0.54759   0.26673   0.00000  Uiso   1.00
N1008  N     0.19114   0.70747   0.05408   0.00000  Uiso   1.00
N1009  N     0.20442   0.49299   0.95727   0.00000  Uiso   1.00
N1010  N     0.03928   0.55006   0.20589   0.00000  Uiso   1.00
N1011  N     0.11608   0.70994   0.99324   0.00000  Uiso   1.00
N1012  N     0.12936   0.49545   0.89643   0.00000  Uiso   1.00
C1013  C     0.12961   0.90994   0.07172   0.00000  Uiso   1.00
C1014  C     0.11765   0.94456   0.04193   0.00000  Uiso   1.00
C1015  C     0.14279   0.97419   0.06323   0.00000  Uiso   1.00
C1016  C     0.12613   0.00323   0.02946   0.00000  Uiso   1.00
C1017  C     0.11372   0.05708   0.99128   0.00000  Uiso   1.00
C1018  C     0.13596   0.88647   0.02363   0.00000  Uiso   1.00
C1019  C     0.17650   0.86725   0.02955   0.00000  Uiso   1.00
C1020  C     0.17525   0.84739   0.98038   0.00000  Uiso   1.00
C1021  C     0.19126   0.81103   0.91381   0.00000  Uiso   1.00
C1022  C     0.08430   0.89803   0.08253   0.00000  Uiso   1.00
C1023  C     0.08139   0.88853   0.13796   0.00000  Uiso   1.00
C1024  C     0.03665   0.87840   0.13838   0.00000  Uiso   1.00
C1025  C     0.97243   0.85999   0.16325   0.00000  Uiso   1.00
C1026  C     0.05531   0.90883   0.97388   0.00000  Uiso   1.00
C1027  C     0.07729   0.94396   0.98879   0.00000  Uiso   1.00
C1028  C     0.06059   0.97297   0.95498   0.00000  Uiso   1.00
C1029  C     0.08570   0.00264   0.97622   0.00000  Uiso   1.00
C1030  C     0.09561   0.88587   0.97049   0.00000  Uiso   1.00
C1031  C     0.09430   0.86603   0.92130   0.00000  Uiso   1.00
C1032  C     0.13483   0.84679   0.92714   0.00000  Uiso   1.00
C1033  C     0.04394   0.89743   0.02939   0.00000  Uiso   1.00
C1034  C     0.99919   0.88731   0.02972   0.00000  Uiso   1.00
C1035  C     0.99622   0.87780   0.08514   0.00000  Uiso   1.00
H1036  H     0.16103   0.91040   0.11309   0.00000  Uiso   1.00
H1037  H     0.17403   0.97464   0.10435   0.00000  Uiso   1.00
H1038  H     0.20773   0.86772   0.07068   0.00000  Uiso   1.00
H1039  H     0.11263   0.88900   0.17908   0.00000  Uiso   1.00
H1040  H     0.17065   0.04559   0.07122   0.00000  Uiso   1.00
H1041  H     0.24170   0.82013   0.00023   0.00000  Uiso   1.00
H1042  H     0.04118   0.86500   0.22881   0.00000  Uiso   1.00
H1043  H     0.02389   0.90837   0.93250   0.00000  Uiso   1.00
H1044  H     0.02936   0.97249   0.91386   0.00000  Uiso   1.00
H1045  H     0.06306   0.86557   0.88019   0.00000  Uiso   1.00
H1046  H     0.96796   0.88685   0.98858   0.00000  Uiso   1.00
H1047  H     0.05323   0.04385   0.91661   0.00000  Uiso   1.00
H1048  H     0.12429   0.81839   0.84562   0.00000  Uiso   1.00
H1049  H     0.92376   0.86326   0.07420   0.00000  Uiso   1.00
O1050  O     0.11803   0.08694   0.98490   0.00000  Uiso   1.00
O1051  O     0.21124   0.79114   0.89177   0.00000  Uiso   1.00
O1052  O     0.94815   0.85001   0.19166   0.00000  Uiso   1.00
N1053  N     0.14226   0.03638   0.03740   0.00000  Uiso   1.00
N1054  N     0.20869   0.82560   0.97103   0.00000  Uiso   1.00
N1055  N     0.02122   0.86754   0.18472   0.00000  Uiso   1.00
N1056  N     0.07908   0.03545   0.95420   0.00000  Uiso   1.00
N1057  N     0.14551   0.82466   0.88783   0.00000  Uiso   1.00
N1058  N     0.95804   0.86660   0.10153   0.00000  Uiso   1.00
C1059  C     0.30881   0.77019   0.72431   0.00000  Uiso   1.00
C1060  C     0.31030   0.74666   0.67366   0.00000  Uiso   1.00
C1061  C     0.35157   0.73429   0.66581   0.00000  Uiso   1.00
C1062  C     0.34532   0.71309   0.61666   0.00000  Uiso   1.00
C1063  C     0.35461   0.67784   0.54409   0.00000  Uiso   1.00
C1064  C     0.27845   0.75225   0.75586   0.00000  Uiso   1.00
C1065  C     0.29294   0.74457   0.81713   0.00000  Uiso   1.00
C1066  C     0.25988   0.72808   0.83717   0.00000  Uiso   1.00
C1067  C     0.21971   0.70152   0.89223   0.00000  Uiso   1.00
C1068  C     0.27978   0.80094   0.69316   0.00000  Uiso   1.00
C1069  C     0.29538   0.83420   0.70172   0.00000  Uiso   1.00
C1070  C     0.26343   0.85870   0.66899   0.00000  Uiso   1.00
C1071  C     0.22532   0.90774   0.62670   0.00000  Uiso   1.00
C1072  C     0.22430   0.75455   0.65097   0.00000  Uiso   1.00
C1073  C     0.26439   0.73817   0.63382   0.00000  Uiso   1.00
C1074  C     0.25808   0.71699   0.58467   0.00000  Uiso   1.00
C1075  C     0.29934   0.70458   0.57675   0.00000  Uiso   1.00
C1076  C     0.23255   0.74375   0.71603   0.00000  Uiso   1.00
C1077  C     0.19945   0.72727   0.73599   0.00000  Uiso   1.00
C1078  C     0.21389   0.71957   0.79727   0.00000  Uiso   1.00
C1079  C     0.23387   0.79244   0.65332   0.00000  Uiso   1.00
C1080  C     0.20189   0.81690   0.62058   0.00000  Uiso   1.00
C1081  C     0.21745   0.85019   0.62909   0.00000  Uiso   1.00
H1082  H     0.34454   0.77680   0.75532   0.00000  Uiso   1.00
H1083  H     0.38709   0.74086   0.69665   0.00000  Uiso   1.00
H1084  H     0.32846   0.75115   0.84794   0.00000  Uiso   1.00
H1085  H     0.33090   0.84076   0.73255   0.00000  Uiso   1.00
H1086  H     0.41401   0.69726   0.61405   0.00000  Uiso   1.00
H1087  H     0.29040   0.71896   0.93306   0.00000  Uiso   1.00
H1088  H     0.29554   0.90793   0.68974   0.00000  Uiso   1.00
H1089  H     0.18857   0.74794   0.61996   0.00000  Uiso   1.00
H1090  H     0.22255   0.71042   0.55385   0.00000  Uiso   1.00
H1091  H     0.16393   0.72071   0.70515   0.00000  Uiso   1.00
H1092  H     0.16637   0.81032   0.58976   0.00000  Uiso   1.00
H1093  H     0.28047   0.67255   0.49815   0.00000  Uiso   1.00
H1094  H     0.15686   0.69425   0.81716   0.00000  Uiso   1.00
H1095  H     0.16200   0.88322   0.57384   0.00000  Uiso   1.00
O1096  O     0.37241   0.66074   0.51507   0.00000  Uiso   1.00
O1097  O     0.21024   0.68921   0.93360   0.00000  Uiso   1.00
O1098  O     0.21699   0.93713   0.61437   0.00000  Uiso   1.00
N1099  N     0.37792   0.69660   0.59583   0.00000  Uiso   1.00
N1100  N     0.26235   0.71688   0.89409   0.00000  Uiso   1.00
N1101  N     0.26716   0.89355   0.66662   0.00000  Uiso   1.00
N1102  N     0.30606   0.68331   0.53347   0.00000  Uiso   1.00
N1103  N     0.19049   0.70359   0.83173   0.00000  Uiso   1.00
N1104  N     0.19530   0.88026   0.60426   0.00000  Uiso   1.00
