data_job_03319
_audit_creation_date              2018-12-19
_audit_creation_method            'Materials Studio'
_symmetry_space_group_name_H-M    'P1'
_symmetry_Int_Tables_number       1
_symmetry_cell_setting            triclinic
loop_
_symmetry_equiv_pos_as_xyz
  x,y,z
_cell_length_a                    23.0204
_cell_length_b                    23.0204
_cell_length_c                    20.3505
_cell_angle_alpha                 90.0000
_cell_angle_beta                  90.0000
_cell_angle_gamma                 90.0000
loop_
_atom_site_label
_atom_site_type_symbol
_atom_site_fract_x
_atom_site_fract_y
_atom_site_fract_z
_atom_site_U_iso_or_equiv
_atom_site_adp_type
_atom_site_occupancy
C1     C     0.26220   0.42644   0.02722   0.00000  Uiso   1.00
C2     C     0.28829   0.37223   0.99584   0.00000  Uiso   1.00
C3     C     0.34535   0.36611   0.97498   0.00000  Uiso   1.00
C4     C     0.36072   0.31308   0.94752   0.00000  Uiso   1.00
C5     C     0.40735   0.23580   0.89973   0.00000  Uiso   1.00
C6     C     0.21021   0.44299   0.98474   0.00000  Uiso   1.00
C7     C     0.20162   0.49636   0.95455   0.00000  Uiso   1.00
C8     C     0.15126   0.50291   0.91775   0.00000  Uiso   1.00
C9     C     0.07664   0.53550   0.85276   0.00000  Uiso   1.00
C10    C     0.23728   0.40702   0.09308   0.00000  Uiso   1.00
C11    C     0.25144   0.43015   0.15398   0.00000  Uiso   1.00
C12    C     0.22386   0.40642   0.20839   0.00000  Uiso   1.00
C13    C     0.19127   0.38316   0.31162   0.00000  Uiso   1.00
C14    C     0.18802   0.34316   0.01555   0.00000  Uiso   1.00
C15    C     0.24799   0.32700   0.98951   0.00000  Uiso   1.00
C16    C     0.26328   0.27397   0.96207   0.00000  Uiso   1.00
C17    C     0.32036   0.26776   0.94117   0.00000  Uiso   1.00
C18    C     0.16992   0.39776   0.97840   0.00000  Uiso   1.00
C19    C     0.11955   0.40423   0.94164   0.00000  Uiso   1.00
C20    C     0.11089   0.45759   0.91140   0.00000  Uiso   1.00
C21    C     0.19699   0.36178   0.08674   0.00000  Uiso   1.00
C22    C     0.16937   0.33801   0.14107   0.00000  Uiso   1.00
C23    C     0.18349   0.36110   0.20204   0.00000  Uiso   1.00
H24    H     0.29357   0.46165   0.03215   0.00000  Uiso   1.00
H25    H     0.37652   0.40112   0.97989   0.00000  Uiso   1.00
H26    H     0.23280   0.53136   0.95947   0.00000  Uiso   1.00
H27    H     0.28262   0.46516   0.15887   0.00000  Uiso   1.00
H28    H     0.45071   0.31407   0.91912   0.00000  Uiso   1.00
H29    H     0.14767   0.58869   0.87608   0.00000  Uiso   1.00
H30    H     0.25272   0.44909   0.29656   0.00000  Uiso   1.00
H31    H     0.15665   0.30794   0.01062   0.00000  Uiso   1.00
H32    H     0.23209   0.23897   0.95717   0.00000  Uiso   1.00
H33    H     0.08838   0.36921   0.93675   0.00000  Uiso   1.00
H34    H     0.13820   0.30301   0.13615   0.00000  Uiso   1.00
H35    H     0.33349   0.18246   0.90068   0.00000  Uiso   1.00
H36    H     0.03045   0.45709   0.85765   0.00000  Uiso   1.00
H37    H     0.13550   0.31749   0.27812   0.00000  Uiso   1.00
O38    O     0.44419   0.20568   0.87511   0.00000  Uiso   1.00
O39    O     0.04662   0.56598   0.81866   0.00000  Uiso   1.00
O40    O     0.18444   0.38282   0.37031   0.00000  Uiso   1.00
N41    N     0.41277   0.29256   0.92213   0.00000  Uiso   1.00
N42    N     0.12945   0.54931   0.88188   0.00000  Uiso   1.00
N43    N     0.22765   0.41881   0.27499   0.00000  Uiso   1.00
N44    N     0.34970   0.22174   0.91221   0.00000  Uiso   1.00
N45    N     0.06638   0.47849   0.87196   0.00000  Uiso   1.00
N46    N     0.16458   0.34799   0.26507   0.00000  Uiso   1.00
C47    C     0.76220   0.92644   0.52722   0.00000  Uiso   1.00
C48    C     0.78829   0.87223   0.49584   0.00000  Uiso   1.00
C49    C     0.84535   0.86611   0.47498   0.00000  Uiso   1.00
C50    C     0.86072   0.81308   0.44752   0.00000  Uiso   1.00
C51    C     0.90735   0.73580   0.39973   0.00000  Uiso   1.00
C52    C     0.71021   0.94299   0.48474   0.00000  Uiso   1.00
C53    C     0.70162   0.99636   0.45455   0.00000  Uiso   1.00
C54    C     0.65126   0.00291   0.41775   0.00000  Uiso   1.00
C55    C     0.57664   0.03550   0.35276   0.00000  Uiso   1.00
C56    C     0.73728   0.90702   0.59308   0.00000  Uiso   1.00
C57    C     0.75144   0.93015   0.65398   0.00000  Uiso   1.00
C58    C     0.72386   0.90642   0.70839   0.00000  Uiso   1.00
C59    C     0.69127   0.88316   0.81162   0.00000  Uiso   1.00
C60    C     0.68802   0.84316   0.51555   0.00000  Uiso   1.00
C61    C     0.74799   0.82700   0.48951   0.00000  Uiso   1.00
C62    C     0.76328   0.77397   0.46207   0.00000  Uiso   1.00
C63    C     0.82036   0.76776   0.44117   0.00000  Uiso   1.00
C64    C     0.66992   0.89776   0.47840   0.00000  Uiso   1.00
C65    C     0.61955   0.90423   0.44164   0.00000  Uiso   1.00
C66    C     0.61089   0.95759   0.41140   0.00000  Uiso   1.00
C67    C     0.69699   0.86178   0.58674   0.00000  Uiso   1.00
C68    C     0.66937   0.83801   0.64107   0.00000  Uiso   1.00
C69    C     0.68349   0.86110   0.70204   0.00000  Uiso   1.00
H70    H     0.79357   0.96165   0.53215   0.00000  Uiso   1.00
H71    H     0.87652   0.90112   0.47989   0.00000  Uiso   1.00
H72    H     0.73280   0.03136   0.45947   0.00000  Uiso   1.00
H73    H     0.78262   0.96516   0.65887   0.00000  Uiso   1.00
H74    H     0.95071   0.81407   0.41912   0.00000  Uiso   1.00
H75    H     0.64767   0.08869   0.37608   0.00000  Uiso   1.00
H76    H     0.75272   0.94909   0.79656   0.00000  Uiso   1.00
H77    H     0.65665   0.80794   0.51062   0.00000  Uiso   1.00
H78    H     0.73209   0.73897   0.45717   0.00000  Uiso   1.00
H79    H     0.58838   0.86921   0.43675   0.00000  Uiso   1.00
H80    H     0.63820   0.80301   0.63615   0.00000  Uiso   1.00
H81    H     0.83349   0.68246   0.40068   0.00000  Uiso   1.00
H82    H     0.53045   0.95709   0.35765   0.00000  Uiso   1.00
H83    H     0.63550   0.81749   0.77812   0.00000  Uiso   1.00
O84    O     0.94419   0.70568   0.37511   0.00000  Uiso   1.00
O85    O     0.54662   0.06598   0.31866   0.00000  Uiso   1.00
O86    O     0.68444   0.88282   0.87031   0.00000  Uiso   1.00
N87    N     0.91277   0.79256   0.42213   0.00000  Uiso   1.00
N88    N     0.62945   0.04931   0.38188   0.00000  Uiso   1.00
N89    N     0.72765   0.91881   0.77499   0.00000  Uiso   1.00
N90    N     0.84970   0.72174   0.41221   0.00000  Uiso   1.00
N91    N     0.56638   0.97849   0.37196   0.00000  Uiso   1.00
N92    N     0.66458   0.84799   0.76507   0.00000  Uiso   1.00
C93    C     0.73780   0.57356   0.02722   0.00000  Uiso   1.00
C94    C     0.71171   0.62777   0.99584   0.00000  Uiso   1.00
C95    C     0.65465   0.63389   0.97498   0.00000  Uiso   1.00
C96    C     0.63928   0.68692   0.94752   0.00000  Uiso   1.00
C97    C     0.59265   0.76420   0.89973   0.00000  Uiso   1.00
C98    C     0.78979   0.55701   0.98474   0.00000  Uiso   1.00
C99    C     0.79838   0.50364   0.95455   0.00000  Uiso   1.00
C100   C     0.84874   0.49709   0.91775   0.00000  Uiso   1.00
C101   C     0.92336   0.46450   0.85276   0.00000  Uiso   1.00
C102   C     0.76272   0.59298   0.09308   0.00000  Uiso   1.00
C103   C     0.74856   0.56985   0.15398   0.00000  Uiso   1.00
C104   C     0.77614   0.59358   0.20839   0.00000  Uiso   1.00
C105   C     0.80873   0.61684   0.31162   0.00000  Uiso   1.00
C106   C     0.81198   0.65684   0.01555   0.00000  Uiso   1.00
C107   C     0.75201   0.67300   0.98951   0.00000  Uiso   1.00
C108   C     0.73672   0.72603   0.96207   0.00000  Uiso   1.00
C109   C     0.67964   0.73224   0.94117   0.00000  Uiso   1.00
C110   C     0.83008   0.60224   0.97840   0.00000  Uiso   1.00
C111   C     0.88045   0.59577   0.94164   0.00000  Uiso   1.00
C112   C     0.88911   0.54241   0.91140   0.00000  Uiso   1.00
C113   C     0.80301   0.63822   0.08674   0.00000  Uiso   1.00
C114   C     0.83063   0.66199   0.14107   0.00000  Uiso   1.00
C115   C     0.81651   0.63890   0.20204   0.00000  Uiso   1.00
H116   H     0.70643   0.53835   0.03215   0.00000  Uiso   1.00
H117   H     0.62348   0.59888   0.97989   0.00000  Uiso   1.00
H118   H     0.76720   0.46864   0.95947   0.00000  Uiso   1.00
H119   H     0.71738   0.53484   0.15887   0.00000  Uiso   1.00
H120   H     0.54929   0.68593   0.91912   0.00000  Uiso   1.00
H121   H     0.85233   0.41131   0.87608   0.00000  Uiso   1.00
H122   H     0.74728   0.55091   0.29656   0.00000  Uiso   1.00
H123   H     0.84335   0.69206   0.01062   0.00000  Uiso   1.00
H124   H     0.76791   0.76103   0.95717   0.00000  Uiso   1.00
H125   H     0.91162   0.63079   0.93675   0.00000  Uiso   1.00
H126   H     0.86180   0.69699   0.13615   0.00000  Uiso   1.00
H127   H     0.66651   0.81754   0.90068   0.00000  Uiso   1.00
H128   H     0.96955   0.54291   0.85765   0.00000  Uiso   1.00
H129   H     0.86450   0.68251   0.27812   0.00000  Uiso   1.00
O130   O     0.55581   0.79432   0.87511   0.00000  Uiso   1.00
O131   O     0.95338   0.43402   0.81866   0.00000  Uiso   1.00
O132   O     0.81556   0.61718   0.37031   0.00000  Uiso   1.00
N133   N     0.58723   0.70744   0.92213   0.00000  Uiso   1.00
N134   N     0.87055   0.45069   0.88188   0.00000  Uiso   1.00
N135   N     0.77235   0.58119   0.27499   0.00000  Uiso   1.00
N136   N     0.65030   0.77826   0.91221   0.00000  Uiso   1.00
N137   N     0.93362   0.52151   0.87196   0.00000  Uiso   1.00
N138   N     0.83542   0.65201   0.26507   0.00000  Uiso   1.00
C139   C     0.23780   0.07356   0.52722   0.00000  Uiso   1.00
C140   C     0.21171   0.12777   0.49584   0.00000  Uiso   1.00
C141   C     0.15465   0.13389   0.47498   0.00000  Uiso   1.00
C142   C     0.13928   0.18692   0.44752   0.00000  Uiso   1.00
C143   C     0.09265   0.26420   0.39973   0.00000  Uiso   1.00
C144   C     0.28979   0.05701   0.48474   0.00000  Uiso   1.00
C145   C     0.29838   0.00364   0.45455   0.00000  Uiso   1.00
C146   C     0.34874   0.99709   0.41775   0.00000  Uiso   1.00
C147   C     0.42336   0.96450   0.35276   0.00000  Uiso   1.00
C148   C     0.26272   0.09298   0.59308   0.00000  Uiso   1.00
C149   C     0.24856   0.06985   0.65398   0.00000  Uiso   1.00
C150   C     0.27614   0.09358   0.70839   0.00000  Uiso   1.00
C151   C     0.30873   0.11684   0.81162   0.00000  Uiso   1.00
C152   C     0.31198   0.15684   0.51555   0.00000  Uiso   1.00
C153   C     0.25201   0.17300   0.48951   0.00000  Uiso   1.00
C154   C     0.23672   0.22603   0.46207   0.00000  Uiso   1.00
C155   C     0.17964   0.23224   0.44117   0.00000  Uiso   1.00
C156   C     0.33008   0.10224   0.47840   0.00000  Uiso   1.00
C157   C     0.38045   0.09577   0.44164   0.00000  Uiso   1.00
C158   C     0.38911   0.04241   0.41140   0.00000  Uiso   1.00
C159   C     0.30301   0.13822   0.58674   0.00000  Uiso   1.00
C160   C     0.33063   0.16199   0.64107   0.00000  Uiso   1.00
C161   C     0.31651   0.13890   0.70204   0.00000  Uiso   1.00
H162   H     0.20643   0.03835   0.53215   0.00000  Uiso   1.00
H163   H     0.12348   0.09888   0.47989   0.00000  Uiso   1.00
H164   H     0.26720   0.96864   0.45947   0.00000  Uiso   1.00
H165   H     0.21738   0.03484   0.65887   0.00000  Uiso   1.00
H166   H     0.04929   0.18593   0.41912   0.00000  Uiso   1.00
H167   H     0.35233   0.91131   0.37608   0.00000  Uiso   1.00
H168   H     0.24728   0.05091   0.79656   0.00000  Uiso   1.00
H169   H     0.34335   0.19206   0.51062   0.00000  Uiso   1.00
H170   H     0.26791   0.26103   0.45717   0.00000  Uiso   1.00
H171   H     0.41162   0.13079   0.43675   0.00000  Uiso   1.00
H172   H     0.36180   0.19699   0.63615   0.00000  Uiso   1.00
H173   H     0.16651   0.31754   0.40068   0.00000  Uiso   1.00
H174   H     0.46955   0.04291   0.35765   0.00000  Uiso   1.00
H175   H     0.36450   0.18251   0.77812   0.00000  Uiso   1.00
O176   O     0.05581   0.29432   0.37511   0.00000  Uiso   1.00
O177   O     0.45338   0.93402   0.31866   0.00000  Uiso   1.00
O178   O     0.31556   0.11718   0.87031   0.00000  Uiso   1.00
N179   N     0.08723   0.20744   0.42213   0.00000  Uiso   1.00
N180   N     0.37055   0.95069   0.38188   0.00000  Uiso   1.00
N181   N     0.27235   0.08119   0.77499   0.00000  Uiso   1.00
N182   N     0.15030   0.27826   0.41221   0.00000  Uiso   1.00
N183   N     0.43362   0.02151   0.37196   0.00000  Uiso   1.00
N184   N     0.33542   0.15201   0.76507   0.00000  Uiso   1.00
C185   C     0.42644   0.73780   0.97278   0.00000  Uiso   1.00
C186   C     0.37223   0.71171   0.00416   0.00000  Uiso   1.00
C187   C     0.36611   0.65465   0.02502   0.00000  Uiso   1.00
C188   C     0.31308   0.63928   0.05248   0.00000  Uiso   1.00
C189   C     0.23580   0.59265   0.10027   0.00000  Uiso   1.00
C190   C     0.44299   0.78979   0.01526   0.00000  Uiso   1.00
C191   C     0.49636   0.79838   0.04545   0.00000  Uiso   1.00
C192   C     0.50291   0.84874   0.08225   0.00000  Uiso   1.00
C193   C     0.53550   0.92336   0.14724   0.00000  Uiso   1.00
C194   C     0.40702   0.76272   0.90692   0.00000  Uiso   1.00
C195   C     0.43015   0.74856   0.84602   0.00000  Uiso   1.00
C196   C     0.40642   0.77614   0.79161   0.00000  Uiso   1.00
C197   C     0.38316   0.80873   0.68838   0.00000  Uiso   1.00
C198   C     0.34316   0.81198   0.98445   0.00000  Uiso   1.00
C199   C     0.32700   0.75201   0.01049   0.00000  Uiso   1.00
C200   C     0.27397   0.73672   0.03793   0.00000  Uiso   1.00
C201   C     0.26776   0.67964   0.05883   0.00000  Uiso   1.00
C202   C     0.39776   0.83008   0.02160   0.00000  Uiso   1.00
C203   C     0.40423   0.88045   0.05836   0.00000  Uiso   1.00
C204   C     0.45759   0.88911   0.08860   0.00000  Uiso   1.00
C205   C     0.36178   0.80301   0.91326   0.00000  Uiso   1.00
C206   C     0.33801   0.83063   0.85893   0.00000  Uiso   1.00
C207   C     0.36110   0.81651   0.79796   0.00000  Uiso   1.00
H208   H     0.46165   0.70643   0.96785   0.00000  Uiso   1.00
H209   H     0.40112   0.62348   0.02011   0.00000  Uiso   1.00
H210   H     0.53136   0.76720   0.04053   0.00000  Uiso   1.00
H211   H     0.46516   0.71738   0.84113   0.00000  Uiso   1.00
H212   H     0.31407   0.54929   0.08088   0.00000  Uiso   1.00
H213   H     0.58869   0.85233   0.12392   0.00000  Uiso   1.00
H214   H     0.44909   0.74728   0.70344   0.00000  Uiso   1.00
H215   H     0.30794   0.84335   0.98938   0.00000  Uiso   1.00
H216   H     0.23897   0.76791   0.04283   0.00000  Uiso   1.00
H217   H     0.36921   0.91162   0.06325   0.00000  Uiso   1.00
H218   H     0.30301   0.86180   0.86385   0.00000  Uiso   1.00
H219   H     0.18246   0.66651   0.09932   0.00000  Uiso   1.00
H220   H     0.45709   0.96955   0.14235   0.00000  Uiso   1.00
H221   H     0.31749   0.86450   0.72188   0.00000  Uiso   1.00
O222   O     0.20568   0.55581   0.12489   0.00000  Uiso   1.00
O223   O     0.56598   0.95338   0.18134   0.00000  Uiso   1.00
O224   O     0.38282   0.81556   0.62969   0.00000  Uiso   1.00
N225   N     0.29256   0.58723   0.07787   0.00000  Uiso   1.00
N226   N     0.54931   0.87055   0.11812   0.00000  Uiso   1.00
N227   N     0.41881   0.77235   0.72501   0.00000  Uiso   1.00
N228   N     0.22174   0.65030   0.08779   0.00000  Uiso   1.00
N229   N     0.47849   0.93362   0.12804   0.00000  Uiso   1.00
N230   N     0.34799   0.83542   0.73493   0.00000  Uiso   1.00
C231   C     0.92644   0.23780   0.47278   0.00000  Uiso   1.00
C232   C     0.87223   0.21171   0.50416   0.00000  Uiso   1.00
C233   C     0.86611   0.15465   0.52502   0.00000  Uiso   1.00
C234   C     0.81308   0.13928   0.55248   0.00000  Uiso   1.00
C235   C     0.73580   0.09265   0.60027   0.00000  Uiso   1.00
C236   C     0.94299   0.28979   0.51526   0.00000  Uiso   1.00
C237   C     0.99636   0.29838   0.54545   0.00000  Uiso   1.00
C238   C     0.00291   0.34874   0.58225   0.00000  Uiso   1.00
C239   C     0.03550   0.42336   0.64724   0.00000  Uiso   1.00
C240   C     0.90702   0.26272   0.40692   0.00000  Uiso   1.00
C241   C     0.93015   0.24856   0.34602   0.00000  Uiso   1.00
C242   C     0.90642   0.27614   0.29161   0.00000  Uiso   1.00
C243   C     0.88316   0.30873   0.18838   0.00000  Uiso   1.00
C244   C     0.84316   0.31198   0.48445   0.00000  Uiso   1.00
C245   C     0.82700   0.25201   0.51049   0.00000  Uiso   1.00
C246   C     0.77397   0.23672   0.53793   0.00000  Uiso   1.00
C247   C     0.76776   0.17964   0.55883   0.00000  Uiso   1.00
C248   C     0.89776   0.33008   0.52160   0.00000  Uiso   1.00
C249   C     0.90423   0.38045   0.55836   0.00000  Uiso   1.00
C250   C     0.95759   0.38911   0.58860   0.00000  Uiso   1.00
C251   C     0.86178   0.30301   0.41326   0.00000  Uiso   1.00
C252   C     0.83801   0.33063   0.35893   0.00000  Uiso   1.00
C253   C     0.86110   0.31651   0.29796   0.00000  Uiso   1.00
H254   H     0.96165   0.20643   0.46785   0.00000  Uiso   1.00
H255   H     0.90112   0.12348   0.52011   0.00000  Uiso   1.00
H256   H     0.03136   0.26720   0.54053   0.00000  Uiso   1.00
H257   H     0.96516   0.21738   0.34113   0.00000  Uiso   1.00
H258   H     0.81407   0.04929   0.58088   0.00000  Uiso   1.00
H259   H     0.08869   0.35233   0.62392   0.00000  Uiso   1.00
H260   H     0.94909   0.24728   0.20344   0.00000  Uiso   1.00
H261   H     0.80794   0.34335   0.48938   0.00000  Uiso   1.00
H262   H     0.73897   0.26791   0.54283   0.00000  Uiso   1.00
H263   H     0.86921   0.41162   0.56325   0.00000  Uiso   1.00
H264   H     0.80301   0.36180   0.36385   0.00000  Uiso   1.00
H265   H     0.68246   0.16651   0.59932   0.00000  Uiso   1.00
H266   H     0.95709   0.46955   0.64235   0.00000  Uiso   1.00
H267   H     0.81749   0.36450   0.22188   0.00000  Uiso   1.00
O268   O     0.70568   0.05581   0.62489   0.00000  Uiso   1.00
O269   O     0.06598   0.45338   0.68134   0.00000  Uiso   1.00
O270   O     0.88282   0.31556   0.12969   0.00000  Uiso   1.00
N271   N     0.79256   0.08723   0.57787   0.00000  Uiso   1.00
N272   N     0.04931   0.37055   0.61812   0.00000  Uiso   1.00
N273   N     0.91881   0.27235   0.22501   0.00000  Uiso   1.00
N274   N     0.72174   0.15030   0.58779   0.00000  Uiso   1.00
N275   N     0.97849   0.43362   0.62804   0.00000  Uiso   1.00
N276   N     0.84799   0.33542   0.23493   0.00000  Uiso   1.00
C277   C     0.57356   0.26220   0.97278   0.00000  Uiso   1.00
C278   C     0.62777   0.28829   0.00416   0.00000  Uiso   1.00
C279   C     0.63389   0.34535   0.02502   0.00000  Uiso   1.00
C280   C     0.68692   0.36072   0.05248   0.00000  Uiso   1.00
C281   C     0.76420   0.40735   0.10027   0.00000  Uiso   1.00
C282   C     0.55701   0.21021   0.01526   0.00000  Uiso   1.00
C283   C     0.50364   0.20162   0.04545   0.00000  Uiso   1.00
C284   C     0.49709   0.15126   0.08225   0.00000  Uiso   1.00
C285   C     0.46450   0.07664   0.14724   0.00000  Uiso   1.00
C286   C     0.59298   0.23728   0.90692   0.00000  Uiso   1.00
C287   C     0.56985   0.25144   0.84602   0.00000  Uiso   1.00
C288   C     0.59358   0.22386   0.79161   0.00000  Uiso   1.00
C289   C     0.61684   0.19127   0.68838   0.00000  Uiso   1.00
C290   C     0.65684   0.18802   0.98445   0.00000  Uiso   1.00
C291   C     0.67300   0.24799   0.01049   0.00000  Uiso   1.00
C292   C     0.72603   0.26328   0.03793   0.00000  Uiso   1.00
C293   C     0.73224   0.32036   0.05883   0.00000  Uiso   1.00
C294   C     0.60224   0.16992   0.02160   0.00000  Uiso   1.00
C295   C     0.59577   0.11955   0.05836   0.00000  Uiso   1.00
C296   C     0.54241   0.11089   0.08860   0.00000  Uiso   1.00
C297   C     0.63822   0.19699   0.91326   0.00000  Uiso   1.00
C298   C     0.66199   0.16937   0.85893   0.00000  Uiso   1.00
C299   C     0.63890   0.18349   0.79796   0.00000  Uiso   1.00
H300   H     0.53835   0.29357   0.96785   0.00000  Uiso   1.00
H301   H     0.59888   0.37652   0.02011   0.00000  Uiso   1.00
H302   H     0.46864   0.23280   0.04053   0.00000  Uiso   1.00
H303   H     0.53484   0.28262   0.84113   0.00000  Uiso   1.00
H304   H     0.68593   0.45071   0.08088   0.00000  Uiso   1.00
H305   H     0.41131   0.14767   0.12392   0.00000  Uiso   1.00
H306   H     0.55091   0.25272   0.70344   0.00000  Uiso   1.00
H307   H     0.69206   0.15665   0.98938   0.00000  Uiso   1.00
H308   H     0.76103   0.23209   0.04283   0.00000  Uiso   1.00
H309   H     0.63079   0.08838   0.06325   0.00000  Uiso   1.00
H310   H     0.69699   0.13820   0.86385   0.00000  Uiso   1.00
H311   H     0.81754   0.33349   0.09932   0.00000  Uiso   1.00
H312   H     0.54291   0.03045   0.14235   0.00000  Uiso   1.00
H313   H     0.68251   0.13550   0.72188   0.00000  Uiso   1.00
O314   O     0.79432   0.44419   0.12489   0.00000  Uiso   1.00
O315   O     0.43402   0.04662   0.18134   0.00000  Uiso   1.00
O316   O     0.61718   0.18444   0.62969   0.00000  Uiso   1.00
N317   N     0.70744   0.41277   0.07787   0.00000  Uiso   1.00
N318   N     0.45069   0.12945   0.11812   0.00000  Uiso   1.00
N319   N     0.58119   0.22765   0.72501   0.00000  Uiso   1.00
N320   N     0.77826   0.34970   0.08779   0.00000  Uiso   1.00
N321   N     0.52151   0.06638   0.12804   0.00000  Uiso   1.00
N322   N     0.65201   0.16458   0.73493   0.00000  Uiso   1.00
C323   C     0.07356   0.76220   0.47278   0.00000  Uiso   1.00
C324   C     0.12777   0.78829   0.50416   0.00000  Uiso   1.00
C325   C     0.13389   0.84535   0.52502   0.00000  Uiso   1.00
C326   C     0.18692   0.86072   0.55248   0.00000  Uiso   1.00
C327   C     0.26420   0.90735   0.60027   0.00000  Uiso   1.00
C328   C     0.05701   0.71021   0.51526   0.00000  Uiso   1.00
C329   C     0.00364   0.70162   0.54545   0.00000  Uiso   1.00
C330   C     0.99709   0.65126   0.58225   0.00000  Uiso   1.00
C331   C     0.96450   0.57664   0.64724   0.00000  Uiso   1.00
C332   C     0.09298   0.73728   0.40692   0.00000  Uiso   1.00
C333   C     0.06985   0.75144   0.34602   0.00000  Uiso   1.00
C334   C     0.09358   0.72386   0.29161   0.00000  Uiso   1.00
C335   C     0.11684   0.69127   0.18838   0.00000  Uiso   1.00
C336   C     0.15684   0.68802   0.48445   0.00000  Uiso   1.00
C337   C     0.17300   0.74799   0.51049   0.00000  Uiso   1.00
C338   C     0.22603   0.76328   0.53793   0.00000  Uiso   1.00
C339   C     0.23224   0.82036   0.55883   0.00000  Uiso   1.00
C340   C     0.10224   0.66992   0.52160   0.00000  Uiso   1.00
C341   C     0.09577   0.61955   0.55836   0.00000  Uiso   1.00
C342   C     0.04241   0.61089   0.58860   0.00000  Uiso   1.00
C343   C     0.13822   0.69699   0.41326   0.00000  Uiso   1.00
C344   C     0.16199   0.66937   0.35893   0.00000  Uiso   1.00
C345   C     0.13890   0.68349   0.29796   0.00000  Uiso   1.00
H346   H     0.03835   0.79357   0.46785   0.00000  Uiso   1.00
H347   H     0.09888   0.87652   0.52011   0.00000  Uiso   1.00
H348   H     0.96864   0.73280   0.54053   0.00000  Uiso   1.00
H349   H     0.03484   0.78262   0.34113   0.00000  Uiso   1.00
H350   H     0.18593   0.95071   0.58088   0.00000  Uiso   1.00
H351   H     0.91131   0.64767   0.62392   0.00000  Uiso   1.00
H352   H     0.05091   0.75272   0.20344   0.00000  Uiso   1.00
H353   H     0.19206   0.65665   0.48938   0.00000  Uiso   1.00
H354   H     0.26103   0.73209   0.54283   0.00000  Uiso   1.00
H355   H     0.13079   0.58838   0.56325   0.00000  Uiso   1.00
H356   H     0.19699   0.63820   0.36385   0.00000  Uiso   1.00
H357   H     0.31754   0.83349   0.59932   0.00000  Uiso   1.00
H358   H     0.04291   0.53045   0.64235   0.00000  Uiso   1.00
H359   H     0.18251   0.63550   0.22188   0.00000  Uiso   1.00
O360   O     0.29432   0.94419   0.62489   0.00000  Uiso   1.00
O361   O     0.93402   0.54662   0.68134   0.00000  Uiso   1.00
O362   O     0.11718   0.68444   0.12969   0.00000  Uiso   1.00
N363   N     0.20744   0.91277   0.57787   0.00000  Uiso   1.00
N364   N     0.95069   0.62945   0.61812   0.00000  Uiso   1.00
N365   N     0.08119   0.72765   0.22501   0.00000  Uiso   1.00
N366   N     0.27826   0.84970   0.58779   0.00000  Uiso   1.00
N367   N     0.02151   0.56638   0.62804   0.00000  Uiso   1.00
N368   N     0.15201   0.66458   0.23493   0.00000  Uiso   1.00
C369   C     0.23780   0.42644   0.72278   0.00000  Uiso   1.00
C370   C     0.21171   0.37223   0.75416   0.00000  Uiso   1.00
C371   C     0.15465   0.36611   0.77502   0.00000  Uiso   1.00
C372   C     0.13928   0.31308   0.80248   0.00000  Uiso   1.00
C373   C     0.09265   0.23580   0.85027   0.00000  Uiso   1.00
C374   C     0.28979   0.44299   0.76526   0.00000  Uiso   1.00
C375   C     0.29838   0.49636   0.79545   0.00000  Uiso   1.00
C376   C     0.34874   0.50291   0.83225   0.00000  Uiso   1.00
C377   C     0.42336   0.53550   0.89724   0.00000  Uiso   1.00
C378   C     0.26272   0.40702   0.65692   0.00000  Uiso   1.00
C379   C     0.24856   0.43015   0.59602   0.00000  Uiso   1.00
C380   C     0.27614   0.40642   0.54161   0.00000  Uiso   1.00
C381   C     0.30873   0.38316   0.43838   0.00000  Uiso   1.00
C382   C     0.31198   0.34316   0.73445   0.00000  Uiso   1.00
C383   C     0.25201   0.32700   0.76049   0.00000  Uiso   1.00
C384   C     0.23672   0.27397   0.78793   0.00000  Uiso   1.00
C385   C     0.17964   0.26776   0.80883   0.00000  Uiso   1.00
C386   C     0.33008   0.39776   0.77160   0.00000  Uiso   1.00
C387   C     0.38045   0.40423   0.80836   0.00000  Uiso   1.00
C388   C     0.38911   0.45759   0.83860   0.00000  Uiso   1.00
C389   C     0.30301   0.36178   0.66326   0.00000  Uiso   1.00
C390   C     0.33063   0.33801   0.60893   0.00000  Uiso   1.00
C391   C     0.31651   0.36110   0.54796   0.00000  Uiso   1.00
H392   H     0.20643   0.46165   0.71785   0.00000  Uiso   1.00
H393   H     0.12348   0.40112   0.77011   0.00000  Uiso   1.00
H394   H     0.26720   0.53136   0.79053   0.00000  Uiso   1.00
H395   H     0.21738   0.46516   0.59113   0.00000  Uiso   1.00
H396   H     0.04929   0.31407   0.83088   0.00000  Uiso   1.00
H397   H     0.35233   0.58869   0.87392   0.00000  Uiso   1.00
H398   H     0.24728   0.44909   0.45344   0.00000  Uiso   1.00
H399   H     0.34335   0.30794   0.73938   0.00000  Uiso   1.00
H400   H     0.26791   0.23897   0.79283   0.00000  Uiso   1.00
H401   H     0.41162   0.36921   0.81325   0.00000  Uiso   1.00
H402   H     0.36180   0.30301   0.61385   0.00000  Uiso   1.00
H403   H     0.16651   0.18246   0.84932   0.00000  Uiso   1.00
H404   H     0.46955   0.45709   0.89235   0.00000  Uiso   1.00
H405   H     0.36450   0.31749   0.47188   0.00000  Uiso   1.00
O406   O     0.05581   0.20568   0.87489   0.00000  Uiso   1.00
O407   O     0.45338   0.56598   0.93134   0.00000  Uiso   1.00
O408   O     0.31556   0.38282   0.37969   0.00000  Uiso   1.00
N409   N     0.08723   0.29256   0.82787   0.00000  Uiso   1.00
N410   N     0.37055   0.54931   0.86812   0.00000  Uiso   1.00
N411   N     0.27235   0.41881   0.47501   0.00000  Uiso   1.00
N412   N     0.15030   0.22174   0.83779   0.00000  Uiso   1.00
N413   N     0.43362   0.47849   0.87804   0.00000  Uiso   1.00
N414   N     0.33542   0.34799   0.48493   0.00000  Uiso   1.00
C415   C     0.73780   0.92644   0.22278   0.00000  Uiso   1.00
C416   C     0.71171   0.87223   0.25416   0.00000  Uiso   1.00
C417   C     0.65465   0.86611   0.27502   0.00000  Uiso   1.00
C418   C     0.63928   0.81308   0.30248   0.00000  Uiso   1.00
C419   C     0.59265   0.73580   0.35027   0.00000  Uiso   1.00
C420   C     0.78979   0.94299   0.26526   0.00000  Uiso   1.00
C421   C     0.79838   0.99636   0.29545   0.00000  Uiso   1.00
C422   C     0.84874   0.00291   0.33225   0.00000  Uiso   1.00
C423   C     0.92336   0.03550   0.39724   0.00000  Uiso   1.00
C424   C     0.76272   0.90702   0.15692   0.00000  Uiso   1.00
C425   C     0.74856   0.93015   0.09602   0.00000  Uiso   1.00
C426   C     0.77614   0.90642   0.04161   0.00000  Uiso   1.00
C427   C     0.80873   0.88316   0.93838   0.00000  Uiso   1.00
C428   C     0.81198   0.84316   0.23445   0.00000  Uiso   1.00
C429   C     0.75201   0.82700   0.26049   0.00000  Uiso   1.00
C430   C     0.73672   0.77397   0.28793   0.00000  Uiso   1.00
C431   C     0.67964   0.76776   0.30883   0.00000  Uiso   1.00
C432   C     0.83008   0.89776   0.27160   0.00000  Uiso   1.00
C433   C     0.88045   0.90423   0.30836   0.00000  Uiso   1.00
C434   C     0.88911   0.95759   0.33860   0.00000  Uiso   1.00
C435   C     0.80301   0.86178   0.16326   0.00000  Uiso   1.00
C436   C     0.83063   0.83801   0.10893   0.00000  Uiso   1.00
C437   C     0.81651   0.86110   0.04796   0.00000  Uiso   1.00
H438   H     0.70643   0.96165   0.21785   0.00000  Uiso   1.00
H439   H     0.62348   0.90112   0.27011   0.00000  Uiso   1.00
H440   H     0.76720   0.03136   0.29053   0.00000  Uiso   1.00
H441   H     0.71738   0.96516   0.09113   0.00000  Uiso   1.00
H442   H     0.54929   0.81407   0.33088   0.00000  Uiso   1.00
H443   H     0.85233   0.08869   0.37392   0.00000  Uiso   1.00
H444   H     0.74728   0.94909   0.95344   0.00000  Uiso   1.00
H445   H     0.84335   0.80794   0.23938   0.00000  Uiso   1.00
H446   H     0.76791   0.73897   0.29283   0.00000  Uiso   1.00
H447   H     0.91162   0.86921   0.31325   0.00000  Uiso   1.00
H448   H     0.86180   0.80301   0.11385   0.00000  Uiso   1.00
H449   H     0.66651   0.68246   0.34932   0.00000  Uiso   1.00
H450   H     0.96955   0.95709   0.39235   0.00000  Uiso   1.00
H451   H     0.86450   0.81749   0.97188   0.00000  Uiso   1.00
O452   O     0.55581   0.70568   0.37489   0.00000  Uiso   1.00
O453   O     0.95338   0.06598   0.43134   0.00000  Uiso   1.00
O454   O     0.81556   0.88282   0.87969   0.00000  Uiso   1.00
N455   N     0.58723   0.79256   0.32787   0.00000  Uiso   1.00
N456   N     0.87055   0.04931   0.36812   0.00000  Uiso   1.00
N457   N     0.77235   0.91881   0.97501   0.00000  Uiso   1.00
N458   N     0.65030   0.72174   0.33779   0.00000  Uiso   1.00
N459   N     0.93362   0.97849   0.37804   0.00000  Uiso   1.00
N460   N     0.83542   0.84799   0.98493   0.00000  Uiso   1.00
C461   C     0.76220   0.57356   0.72278   0.00000  Uiso   1.00
C462   C     0.78829   0.62777   0.75416   0.00000  Uiso   1.00
C463   C     0.84535   0.63389   0.77502   0.00000  Uiso   1.00
C464   C     0.86072   0.68692   0.80248   0.00000  Uiso   1.00
C465   C     0.90735   0.76420   0.85027   0.00000  Uiso   1.00
C466   C     0.71021   0.55701   0.76526   0.00000  Uiso   1.00
C467   C     0.70162   0.50364   0.79545   0.00000  Uiso   1.00
C468   C     0.65126   0.49709   0.83225   0.00000  Uiso   1.00
C469   C     0.57664   0.46450   0.89724   0.00000  Uiso   1.00
C470   C     0.73728   0.59298   0.65692   0.00000  Uiso   1.00
C471   C     0.75144   0.56985   0.59602   0.00000  Uiso   1.00
C472   C     0.72386   0.59358   0.54161   0.00000  Uiso   1.00
C473   C     0.69127   0.61684   0.43838   0.00000  Uiso   1.00
C474   C     0.68802   0.65684   0.73445   0.00000  Uiso   1.00
C475   C     0.74799   0.67300   0.76049   0.00000  Uiso   1.00
C476   C     0.76328   0.72603   0.78793   0.00000  Uiso   1.00
C477   C     0.82036   0.73224   0.80883   0.00000  Uiso   1.00
C478   C     0.66992   0.60224   0.77160   0.00000  Uiso   1.00
C479   C     0.61955   0.59577   0.80836   0.00000  Uiso   1.00
C480   C     0.61089   0.54241   0.83860   0.00000  Uiso   1.00
C481   C     0.69699   0.63822   0.66326   0.00000  Uiso   1.00
C482   C     0.66937   0.66199   0.60893   0.00000  Uiso   1.00
C483   C     0.68349   0.63890   0.54796   0.00000  Uiso   1.00
H484   H     0.79357   0.53835   0.71785   0.00000  Uiso   1.00
H485   H     0.87652   0.59888   0.77011   0.00000  Uiso   1.00
H486   H     0.73280   0.46864   0.79053   0.00000  Uiso   1.00
H487   H     0.78262   0.53484   0.59113   0.00000  Uiso   1.00
H488   H     0.95071   0.68593   0.83088   0.00000  Uiso   1.00
H489   H     0.64767   0.41131   0.87392   0.00000  Uiso   1.00
H490   H     0.75272   0.55091   0.45344   0.00000  Uiso   1.00
H491   H     0.65665   0.69206   0.73938   0.00000  Uiso   1.00
H492   H     0.73209   0.76103   0.79283   0.00000  Uiso   1.00
H493   H     0.58838   0.63079   0.81325   0.00000  Uiso   1.00
H494   H     0.63820   0.69699   0.61385   0.00000  Uiso   1.00
H495   H     0.83349   0.81754   0.84932   0.00000  Uiso   1.00
H496   H     0.53045   0.54291   0.89235   0.00000  Uiso   1.00
H497   H     0.63550   0.68251   0.47188   0.00000  Uiso   1.00
O498   O     0.94419   0.79432   0.87489   0.00000  Uiso   1.00
O499   O     0.54662   0.43402   0.93134   0.00000  Uiso   1.00
O500   O     0.68444   0.61718   0.37969   0.00000  Uiso   1.00
N501   N     0.91277   0.70744   0.82787   0.00000  Uiso   1.00
N502   N     0.62945   0.45069   0.86812   0.00000  Uiso   1.00
N503   N     0.72765   0.58119   0.47501   0.00000  Uiso   1.00
N504   N     0.84970   0.77826   0.83779   0.00000  Uiso   1.00
N505   N     0.56638   0.52151   0.87804   0.00000  Uiso   1.00
N506   N     0.66458   0.65201   0.48493   0.00000  Uiso   1.00
C507   C     0.26220   0.07356   0.22278   0.00000  Uiso   1.00
C508   C     0.28829   0.12777   0.25416   0.00000  Uiso   1.00
C509   C     0.34535   0.13389   0.27502   0.00000  Uiso   1.00
C510   C     0.36072   0.18692   0.30248   0.00000  Uiso   1.00
C511   C     0.40735   0.26420   0.35027   0.00000  Uiso   1.00
C512   C     0.21021   0.05701   0.26526   0.00000  Uiso   1.00
C513   C     0.20162   0.00364   0.29545   0.00000  Uiso   1.00
C514   C     0.15126   0.99709   0.33225   0.00000  Uiso   1.00
C515   C     0.07664   0.96450   0.39724   0.00000  Uiso   1.00
C516   C     0.23728   0.09298   0.15692   0.00000  Uiso   1.00
C517   C     0.25144   0.06985   0.09602   0.00000  Uiso   1.00
C518   C     0.22386   0.09358   0.04161   0.00000  Uiso   1.00
C519   C     0.19127   0.11684   0.93838   0.00000  Uiso   1.00
C520   C     0.18802   0.15684   0.23445   0.00000  Uiso   1.00
C521   C     0.24799   0.17300   0.26049   0.00000  Uiso   1.00
C522   C     0.26328   0.22603   0.28793   0.00000  Uiso   1.00
C523   C     0.32036   0.23224   0.30883   0.00000  Uiso   1.00
C524   C     0.16992   0.10224   0.27160   0.00000  Uiso   1.00
C525   C     0.11955   0.09577   0.30836   0.00000  Uiso   1.00
C526   C     0.11089   0.04241   0.33860   0.00000  Uiso   1.00
C527   C     0.19699   0.13822   0.16326   0.00000  Uiso   1.00
C528   C     0.16937   0.16199   0.10893   0.00000  Uiso   1.00
C529   C     0.18349   0.13890   0.04796   0.00000  Uiso   1.00
H530   H     0.29357   0.03835   0.21785   0.00000  Uiso   1.00
H531   H     0.37652   0.09888   0.27011   0.00000  Uiso   1.00
H532   H     0.23280   0.96864   0.29053   0.00000  Uiso   1.00
H533   H     0.28262   0.03484   0.09113   0.00000  Uiso   1.00
H534   H     0.45071   0.18593   0.33088   0.00000  Uiso   1.00
H535   H     0.14767   0.91131   0.37392   0.00000  Uiso   1.00
H536   H     0.25272   0.05091   0.95344   0.00000  Uiso   1.00
H537   H     0.15665   0.19206   0.23938   0.00000  Uiso   1.00
H538   H     0.23209   0.26103   0.29283   0.00000  Uiso   1.00
H539   H     0.08838   0.13079   0.31325   0.00000  Uiso   1.00
H540   H     0.13820   0.19699   0.11385   0.00000  Uiso   1.00
H541   H     0.33349   0.31754   0.34932   0.00000  Uiso   1.00
H542   H     0.03045   0.04291   0.39235   0.00000  Uiso   1.00
H543   H     0.13550   0.18251   0.97188   0.00000  Uiso   1.00
O544   O     0.44419   0.29432   0.37489   0.00000  Uiso   1.00
O545   O     0.04662   0.93402   0.43134   0.00000  Uiso   1.00
O546   O     0.18444   0.11718   0.87969   0.00000  Uiso   1.00
N547   N     0.41277   0.20744   0.32787   0.00000  Uiso   1.00
N548   N     0.12945   0.95069   0.36812   0.00000  Uiso   1.00
N549   N     0.22765   0.08119   0.97501   0.00000  Uiso   1.00
N550   N     0.34970   0.27826   0.33779   0.00000  Uiso   1.00
N551   N     0.06638   0.02151   0.37804   0.00000  Uiso   1.00
N552   N     0.16458   0.15201   0.98493   0.00000  Uiso   1.00
C553   C     0.07356   0.73780   0.77722   0.00000  Uiso   1.00
C554   C     0.12777   0.71171   0.74584   0.00000  Uiso   1.00
C555   C     0.13389   0.65465   0.72498   0.00000  Uiso   1.00
C556   C     0.18692   0.63928   0.69752   0.00000  Uiso   1.00
C557   C     0.26420   0.59265   0.64973   0.00000  Uiso   1.00
C558   C     0.05701   0.78979   0.73474   0.00000  Uiso   1.00
C559   C     0.00364   0.79838   0.70455   0.00000  Uiso   1.00
C560   C     0.99709   0.84874   0.66775   0.00000  Uiso   1.00
C561   C     0.96450   0.92336   0.60276   0.00000  Uiso   1.00
C562   C     0.09298   0.76272   0.84308   0.00000  Uiso   1.00
C563   C     0.06985   0.74856   0.90398   0.00000  Uiso   1.00
C564   C     0.09358   0.77614   0.95839   0.00000  Uiso   1.00
C565   C     0.11684   0.80873   0.06162   0.00000  Uiso   1.00
C566   C     0.15684   0.81198   0.76555   0.00000  Uiso   1.00
C567   C     0.17300   0.75201   0.73951   0.00000  Uiso   1.00
C568   C     0.22603   0.73672   0.71207   0.00000  Uiso   1.00
C569   C     0.23224   0.67964   0.69117   0.00000  Uiso   1.00
C570   C     0.10224   0.83008   0.72840   0.00000  Uiso   1.00
C571   C     0.09577   0.88045   0.69164   0.00000  Uiso   1.00
C572   C     0.04241   0.88911   0.66140   0.00000  Uiso   1.00
C573   C     0.13822   0.80301   0.83674   0.00000  Uiso   1.00
C574   C     0.16199   0.83063   0.89107   0.00000  Uiso   1.00
C575   C     0.13890   0.81651   0.95204   0.00000  Uiso   1.00
H576   H     0.03835   0.70643   0.78215   0.00000  Uiso   1.00
H577   H     0.09888   0.62348   0.72989   0.00000  Uiso   1.00
H578   H     0.96864   0.76720   0.70947   0.00000  Uiso   1.00
H579   H     0.03484   0.71738   0.90887   0.00000  Uiso   1.00
H580   H     0.18593   0.54929   0.66912   0.00000  Uiso   1.00
H581   H     0.91131   0.85233   0.62608   0.00000  Uiso   1.00
H582   H     0.05091   0.74728   0.04656   0.00000  Uiso   1.00
H583   H     0.19206   0.84335   0.76062   0.00000  Uiso   1.00
H584   H     0.26103   0.76791   0.70717   0.00000  Uiso   1.00
H585   H     0.13079   0.91162   0.68675   0.00000  Uiso   1.00
H586   H     0.19699   0.86180   0.88615   0.00000  Uiso   1.00
H587   H     0.31754   0.66651   0.65068   0.00000  Uiso   1.00
H588   H     0.04291   0.96955   0.60765   0.00000  Uiso   1.00
H589   H     0.18251   0.86450   0.02812   0.00000  Uiso   1.00
O590   O     0.29432   0.55581   0.62511   0.00000  Uiso   1.00
O591   O     0.93402   0.95338   0.56866   0.00000  Uiso   1.00
O592   O     0.11718   0.81556   0.12031   0.00000  Uiso   1.00
N593   N     0.20744   0.58723   0.67213   0.00000  Uiso   1.00
N594   N     0.95069   0.87055   0.63188   0.00000  Uiso   1.00
N595   N     0.08119   0.77235   0.02499   0.00000  Uiso   1.00
N596   N     0.27826   0.65030   0.66221   0.00000  Uiso   1.00
N597   N     0.02151   0.93362   0.62196   0.00000  Uiso   1.00
N598   N     0.15201   0.83542   0.01507   0.00000  Uiso   1.00
C599   C     0.57356   0.23780   0.27722   0.00000  Uiso   1.00
C600   C     0.62777   0.21171   0.24584   0.00000  Uiso   1.00
C601   C     0.63389   0.15465   0.22498   0.00000  Uiso   1.00
C602   C     0.68692   0.13928   0.19752   0.00000  Uiso   1.00
C603   C     0.76420   0.09265   0.14973   0.00000  Uiso   1.00
C604   C     0.55701   0.28979   0.23474   0.00000  Uiso   1.00
C605   C     0.50364   0.29838   0.20455   0.00000  Uiso   1.00
C606   C     0.49709   0.34874   0.16775   0.00000  Uiso   1.00
C607   C     0.46450   0.42336   0.10276   0.00000  Uiso   1.00
C608   C     0.59298   0.26272   0.34308   0.00000  Uiso   1.00
C609   C     0.56985   0.24856   0.40398   0.00000  Uiso   1.00
C610   C     0.59358   0.27614   0.45839   0.00000  Uiso   1.00
C611   C     0.61684   0.30873   0.56162   0.00000  Uiso   1.00
C612   C     0.65684   0.31198   0.26555   0.00000  Uiso   1.00
C613   C     0.67300   0.25201   0.23951   0.00000  Uiso   1.00
C614   C     0.72603   0.23672   0.21207   0.00000  Uiso   1.00
C615   C     0.73224   0.17964   0.19117   0.00000  Uiso   1.00
C616   C     0.60224   0.33008   0.22840   0.00000  Uiso   1.00
C617   C     0.59577   0.38045   0.19164   0.00000  Uiso   1.00
C618   C     0.54241   0.38911   0.16140   0.00000  Uiso   1.00
C619   C     0.63822   0.30301   0.33674   0.00000  Uiso   1.00
C620   C     0.66199   0.33063   0.39107   0.00000  Uiso   1.00
C621   C     0.63890   0.31651   0.45204   0.00000  Uiso   1.00
H622   H     0.53835   0.20643   0.28215   0.00000  Uiso   1.00
H623   H     0.59888   0.12348   0.22989   0.00000  Uiso   1.00
H624   H     0.46864   0.26720   0.20947   0.00000  Uiso   1.00
H625   H     0.53484   0.21738   0.40887   0.00000  Uiso   1.00
H626   H     0.68593   0.04929   0.16912   0.00000  Uiso   1.00
H627   H     0.41131   0.35233   0.12608   0.00000  Uiso   1.00
H628   H     0.55091   0.24728   0.54656   0.00000  Uiso   1.00
H629   H     0.69206   0.34335   0.26062   0.00000  Uiso   1.00
H630   H     0.76103   0.26791   0.20717   0.00000  Uiso   1.00
H631   H     0.63079   0.41162   0.18675   0.00000  Uiso   1.00
H632   H     0.69699   0.36180   0.38615   0.00000  Uiso   1.00
H633   H     0.81754   0.16651   0.15068   0.00000  Uiso   1.00
H634   H     0.54291   0.46955   0.10765   0.00000  Uiso   1.00
H635   H     0.68251   0.36450   0.52812   0.00000  Uiso   1.00
O636   O     0.79432   0.05581   0.12511   0.00000  Uiso   1.00
O637   O     0.43402   0.45338   0.06866   0.00000  Uiso   1.00
O638   O     0.61718   0.31556   0.62031   0.00000  Uiso   1.00
N639   N     0.70744   0.08723   0.17213   0.00000  Uiso   1.00
N640   N     0.45069   0.37055   0.13188   0.00000  Uiso   1.00
N641   N     0.58119   0.27235   0.52499   0.00000  Uiso   1.00
N642   N     0.77826   0.15030   0.16221   0.00000  Uiso   1.00
N643   N     0.52151   0.43362   0.12196   0.00000  Uiso   1.00
N644   N     0.65201   0.33542   0.51507   0.00000  Uiso   1.00
C645   C     0.92644   0.26220   0.77722   0.00000  Uiso   1.00
C646   C     0.87223   0.28829   0.74584   0.00000  Uiso   1.00
C647   C     0.86611   0.34535   0.72498   0.00000  Uiso   1.00
C648   C     0.81308   0.36072   0.69752   0.00000  Uiso   1.00
C649   C     0.73580   0.40735   0.64973   0.00000  Uiso   1.00
C650   C     0.94299   0.21021   0.73474   0.00000  Uiso   1.00
C651   C     0.99636   0.20162   0.70455   0.00000  Uiso   1.00
C652   C     0.00291   0.15126   0.66775   0.00000  Uiso   1.00
C653   C     0.03550   0.07664   0.60276   0.00000  Uiso   1.00
C654   C     0.90702   0.23728   0.84308   0.00000  Uiso   1.00
C655   C     0.93015   0.25144   0.90398   0.00000  Uiso   1.00
C656   C     0.90642   0.22386   0.95839   0.00000  Uiso   1.00
C657   C     0.88316   0.19127   0.06162   0.00000  Uiso   1.00
C658   C     0.84316   0.18802   0.76555   0.00000  Uiso   1.00
C659   C     0.82700   0.24799   0.73951   0.00000  Uiso   1.00
C660   C     0.77397   0.26328   0.71207   0.00000  Uiso   1.00
C661   C     0.76776   0.32036   0.69117   0.00000  Uiso   1.00
C662   C     0.89776   0.16992   0.72840   0.00000  Uiso   1.00
C663   C     0.90423   0.11955   0.69164   0.00000  Uiso   1.00
C664   C     0.95759   0.11089   0.66140   0.00000  Uiso   1.00
C665   C     0.86178   0.19699   0.83674   0.00000  Uiso   1.00
C666   C     0.83801   0.16937   0.89107   0.00000  Uiso   1.00
C667   C     0.86110   0.18349   0.95204   0.00000  Uiso   1.00
H668   H     0.96165   0.29357   0.78215   0.00000  Uiso   1.00
H669   H     0.90112   0.37652   0.72989   0.00000  Uiso   1.00
H670   H     0.03136   0.23280   0.70947   0.00000  Uiso   1.00
H671   H     0.96516   0.28262   0.90887   0.00000  Uiso   1.00
H672   H     0.81407   0.45071   0.66912   0.00000  Uiso   1.00
H673   H     0.08869   0.14767   0.62608   0.00000  Uiso   1.00
H674   H     0.94909   0.25272   0.04656   0.00000  Uiso   1.00
H675   H     0.80794   0.15665   0.76062   0.00000  Uiso   1.00
H676   H     0.73897   0.23209   0.70717   0.00000  Uiso   1.00
H677   H     0.86921   0.08838   0.68675   0.00000  Uiso   1.00
H678   H     0.80301   0.13820   0.88615   0.00000  Uiso   1.00
H679   H     0.68246   0.33349   0.65068   0.00000  Uiso   1.00
H680   H     0.95709   0.03045   0.60765   0.00000  Uiso   1.00
H681   H     0.81749   0.13550   0.02812   0.00000  Uiso   1.00
O682   O     0.70568   0.44419   0.62511   0.00000  Uiso   1.00
O683   O     0.06598   0.04662   0.56866   0.00000  Uiso   1.00
O684   O     0.88282   0.18444   0.12031   0.00000  Uiso   1.00
N685   N     0.79256   0.41277   0.67213   0.00000  Uiso   1.00
N686   N     0.04931   0.12945   0.63188   0.00000  Uiso   1.00
N687   N     0.91881   0.22765   0.02499   0.00000  Uiso   1.00
N688   N     0.72174   0.34970   0.66221   0.00000  Uiso   1.00
N689   N     0.97849   0.06638   0.62196   0.00000  Uiso   1.00
N690   N     0.84799   0.16458   0.01507   0.00000  Uiso   1.00
C691   C     0.42644   0.76220   0.27722   0.00000  Uiso   1.00
C692   C     0.37223   0.78829   0.24584   0.00000  Uiso   1.00
C693   C     0.36611   0.84535   0.22498   0.00000  Uiso   1.00
C694   C     0.31308   0.86072   0.19752   0.00000  Uiso   1.00
C695   C     0.23580   0.90735   0.14973   0.00000  Uiso   1.00
C696   C     0.44299   0.71021   0.23474   0.00000  Uiso   1.00
C697   C     0.49636   0.70162   0.20455   0.00000  Uiso   1.00
C698   C     0.50291   0.65126   0.16775   0.00000  Uiso   1.00
C699   C     0.53550   0.57664   0.10276   0.00000  Uiso   1.00
C700   C     0.40702   0.73728   0.34308   0.00000  Uiso   1.00
C701   C     0.43015   0.75144   0.40398   0.00000  Uiso   1.00
C702   C     0.40642   0.72386   0.45839   0.00000  Uiso   1.00
C703   C     0.38316   0.69127   0.56162   0.00000  Uiso   1.00
C704   C     0.34316   0.68802   0.26555   0.00000  Uiso   1.00
C705   C     0.32700   0.74799   0.23951   0.00000  Uiso   1.00
C706   C     0.27397   0.76328   0.21207   0.00000  Uiso   1.00
C707   C     0.26776   0.82036   0.19117   0.00000  Uiso   1.00
C708   C     0.39776   0.66992   0.22840   0.00000  Uiso   1.00
C709   C     0.40423   0.61955   0.19164   0.00000  Uiso   1.00
C710   C     0.45759   0.61089   0.16140   0.00000  Uiso   1.00
C711   C     0.36178   0.69699   0.33674   0.00000  Uiso   1.00
C712   C     0.33801   0.66937   0.39107   0.00000  Uiso   1.00
C713   C     0.36110   0.68349   0.45204   0.00000  Uiso   1.00
H714   H     0.46165   0.79357   0.28215   0.00000  Uiso   1.00
H715   H     0.40112   0.87652   0.22989   0.00000  Uiso   1.00
H716   H     0.53136   0.73280   0.20947   0.00000  Uiso   1.00
H717   H     0.46516   0.78262   0.40887   0.00000  Uiso   1.00
H718   H     0.31407   0.95071   0.16912   0.00000  Uiso   1.00
H719   H     0.58869   0.64767   0.12608   0.00000  Uiso   1.00
H720   H     0.44909   0.75272   0.54656   0.00000  Uiso   1.00
H721   H     0.30794   0.65665   0.26062   0.00000  Uiso   1.00
H722   H     0.23897   0.73209   0.20717   0.00000  Uiso   1.00
H723   H     0.36921   0.58838   0.18675   0.00000  Uiso   1.00
H724   H     0.30301   0.63820   0.38615   0.00000  Uiso   1.00
H725   H     0.18246   0.83349   0.15068   0.00000  Uiso   1.00
H726   H     0.45709   0.53045   0.10765   0.00000  Uiso   1.00
H727   H     0.31749   0.63550   0.52812   0.00000  Uiso   1.00
O728   O     0.20568   0.94419   0.12511   0.00000  Uiso   1.00
O729   O     0.56598   0.54662   0.06866   0.00000  Uiso   1.00
O730   O     0.38282   0.68444   0.62031   0.00000  Uiso   1.00
N731   N     0.29256   0.91277   0.17213   0.00000  Uiso   1.00
N732   N     0.54931   0.62945   0.13188   0.00000  Uiso   1.00
N733   N     0.41881   0.72765   0.52499   0.00000  Uiso   1.00
N734   N     0.22174   0.84970   0.16221   0.00000  Uiso   1.00
N735   N     0.47849   0.56638   0.12196   0.00000  Uiso   1.00
N736   N     0.34799   0.66458   0.51507   0.00000  Uiso   1.00
