data_job_04599
_audit_creation_date              2018-12-19
_audit_creation_method            'Materials Studio'
_symmetry_space_group_name_H-M    'P1'
_symmetry_Int_Tables_number       1
_symmetry_cell_setting            triclinic
loop_
_symmetry_equiv_pos_as_xyz
  x,y,z
_cell_length_a                    9.8686
_cell_length_b                    29.9850
_cell_length_c                    38.2055
_cell_angle_alpha                 90.0000
_cell_angle_beta                  90.0000
_cell_angle_gamma                 90.0000
loop_
_atom_site_label
_atom_site_type_symbol
_atom_site_fract_x
_atom_site_fract_y
_atom_site_fract_z
_atom_site_U_iso_or_equiv
_atom_site_adp_type
_atom_site_occupancy
C1     C     0.02460   0.82765   0.11560   0.00000  Uiso   1.00
C2     C     0.12742   0.84994   0.09149   0.00000  Uiso   1.00
C3     C     0.26725   0.84637   0.09412   0.00000  Uiso   1.00
C4     C     0.34380   0.86933   0.06953   0.00000  Uiso   1.00
C5     C     0.51277   0.90007   0.03609   0.00000  Uiso   1.00
C6     C     0.93685   0.86513   0.13023   0.00000  Uiso   1.00
C7     C     0.91644   0.87432   0.16544   0.00000  Uiso   1.00
C8     C     0.83256   0.91006   0.17346   0.00000  Uiso   1.00
C9     C     0.70558   0.96437   0.20017   0.00000  Uiso   1.00
C10    C     0.93229   0.80017   0.09195   0.00000  Uiso   1.00
C11    C     0.90802   0.75474   0.09498   0.00000  Uiso   1.00
C12    C     0.82027   0.73579   0.07078   0.00000  Uiso   1.00
C13    C     0.68623   0.68923   0.03805   0.00000  Uiso   1.00
C14    C     0.91189   0.87477   0.06724   0.00000  Uiso   1.00
C15    C     0.06619   0.87554   0.06522   0.00000  Uiso   1.00
C16    C     0.14256   0.89851   0.04061   0.00000  Uiso   1.00
C17    C     0.28248   0.89497   0.04321   0.00000  Uiso   1.00
C18    C     0.87563   0.89072   0.10396   0.00000  Uiso   1.00
C19    C     0.79175   0.92646   0.11193   0.00000  Uiso   1.00
C20    C     0.77123   0.93571   0.14715   0.00000  Uiso   1.00
C21    C     0.87108   0.82576   0.06568   0.00000  Uiso   1.00
C22    C     0.78334   0.80688   0.04147   0.00000  Uiso   1.00
C23    C     0.75895   0.76143   0.04446   0.00000  Uiso   1.00
H24    H     0.07225   0.80772   0.13606   0.00000  Uiso   1.00
H25    H     0.31459   0.82656   0.11445   0.00000  Uiso   1.00
H26    H     0.96382   0.85451   0.18576   0.00000  Uiso   1.00
H27    H     0.95541   0.73495   0.11531   0.00000  Uiso   1.00
H28    H     0.55626   0.85875   0.07893   0.00000  Uiso   1.00
H29    H     0.81662   0.91767   0.22929   0.00000  Uiso   1.00
H30    H     0.79888   0.66554   0.08073   0.00000  Uiso   1.00
H31    H     0.86423   0.89470   0.04679   0.00000  Uiso   1.00
H32    H     0.09516   0.91831   0.02029   0.00000  Uiso   1.00
H33    H     0.74439   0.94626   0.09160   0.00000  Uiso   1.00
H34    H     0.73598   0.82670   0.02115   0.00000  Uiso   1.00
H35    H     0.37816   0.93322   0.00250   0.00000  Uiso   1.00
H36    H     0.63851   0.99213   0.15286   0.00000  Uiso   1.00
H37    H     0.62079   0.74001   0.00430   0.00000  Uiso   1.00
O38    O     0.62288   0.90996   0.02490   0.00000  Uiso   1.00
O39    O     0.65247   0.98725   0.22216   0.00000  Uiso   1.00
O40    O     0.62922   0.65647   0.02726   0.00000  Uiso   1.00
N41    N     0.48265   0.87303   0.06457   0.00000  Uiso   1.00
N42    N     0.79115   0.92812   0.20515   0.00000  Uiso   1.00
N43    N     0.77454   0.69241   0.06627   0.00000  Uiso   1.00
N44    N     0.38682   0.91310   0.02345   0.00000  Uiso   1.00
N45    N     0.69532   0.96819   0.16403   0.00000  Uiso   1.00
N46    N     0.67871   0.73248   0.02514   0.00000  Uiso   1.00
C47    C     0.00862   0.58373   0.36996   0.00000  Uiso   1.00
C48    C     0.11269   0.56549   0.39576   0.00000  Uiso   1.00
C49    C     0.25219   0.57029   0.39312   0.00000  Uiso   1.00
C50    C     0.33006   0.55115   0.41940   0.00000  Uiso   1.00
C51    C     0.50073   0.52633   0.45521   0.00000  Uiso   1.00
C52    C     0.92522   0.54375   0.35795   0.00000  Uiso   1.00
C53    C     0.90707   0.53026   0.32351   0.00000  Uiso   1.00
C54    C     0.82711   0.49283   0.31796   0.00000  Uiso   1.00
C55    C     0.70664   0.43427   0.29505   0.00000  Uiso   1.00
C56    C     0.91273   0.61282   0.39137   0.00000  Uiso   1.00
C57    C     0.88405   0.65740   0.38504   0.00000  Uiso   1.00
C58    C     0.79355   0.67811   0.40762   0.00000  Uiso   1.00
C59    C     0.65369   0.72679   0.43662   0.00000  Uiso   1.00
C60    C     0.89886   0.54122   0.42132   0.00000  Uiso   1.00
C61    C     0.05307   0.54240   0.42366   0.00000  Uiso   1.00
C62    C     0.13076   0.52326   0.44994   0.00000  Uiso   1.00
C63    C     0.27034   0.52803   0.44735   0.00000  Uiso   1.00
C64    C     0.86560   0.52066   0.38584   0.00000  Uiso   1.00
C65    C     0.78564   0.48324   0.38033   0.00000  Uiso   1.00
C66    C     0.76738   0.46970   0.34590   0.00000  Uiso   1.00
C67    C     0.85311   0.58973   0.41927   0.00000  Uiso   1.00
C68    C     0.76263   0.61038   0.44186   0.00000  Uiso   1.00
C69    C     0.73382   0.65499   0.43557   0.00000  Uiso   1.00
H70    H     0.05502   0.60170   0.34824   0.00000  Uiso   1.00
H71    H     0.29828   0.58815   0.37153   0.00000  Uiso   1.00
H72    H     0.95321   0.54814   0.30193   0.00000  Uiso   1.00
H73    H     0.93020   0.67526   0.36345   0.00000  Uiso   1.00
H74    H     0.54169   0.56294   0.40964   0.00000  Uiso   1.00
H75    H     0.81405   0.47858   0.26289   0.00000  Uiso   1.00
H76    H     0.76553   0.74663   0.39261   0.00000  Uiso   1.00
H77    H     0.85244   0.52325   0.44304   0.00000  Uiso   1.00
H78    H     0.08459   0.50540   0.47153   0.00000  Uiso   1.00
H79    H     0.73952   0.46538   0.40193   0.00000  Uiso   1.00
H80    H     0.71651   0.59250   0.46345   0.00000  Uiso   1.00
H81    H     0.36825   0.49577   0.49080   0.00000  Uiso   1.00
H82    H     0.64060   0.41141   0.34405   0.00000  Uiso   1.00
H83    H     0.59209   0.67946   0.47378   0.00000  Uiso   1.00
O84    O     0.61134   0.51901   0.46725   0.00000  Uiso   1.00
O85    O     0.65668   0.40834   0.27471   0.00000  Uiso   1.00
O86    O     0.59303   0.76002   0.44491   0.00000  Uiso   1.00
N87    N     0.46901   0.54959   0.42484   0.00000  Uiso   1.00
N88    N     0.78872   0.47071   0.28763   0.00000  Uiso   1.00
N89    N     0.74334   0.72131   0.40891   0.00000  Uiso   1.00
N90    N     0.37569   0.51344   0.46851   0.00000  Uiso   1.00
N91    N     0.69540   0.43457   0.33130   0.00000  Uiso   1.00
N92    N     0.65001   0.68517   0.45258   0.00000  Uiso   1.00
C93    C     0.47540   0.67235   0.61560   0.00000  Uiso   1.00
C94    C     0.37258   0.65006   0.59149   0.00000  Uiso   1.00
C95    C     0.23275   0.65363   0.59412   0.00000  Uiso   1.00
C96    C     0.15620   0.63067   0.56953   0.00000  Uiso   1.00
C97    C     0.98723   0.59993   0.53609   0.00000  Uiso   1.00
C98    C     0.56315   0.63487   0.63023   0.00000  Uiso   1.00
C99    C     0.58356   0.62568   0.66544   0.00000  Uiso   1.00
C100   C     0.66744   0.58994   0.67346   0.00000  Uiso   1.00
C101   C     0.79442   0.53563   0.70017   0.00000  Uiso   1.00
C102   C     0.56771   0.69983   0.59195   0.00000  Uiso   1.00
C103   C     0.59198   0.74526   0.59498   0.00000  Uiso   1.00
C104   C     0.67973   0.76421   0.57078   0.00000  Uiso   1.00
C105   C     0.81377   0.81077   0.53805   0.00000  Uiso   1.00
C106   C     0.58811   0.62523   0.56724   0.00000  Uiso   1.00
C107   C     0.43381   0.62446   0.56522   0.00000  Uiso   1.00
C108   C     0.35744   0.60149   0.54061   0.00000  Uiso   1.00
C109   C     0.21752   0.60503   0.54321   0.00000  Uiso   1.00
C110   C     0.62437   0.60928   0.60396   0.00000  Uiso   1.00
C111   C     0.70825   0.57354   0.61193   0.00000  Uiso   1.00
C112   C     0.72877   0.56429   0.64715   0.00000  Uiso   1.00
C113   C     0.62892   0.67424   0.56568   0.00000  Uiso   1.00
C114   C     0.71666   0.69312   0.54147   0.00000  Uiso   1.00
C115   C     0.74105   0.73857   0.54446   0.00000  Uiso   1.00
H116   H     0.42775   0.69228   0.63606   0.00000  Uiso   1.00
H117   H     0.18541   0.67344   0.61445   0.00000  Uiso   1.00
H118   H     0.53618   0.64549   0.68576   0.00000  Uiso   1.00
H119   H     0.54459   0.76505   0.61531   0.00000  Uiso   1.00
H120   H     0.94374   0.64125   0.57893   0.00000  Uiso   1.00
H121   H     0.68338   0.58233   0.72929   0.00000  Uiso   1.00
H122   H     0.70112   0.83446   0.58073   0.00000  Uiso   1.00
H123   H     0.63577   0.60530   0.54679   0.00000  Uiso   1.00
H124   H     0.40484   0.58169   0.52029   0.00000  Uiso   1.00
H125   H     0.75561   0.55374   0.59160   0.00000  Uiso   1.00
H126   H     0.76402   0.67330   0.52115   0.00000  Uiso   1.00
H127   H     0.12184   0.56678   0.50250   0.00000  Uiso   1.00
H128   H     0.86149   0.50787   0.65286   0.00000  Uiso   1.00
H129   H     0.87921   0.75999   0.50430   0.00000  Uiso   1.00
O130   O     0.87712   0.59004   0.52490   0.00000  Uiso   1.00
O131   O     0.84753   0.51275   0.72216   0.00000  Uiso   1.00
O132   O     0.87078   0.84353   0.52726   0.00000  Uiso   1.00
N133   N     0.01735   0.62697   0.56457   0.00000  Uiso   1.00
N134   N     0.70885   0.57188   0.70515   0.00000  Uiso   1.00
N135   N     0.72546   0.80759   0.56627   0.00000  Uiso   1.00
N136   N     0.11318   0.58690   0.52345   0.00000  Uiso   1.00
N137   N     0.80468   0.53181   0.66403   0.00000  Uiso   1.00
N138   N     0.82129   0.76752   0.52514   0.00000  Uiso   1.00
C139   C     0.49138   0.91627   0.86996   0.00000  Uiso   1.00
C140   C     0.38731   0.93451   0.89576   0.00000  Uiso   1.00
C141   C     0.24781   0.92971   0.89312   0.00000  Uiso   1.00
C142   C     0.16994   0.94885   0.91940   0.00000  Uiso   1.00
C143   C     0.99927   0.97367   0.95521   0.00000  Uiso   1.00
C144   C     0.57478   0.95625   0.85795   0.00000  Uiso   1.00
C145   C     0.59293   0.96974   0.82351   0.00000  Uiso   1.00
C146   C     0.67289   0.00717   0.81796   0.00000  Uiso   1.00
C147   C     0.79336   0.06573   0.79505   0.00000  Uiso   1.00
C148   C     0.58727   0.88718   0.89137   0.00000  Uiso   1.00
C149   C     0.61595   0.84260   0.88504   0.00000  Uiso   1.00
C150   C     0.70645   0.82189   0.90762   0.00000  Uiso   1.00
C151   C     0.84631   0.77321   0.93662   0.00000  Uiso   1.00
C152   C     0.60114   0.95878   0.92132   0.00000  Uiso   1.00
C153   C     0.44693   0.95760   0.92366   0.00000  Uiso   1.00
C154   C     0.36924   0.97674   0.94994   0.00000  Uiso   1.00
C155   C     0.22966   0.97197   0.94735   0.00000  Uiso   1.00
C156   C     0.63440   0.97934   0.88584   0.00000  Uiso   1.00
C157   C     0.71436   0.01676   0.88033   0.00000  Uiso   1.00
C158   C     0.73262   0.03030   0.84590   0.00000  Uiso   1.00
C159   C     0.64689   0.91027   0.91927   0.00000  Uiso   1.00
C160   C     0.73737   0.88962   0.94186   0.00000  Uiso   1.00
C161   C     0.76618   0.84501   0.93557   0.00000  Uiso   1.00
H162   H     0.44498   0.89830   0.84824   0.00000  Uiso   1.00
H163   H     0.20172   0.91185   0.87153   0.00000  Uiso   1.00
H164   H     0.54679   0.95186   0.80193   0.00000  Uiso   1.00
H165   H     0.56980   0.82474   0.86345   0.00000  Uiso   1.00
H166   H     0.95831   0.93706   0.90964   0.00000  Uiso   1.00
H167   H     0.68595   0.02142   0.76289   0.00000  Uiso   1.00
H168   H     0.73447   0.75337   0.89261   0.00000  Uiso   1.00
H169   H     0.64756   0.97675   0.94304   0.00000  Uiso   1.00
H170   H     0.41541   0.99460   0.97153   0.00000  Uiso   1.00
H171   H     0.76048   0.03462   0.90193   0.00000  Uiso   1.00
H172   H     0.78349   0.90750   0.96345   0.00000  Uiso   1.00
H173   H     0.13175   0.00423   0.99080   0.00000  Uiso   1.00
H174   H     0.85940   0.08859   0.84405   0.00000  Uiso   1.00
H175   H     0.90791   0.82054   0.97378   0.00000  Uiso   1.00
O176   O     0.88866   0.98099   0.96725   0.00000  Uiso   1.00
O177   O     0.84332   0.09166   0.77471   0.00000  Uiso   1.00
O178   O     0.90697   0.73998   0.94491   0.00000  Uiso   1.00
N179   N     0.03099   0.95041   0.92484   0.00000  Uiso   1.00
N180   N     0.71128   0.02929   0.78763   0.00000  Uiso   1.00
N181   N     0.75666   0.77869   0.90891   0.00000  Uiso   1.00
N182   N     0.12431   0.98656   0.96851   0.00000  Uiso   1.00
N183   N     0.80460   0.06543   0.83130   0.00000  Uiso   1.00
N184   N     0.84999   0.81483   0.95258   0.00000  Uiso   1.00
C185   C     0.97540   0.82765   0.38440   0.00000  Uiso   1.00
C186   C     0.87258   0.84994   0.40851   0.00000  Uiso   1.00
C187   C     0.73275   0.84637   0.40588   0.00000  Uiso   1.00
C188   C     0.65620   0.86933   0.43047   0.00000  Uiso   1.00
C189   C     0.48723   0.90007   0.46391   0.00000  Uiso   1.00
C190   C     0.06315   0.86513   0.36977   0.00000  Uiso   1.00
C191   C     0.08356   0.87432   0.33456   0.00000  Uiso   1.00
C192   C     0.16744   0.91006   0.32654   0.00000  Uiso   1.00
C193   C     0.29442   0.96437   0.29983   0.00000  Uiso   1.00
C194   C     0.06771   0.80017   0.40805   0.00000  Uiso   1.00
C195   C     0.09198   0.75474   0.40502   0.00000  Uiso   1.00
C196   C     0.17973   0.73579   0.42922   0.00000  Uiso   1.00
C197   C     0.31377   0.68923   0.46195   0.00000  Uiso   1.00
C198   C     0.08811   0.87477   0.43276   0.00000  Uiso   1.00
C199   C     0.93381   0.87554   0.43478   0.00000  Uiso   1.00
C200   C     0.85744   0.89851   0.45939   0.00000  Uiso   1.00
C201   C     0.71752   0.89497   0.45679   0.00000  Uiso   1.00
C202   C     0.12437   0.89072   0.39604   0.00000  Uiso   1.00
C203   C     0.20825   0.92646   0.38807   0.00000  Uiso   1.00
C204   C     0.22877   0.93571   0.35285   0.00000  Uiso   1.00
C205   C     0.12892   0.82576   0.43432   0.00000  Uiso   1.00
C206   C     0.21666   0.80688   0.45853   0.00000  Uiso   1.00
C207   C     0.24105   0.76143   0.45554   0.00000  Uiso   1.00
H208   H     0.92775   0.80772   0.36394   0.00000  Uiso   1.00
H209   H     0.68541   0.82656   0.38555   0.00000  Uiso   1.00
H210   H     0.03618   0.85451   0.31424   0.00000  Uiso   1.00
H211   H     0.04459   0.73495   0.38469   0.00000  Uiso   1.00
H212   H     0.44374   0.85875   0.42107   0.00000  Uiso   1.00
H213   H     0.18338   0.91767   0.27071   0.00000  Uiso   1.00
H214   H     0.20112   0.66554   0.41927   0.00000  Uiso   1.00
H215   H     0.13577   0.89470   0.45321   0.00000  Uiso   1.00
H216   H     0.90484   0.91831   0.47971   0.00000  Uiso   1.00
H217   H     0.25561   0.94626   0.40840   0.00000  Uiso   1.00
H218   H     0.26402   0.82670   0.47885   0.00000  Uiso   1.00
H219   H     0.62184   0.93322   0.49750   0.00000  Uiso   1.00
H220   H     0.36149   0.99213   0.34714   0.00000  Uiso   1.00
H221   H     0.37921   0.74001   0.49570   0.00000  Uiso   1.00
O222   O     0.37712   0.90996   0.47510   0.00000  Uiso   1.00
O223   O     0.34753   0.98725   0.27784   0.00000  Uiso   1.00
O224   O     0.37078   0.65647   0.47274   0.00000  Uiso   1.00
N225   N     0.51735   0.87303   0.43543   0.00000  Uiso   1.00
N226   N     0.20885   0.92812   0.29485   0.00000  Uiso   1.00
N227   N     0.22546   0.69241   0.43373   0.00000  Uiso   1.00
N228   N     0.61318   0.91310   0.47655   0.00000  Uiso   1.00
N229   N     0.30468   0.96819   0.33597   0.00000  Uiso   1.00
N230   N     0.32129   0.73248   0.47486   0.00000  Uiso   1.00
C231   C     0.99138   0.58373   0.13004   0.00000  Uiso   1.00
C232   C     0.88731   0.56549   0.10424   0.00000  Uiso   1.00
C233   C     0.74781   0.57029   0.10688   0.00000  Uiso   1.00
C234   C     0.66994   0.55115   0.08060   0.00000  Uiso   1.00
C235   C     0.49927   0.52633   0.04479   0.00000  Uiso   1.00
C236   C     0.07478   0.54375   0.14205   0.00000  Uiso   1.00
C237   C     0.09293   0.53026   0.17649   0.00000  Uiso   1.00
C238   C     0.17289   0.49283   0.18204   0.00000  Uiso   1.00
C239   C     0.29336   0.43427   0.20495   0.00000  Uiso   1.00
C240   C     0.08727   0.61282   0.10863   0.00000  Uiso   1.00
C241   C     0.11595   0.65740   0.11496   0.00000  Uiso   1.00
C242   C     0.20645   0.67811   0.09238   0.00000  Uiso   1.00
C243   C     0.34631   0.72679   0.06338   0.00000  Uiso   1.00
C244   C     0.10114   0.54122   0.07868   0.00000  Uiso   1.00
C245   C     0.94693   0.54240   0.07634   0.00000  Uiso   1.00
C246   C     0.86924   0.52326   0.05006   0.00000  Uiso   1.00
C247   C     0.72966   0.52803   0.05265   0.00000  Uiso   1.00
C248   C     0.13440   0.52066   0.11416   0.00000  Uiso   1.00
C249   C     0.21436   0.48324   0.11967   0.00000  Uiso   1.00
C250   C     0.23262   0.46970   0.15410   0.00000  Uiso   1.00
C251   C     0.14689   0.58973   0.08073   0.00000  Uiso   1.00
C252   C     0.23737   0.61038   0.05814   0.00000  Uiso   1.00
C253   C     0.26618   0.65499   0.06443   0.00000  Uiso   1.00
H254   H     0.94498   0.60170   0.15176   0.00000  Uiso   1.00
H255   H     0.70172   0.58815   0.12847   0.00000  Uiso   1.00
H256   H     0.04679   0.54814   0.19807   0.00000  Uiso   1.00
H257   H     0.06980   0.67526   0.13655   0.00000  Uiso   1.00
H258   H     0.45831   0.56294   0.09036   0.00000  Uiso   1.00
H259   H     0.18595   0.47858   0.23711   0.00000  Uiso   1.00
H260   H     0.23447   0.74663   0.10739   0.00000  Uiso   1.00
H261   H     0.14756   0.52325   0.05696   0.00000  Uiso   1.00
H262   H     0.91541   0.50540   0.02847   0.00000  Uiso   1.00
H263   H     0.26048   0.46538   0.09807   0.00000  Uiso   1.00
H264   H     0.28349   0.59250   0.03655   0.00000  Uiso   1.00
H265   H     0.63175   0.49577   0.00920   0.00000  Uiso   1.00
H266   H     0.35940   0.41141   0.15595   0.00000  Uiso   1.00
H267   H     0.40791   0.67946   0.02622   0.00000  Uiso   1.00
O268   O     0.38866   0.51901   0.03275   0.00000  Uiso   1.00
O269   O     0.34332   0.40834   0.22529   0.00000  Uiso   1.00
O270   O     0.40697   0.76002   0.05509   0.00000  Uiso   1.00
N271   N     0.53099   0.54959   0.07516   0.00000  Uiso   1.00
N272   N     0.21128   0.47071   0.21237   0.00000  Uiso   1.00
N273   N     0.25666   0.72131   0.09109   0.00000  Uiso   1.00
N274   N     0.62431   0.51344   0.03149   0.00000  Uiso   1.00
N275   N     0.30460   0.43457   0.16870   0.00000  Uiso   1.00
N276   N     0.34999   0.68517   0.04742   0.00000  Uiso   1.00
C277   C     0.52460   0.67235   0.88440   0.00000  Uiso   1.00
C278   C     0.62742   0.65006   0.90851   0.00000  Uiso   1.00
C279   C     0.76725   0.65363   0.90588   0.00000  Uiso   1.00
C280   C     0.84380   0.63067   0.93047   0.00000  Uiso   1.00
C281   C     0.01277   0.59993   0.96391   0.00000  Uiso   1.00
C282   C     0.43685   0.63487   0.86977   0.00000  Uiso   1.00
C283   C     0.41644   0.62568   0.83456   0.00000  Uiso   1.00
C284   C     0.33256   0.58994   0.82654   0.00000  Uiso   1.00
C285   C     0.20558   0.53563   0.79983   0.00000  Uiso   1.00
C286   C     0.43229   0.69983   0.90805   0.00000  Uiso   1.00
C287   C     0.40802   0.74526   0.90502   0.00000  Uiso   1.00
C288   C     0.32027   0.76421   0.92922   0.00000  Uiso   1.00
C289   C     0.18623   0.81077   0.96195   0.00000  Uiso   1.00
C290   C     0.41189   0.62523   0.93276   0.00000  Uiso   1.00
C291   C     0.56619   0.62446   0.93478   0.00000  Uiso   1.00
C292   C     0.64256   0.60149   0.95939   0.00000  Uiso   1.00
C293   C     0.78248   0.60503   0.95679   0.00000  Uiso   1.00
C294   C     0.37563   0.60928   0.89604   0.00000  Uiso   1.00
C295   C     0.29175   0.57354   0.88807   0.00000  Uiso   1.00
C296   C     0.27123   0.56429   0.85285   0.00000  Uiso   1.00
C297   C     0.37108   0.67424   0.93432   0.00000  Uiso   1.00
C298   C     0.28334   0.69312   0.95853   0.00000  Uiso   1.00
C299   C     0.25895   0.73857   0.95554   0.00000  Uiso   1.00
H300   H     0.57225   0.69228   0.86394   0.00000  Uiso   1.00
H301   H     0.81459   0.67344   0.88555   0.00000  Uiso   1.00
H302   H     0.46382   0.64549   0.81424   0.00000  Uiso   1.00
H303   H     0.45541   0.76505   0.88469   0.00000  Uiso   1.00
H304   H     0.05626   0.64125   0.92107   0.00000  Uiso   1.00
H305   H     0.31662   0.58233   0.77071   0.00000  Uiso   1.00
H306   H     0.29888   0.83446   0.91927   0.00000  Uiso   1.00
H307   H     0.36423   0.60530   0.95321   0.00000  Uiso   1.00
H308   H     0.59516   0.58169   0.97971   0.00000  Uiso   1.00
H309   H     0.24439   0.55374   0.90840   0.00000  Uiso   1.00
H310   H     0.23598   0.67330   0.97885   0.00000  Uiso   1.00
H311   H     0.87816   0.56678   0.99750   0.00000  Uiso   1.00
H312   H     0.13851   0.50787   0.84714   0.00000  Uiso   1.00
H313   H     0.12079   0.75999   0.99570   0.00000  Uiso   1.00
O314   O     0.12288   0.59004   0.97510   0.00000  Uiso   1.00
O315   O     0.15247   0.51275   0.77784   0.00000  Uiso   1.00
O316   O     0.12922   0.84353   0.97274   0.00000  Uiso   1.00
N317   N     0.98265   0.62697   0.93543   0.00000  Uiso   1.00
N318   N     0.29115   0.57188   0.79485   0.00000  Uiso   1.00
N319   N     0.27454   0.80759   0.93373   0.00000  Uiso   1.00
N320   N     0.88682   0.58690   0.97655   0.00000  Uiso   1.00
N321   N     0.19532   0.53181   0.83597   0.00000  Uiso   1.00
N322   N     0.17871   0.76752   0.97486   0.00000  Uiso   1.00
C323   C     0.50862   0.91627   0.63004   0.00000  Uiso   1.00
C324   C     0.61269   0.93451   0.60424   0.00000  Uiso   1.00
C325   C     0.75219   0.92971   0.60688   0.00000  Uiso   1.00
C326   C     0.83006   0.94885   0.58060   0.00000  Uiso   1.00
C327   C     0.00073   0.97367   0.54479   0.00000  Uiso   1.00
C328   C     0.42522   0.95625   0.64205   0.00000  Uiso   1.00
C329   C     0.40707   0.96974   0.67649   0.00000  Uiso   1.00
C330   C     0.32711   0.00717   0.68204   0.00000  Uiso   1.00
C331   C     0.20664   0.06573   0.70495   0.00000  Uiso   1.00
C332   C     0.41273   0.88718   0.60863   0.00000  Uiso   1.00
C333   C     0.38405   0.84260   0.61496   0.00000  Uiso   1.00
C334   C     0.29355   0.82189   0.59238   0.00000  Uiso   1.00
C335   C     0.15369   0.77321   0.56338   0.00000  Uiso   1.00
C336   C     0.39886   0.95878   0.57868   0.00000  Uiso   1.00
C337   C     0.55307   0.95760   0.57634   0.00000  Uiso   1.00
C338   C     0.63076   0.97674   0.55006   0.00000  Uiso   1.00
C339   C     0.77034   0.97197   0.55265   0.00000  Uiso   1.00
C340   C     0.36560   0.97934   0.61416   0.00000  Uiso   1.00
C341   C     0.28564   0.01676   0.61967   0.00000  Uiso   1.00
C342   C     0.26738   0.03030   0.65410   0.00000  Uiso   1.00
C343   C     0.35311   0.91027   0.58073   0.00000  Uiso   1.00
C344   C     0.26263   0.88962   0.55814   0.00000  Uiso   1.00
C345   C     0.23382   0.84501   0.56443   0.00000  Uiso   1.00
H346   H     0.55502   0.89830   0.65176   0.00000  Uiso   1.00
H347   H     0.79828   0.91185   0.62847   0.00000  Uiso   1.00
H348   H     0.45321   0.95186   0.69807   0.00000  Uiso   1.00
H349   H     0.43020   0.82474   0.63655   0.00000  Uiso   1.00
H350   H     0.04169   0.93706   0.59036   0.00000  Uiso   1.00
H351   H     0.31405   0.02142   0.73711   0.00000  Uiso   1.00
H352   H     0.26553   0.75337   0.60739   0.00000  Uiso   1.00
H353   H     0.35244   0.97675   0.55696   0.00000  Uiso   1.00
H354   H     0.58459   0.99460   0.52847   0.00000  Uiso   1.00
H355   H     0.23952   0.03462   0.59807   0.00000  Uiso   1.00
H356   H     0.21651   0.90750   0.53655   0.00000  Uiso   1.00
H357   H     0.86825   0.00423   0.50920   0.00000  Uiso   1.00
H358   H     0.14060   0.08859   0.65595   0.00000  Uiso   1.00
H359   H     0.09209   0.82054   0.52622   0.00000  Uiso   1.00
O360   O     0.11134   0.98099   0.53275   0.00000  Uiso   1.00
O361   O     0.15668   0.09166   0.72529   0.00000  Uiso   1.00
O362   O     0.09303   0.73998   0.55509   0.00000  Uiso   1.00
N363   N     0.96901   0.95041   0.57516   0.00000  Uiso   1.00
N364   N     0.28872   0.02929   0.71237   0.00000  Uiso   1.00
N365   N     0.24334   0.77869   0.59109   0.00000  Uiso   1.00
N366   N     0.87569   0.98656   0.53149   0.00000  Uiso   1.00
N367   N     0.19540   0.06543   0.66870   0.00000  Uiso   1.00
N368   N     0.15001   0.81483   0.54742   0.00000  Uiso   1.00
C369   C     0.97540   0.17235   0.88440   0.00000  Uiso   1.00
C370   C     0.87258   0.15006   0.90851   0.00000  Uiso   1.00
C371   C     0.73275   0.15363   0.90588   0.00000  Uiso   1.00
C372   C     0.65620   0.13067   0.93047   0.00000  Uiso   1.00
C373   C     0.48723   0.09993   0.96391   0.00000  Uiso   1.00
C374   C     0.06315   0.13487   0.86977   0.00000  Uiso   1.00
C375   C     0.08356   0.12568   0.83456   0.00000  Uiso   1.00
C376   C     0.16744   0.08994   0.82654   0.00000  Uiso   1.00
C377   C     0.29442   0.03563   0.79983   0.00000  Uiso   1.00
C378   C     0.06771   0.19983   0.90805   0.00000  Uiso   1.00
C379   C     0.09198   0.24526   0.90502   0.00000  Uiso   1.00
C380   C     0.17973   0.26421   0.92922   0.00000  Uiso   1.00
C381   C     0.31377   0.31077   0.96195   0.00000  Uiso   1.00
C382   C     0.08811   0.12523   0.93276   0.00000  Uiso   1.00
C383   C     0.93381   0.12446   0.93478   0.00000  Uiso   1.00
C384   C     0.85744   0.10149   0.95939   0.00000  Uiso   1.00
C385   C     0.71752   0.10503   0.95679   0.00000  Uiso   1.00
C386   C     0.12437   0.10928   0.89604   0.00000  Uiso   1.00
C387   C     0.20825   0.07354   0.88807   0.00000  Uiso   1.00
C388   C     0.22877   0.06429   0.85285   0.00000  Uiso   1.00
C389   C     0.12892   0.17424   0.93432   0.00000  Uiso   1.00
C390   C     0.21666   0.19312   0.95853   0.00000  Uiso   1.00
C391   C     0.24105   0.23857   0.95554   0.00000  Uiso   1.00
H392   H     0.92775   0.19228   0.86394   0.00000  Uiso   1.00
H393   H     0.68541   0.17344   0.88555   0.00000  Uiso   1.00
H394   H     0.03618   0.14549   0.81424   0.00000  Uiso   1.00
H395   H     0.04459   0.26505   0.88469   0.00000  Uiso   1.00
H396   H     0.44374   0.14125   0.92107   0.00000  Uiso   1.00
H397   H     0.18338   0.08233   0.77071   0.00000  Uiso   1.00
H398   H     0.20112   0.33446   0.91927   0.00000  Uiso   1.00
H399   H     0.13577   0.10530   0.95321   0.00000  Uiso   1.00
H400   H     0.90484   0.08169   0.97971   0.00000  Uiso   1.00
H401   H     0.25561   0.05374   0.90840   0.00000  Uiso   1.00
H402   H     0.26402   0.17330   0.97885   0.00000  Uiso   1.00
H403   H     0.62184   0.06678   0.99750   0.00000  Uiso   1.00
H404   H     0.36149   0.00787   0.84714   0.00000  Uiso   1.00
H405   H     0.37921   0.25999   0.99570   0.00000  Uiso   1.00
O406   O     0.37712   0.09004   0.97510   0.00000  Uiso   1.00
O407   O     0.34753   0.01275   0.77784   0.00000  Uiso   1.00
O408   O     0.37078   0.34353   0.97274   0.00000  Uiso   1.00
N409   N     0.51735   0.12697   0.93543   0.00000  Uiso   1.00
N410   N     0.20885   0.07188   0.79485   0.00000  Uiso   1.00
N411   N     0.22546   0.30759   0.93373   0.00000  Uiso   1.00
N412   N     0.61318   0.08690   0.97655   0.00000  Uiso   1.00
N413   N     0.30468   0.03181   0.83597   0.00000  Uiso   1.00
N414   N     0.32129   0.26752   0.97486   0.00000  Uiso   1.00
C415   C     0.99138   0.41627   0.63004   0.00000  Uiso   1.00
C416   C     0.88731   0.43451   0.60424   0.00000  Uiso   1.00
C417   C     0.74781   0.42971   0.60688   0.00000  Uiso   1.00
C418   C     0.66994   0.44885   0.58060   0.00000  Uiso   1.00
C419   C     0.49927   0.47367   0.54479   0.00000  Uiso   1.00
C420   C     0.07478   0.45625   0.64205   0.00000  Uiso   1.00
C421   C     0.09293   0.46974   0.67649   0.00000  Uiso   1.00
C422   C     0.17289   0.50717   0.68204   0.00000  Uiso   1.00
C423   C     0.29336   0.56573   0.70495   0.00000  Uiso   1.00
C424   C     0.08727   0.38718   0.60863   0.00000  Uiso   1.00
C425   C     0.11595   0.34260   0.61496   0.00000  Uiso   1.00
C426   C     0.20645   0.32189   0.59238   0.00000  Uiso   1.00
C427   C     0.34631   0.27321   0.56338   0.00000  Uiso   1.00
C428   C     0.10114   0.45878   0.57868   0.00000  Uiso   1.00
C429   C     0.94693   0.45760   0.57634   0.00000  Uiso   1.00
C430   C     0.86924   0.47674   0.55006   0.00000  Uiso   1.00
C431   C     0.72966   0.47197   0.55265   0.00000  Uiso   1.00
C432   C     0.13440   0.47934   0.61416   0.00000  Uiso   1.00
C433   C     0.21436   0.51676   0.61967   0.00000  Uiso   1.00
C434   C     0.23262   0.53030   0.65410   0.00000  Uiso   1.00
C435   C     0.14689   0.41027   0.58073   0.00000  Uiso   1.00
C436   C     0.23737   0.38962   0.55814   0.00000  Uiso   1.00
C437   C     0.26618   0.34501   0.56443   0.00000  Uiso   1.00
H438   H     0.94498   0.39830   0.65176   0.00000  Uiso   1.00
H439   H     0.70172   0.41185   0.62847   0.00000  Uiso   1.00
H440   H     0.04679   0.45186   0.69807   0.00000  Uiso   1.00
H441   H     0.06980   0.32474   0.63655   0.00000  Uiso   1.00
H442   H     0.45831   0.43706   0.59036   0.00000  Uiso   1.00
H443   H     0.18595   0.52142   0.73711   0.00000  Uiso   1.00
H444   H     0.23447   0.25337   0.60739   0.00000  Uiso   1.00
H445   H     0.14756   0.47675   0.55696   0.00000  Uiso   1.00
H446   H     0.91541   0.49460   0.52847   0.00000  Uiso   1.00
H447   H     0.26048   0.53462   0.59807   0.00000  Uiso   1.00
H448   H     0.28349   0.40750   0.53655   0.00000  Uiso   1.00
H449   H     0.63175   0.50423   0.50920   0.00000  Uiso   1.00
H450   H     0.35940   0.58859   0.65595   0.00000  Uiso   1.00
H451   H     0.40791   0.32054   0.52622   0.00000  Uiso   1.00
O452   O     0.38866   0.48099   0.53275   0.00000  Uiso   1.00
O453   O     0.34332   0.59166   0.72529   0.00000  Uiso   1.00
O454   O     0.40697   0.23998   0.55509   0.00000  Uiso   1.00
N455   N     0.53099   0.45041   0.57516   0.00000  Uiso   1.00
N456   N     0.21128   0.52929   0.71237   0.00000  Uiso   1.00
N457   N     0.25666   0.27869   0.59109   0.00000  Uiso   1.00
N458   N     0.62431   0.48656   0.53149   0.00000  Uiso   1.00
N459   N     0.30460   0.56543   0.66870   0.00000  Uiso   1.00
N460   N     0.34999   0.31483   0.54742   0.00000  Uiso   1.00
C461   C     0.52460   0.32765   0.38440   0.00000  Uiso   1.00
C462   C     0.62742   0.34994   0.40851   0.00000  Uiso   1.00
C463   C     0.76725   0.34637   0.40588   0.00000  Uiso   1.00
C464   C     0.84380   0.36933   0.43047   0.00000  Uiso   1.00
C465   C     0.01277   0.40007   0.46391   0.00000  Uiso   1.00
C466   C     0.43685   0.36513   0.36977   0.00000  Uiso   1.00
C467   C     0.41644   0.37432   0.33456   0.00000  Uiso   1.00
C468   C     0.33256   0.41006   0.32654   0.00000  Uiso   1.00
C469   C     0.20558   0.46437   0.29983   0.00000  Uiso   1.00
C470   C     0.43229   0.30017   0.40805   0.00000  Uiso   1.00
C471   C     0.40802   0.25474   0.40502   0.00000  Uiso   1.00
C472   C     0.32027   0.23579   0.42922   0.00000  Uiso   1.00
C473   C     0.18623   0.18923   0.46195   0.00000  Uiso   1.00
C474   C     0.41189   0.37477   0.43276   0.00000  Uiso   1.00
C475   C     0.56619   0.37554   0.43478   0.00000  Uiso   1.00
C476   C     0.64256   0.39851   0.45939   0.00000  Uiso   1.00
C477   C     0.78248   0.39497   0.45679   0.00000  Uiso   1.00
C478   C     0.37563   0.39072   0.39604   0.00000  Uiso   1.00
C479   C     0.29175   0.42646   0.38807   0.00000  Uiso   1.00
C480   C     0.27123   0.43571   0.35285   0.00000  Uiso   1.00
C481   C     0.37108   0.32576   0.43432   0.00000  Uiso   1.00
C482   C     0.28334   0.30688   0.45853   0.00000  Uiso   1.00
C483   C     0.25895   0.26143   0.45554   0.00000  Uiso   1.00
H484   H     0.57225   0.30772   0.36394   0.00000  Uiso   1.00
H485   H     0.81459   0.32656   0.38555   0.00000  Uiso   1.00
H486   H     0.46382   0.35451   0.31424   0.00000  Uiso   1.00
H487   H     0.45541   0.23495   0.38469   0.00000  Uiso   1.00
H488   H     0.05626   0.35875   0.42107   0.00000  Uiso   1.00
H489   H     0.31662   0.41767   0.27071   0.00000  Uiso   1.00
H490   H     0.29888   0.16554   0.41927   0.00000  Uiso   1.00
H491   H     0.36423   0.39470   0.45321   0.00000  Uiso   1.00
H492   H     0.59516   0.41831   0.47971   0.00000  Uiso   1.00
H493   H     0.24439   0.44626   0.40840   0.00000  Uiso   1.00
H494   H     0.23598   0.32670   0.47885   0.00000  Uiso   1.00
H495   H     0.87816   0.43322   0.49750   0.00000  Uiso   1.00
H496   H     0.13851   0.49213   0.34714   0.00000  Uiso   1.00
H497   H     0.12079   0.24001   0.49570   0.00000  Uiso   1.00
O498   O     0.12288   0.40996   0.47510   0.00000  Uiso   1.00
O499   O     0.15247   0.48725   0.27784   0.00000  Uiso   1.00
O500   O     0.12922   0.15647   0.47274   0.00000  Uiso   1.00
N501   N     0.98265   0.37303   0.43543   0.00000  Uiso   1.00
N502   N     0.29115   0.42812   0.29485   0.00000  Uiso   1.00
N503   N     0.27454   0.19241   0.43373   0.00000  Uiso   1.00
N504   N     0.88682   0.41310   0.47655   0.00000  Uiso   1.00
N505   N     0.19532   0.46819   0.33597   0.00000  Uiso   1.00
N506   N     0.17871   0.23248   0.47486   0.00000  Uiso   1.00
C507   C     0.50862   0.08373   0.13004   0.00000  Uiso   1.00
C508   C     0.61269   0.06549   0.10424   0.00000  Uiso   1.00
C509   C     0.75219   0.07029   0.10688   0.00000  Uiso   1.00
C510   C     0.83006   0.05115   0.08060   0.00000  Uiso   1.00
C511   C     0.00073   0.02633   0.04479   0.00000  Uiso   1.00
C512   C     0.42522   0.04375   0.14205   0.00000  Uiso   1.00
C513   C     0.40707   0.03026   0.17649   0.00000  Uiso   1.00
C514   C     0.32711   0.99283   0.18204   0.00000  Uiso   1.00
C515   C     0.20664   0.93427   0.20495   0.00000  Uiso   1.00
C516   C     0.41273   0.11282   0.10863   0.00000  Uiso   1.00
C517   C     0.38405   0.15740   0.11496   0.00000  Uiso   1.00
C518   C     0.29355   0.17811   0.09238   0.00000  Uiso   1.00
C519   C     0.15369   0.22679   0.06338   0.00000  Uiso   1.00
C520   C     0.39886   0.04122   0.07868   0.00000  Uiso   1.00
C521   C     0.55307   0.04240   0.07634   0.00000  Uiso   1.00
C522   C     0.63076   0.02326   0.05006   0.00000  Uiso   1.00
C523   C     0.77034   0.02803   0.05265   0.00000  Uiso   1.00
C524   C     0.36560   0.02066   0.11416   0.00000  Uiso   1.00
C525   C     0.28564   0.98324   0.11967   0.00000  Uiso   1.00
C526   C     0.26738   0.96970   0.15410   0.00000  Uiso   1.00
C527   C     0.35311   0.08973   0.08073   0.00000  Uiso   1.00
C528   C     0.26263   0.11038   0.05814   0.00000  Uiso   1.00
C529   C     0.23382   0.15499   0.06443   0.00000  Uiso   1.00
H530   H     0.55502   0.10170   0.15176   0.00000  Uiso   1.00
H531   H     0.79828   0.08815   0.12847   0.00000  Uiso   1.00
H532   H     0.45321   0.04814   0.19807   0.00000  Uiso   1.00
H533   H     0.43020   0.17526   0.13655   0.00000  Uiso   1.00
H534   H     0.04169   0.06294   0.09036   0.00000  Uiso   1.00
H535   H     0.31405   0.97858   0.23711   0.00000  Uiso   1.00
H536   H     0.26553   0.24663   0.10739   0.00000  Uiso   1.00
H537   H     0.35244   0.02325   0.05696   0.00000  Uiso   1.00
H538   H     0.58459   0.00540   0.02847   0.00000  Uiso   1.00
H539   H     0.23952   0.96538   0.09807   0.00000  Uiso   1.00
H540   H     0.21651   0.09250   0.03655   0.00000  Uiso   1.00
H541   H     0.86825   0.99577   0.00920   0.00000  Uiso   1.00
H542   H     0.14060   0.91141   0.15595   0.00000  Uiso   1.00
H543   H     0.09209   0.17946   0.02622   0.00000  Uiso   1.00
O544   O     0.11134   0.01901   0.03275   0.00000  Uiso   1.00
O545   O     0.15668   0.90834   0.22529   0.00000  Uiso   1.00
O546   O     0.09303   0.26002   0.05509   0.00000  Uiso   1.00
N547   N     0.96901   0.04959   0.07516   0.00000  Uiso   1.00
N548   N     0.28872   0.97071   0.21237   0.00000  Uiso   1.00
N549   N     0.24334   0.22131   0.09109   0.00000  Uiso   1.00
N550   N     0.87569   0.01344   0.03149   0.00000  Uiso   1.00
N551   N     0.19540   0.93457   0.16870   0.00000  Uiso   1.00
N552   N     0.15001   0.18517   0.04742   0.00000  Uiso   1.00
C553   C     0.02460   0.17235   0.61560   0.00000  Uiso   1.00
C554   C     0.12742   0.15006   0.59149   0.00000  Uiso   1.00
C555   C     0.26725   0.15363   0.59412   0.00000  Uiso   1.00
C556   C     0.34380   0.13067   0.56953   0.00000  Uiso   1.00
C557   C     0.51277   0.09993   0.53609   0.00000  Uiso   1.00
C558   C     0.93685   0.13487   0.63023   0.00000  Uiso   1.00
C559   C     0.91644   0.12568   0.66544   0.00000  Uiso   1.00
C560   C     0.83256   0.08994   0.67346   0.00000  Uiso   1.00
C561   C     0.70558   0.03563   0.70017   0.00000  Uiso   1.00
C562   C     0.93229   0.19983   0.59195   0.00000  Uiso   1.00
C563   C     0.90802   0.24526   0.59498   0.00000  Uiso   1.00
C564   C     0.82027   0.26421   0.57078   0.00000  Uiso   1.00
C565   C     0.68623   0.31077   0.53805   0.00000  Uiso   1.00
C566   C     0.91189   0.12523   0.56724   0.00000  Uiso   1.00
C567   C     0.06619   0.12446   0.56522   0.00000  Uiso   1.00
C568   C     0.14256   0.10149   0.54061   0.00000  Uiso   1.00
C569   C     0.28248   0.10503   0.54321   0.00000  Uiso   1.00
C570   C     0.87563   0.10928   0.60396   0.00000  Uiso   1.00
C571   C     0.79175   0.07354   0.61193   0.00000  Uiso   1.00
C572   C     0.77123   0.06429   0.64715   0.00000  Uiso   1.00
C573   C     0.87108   0.17424   0.56568   0.00000  Uiso   1.00
C574   C     0.78334   0.19312   0.54147   0.00000  Uiso   1.00
C575   C     0.75895   0.23857   0.54446   0.00000  Uiso   1.00
H576   H     0.07225   0.19228   0.63606   0.00000  Uiso   1.00
H577   H     0.31459   0.17344   0.61445   0.00000  Uiso   1.00
H578   H     0.96382   0.14549   0.68576   0.00000  Uiso   1.00
H579   H     0.95541   0.26505   0.61531   0.00000  Uiso   1.00
H580   H     0.55626   0.14125   0.57893   0.00000  Uiso   1.00
H581   H     0.81662   0.08233   0.72929   0.00000  Uiso   1.00
H582   H     0.79888   0.33446   0.58073   0.00000  Uiso   1.00
H583   H     0.86423   0.10530   0.54679   0.00000  Uiso   1.00
H584   H     0.09516   0.08169   0.52029   0.00000  Uiso   1.00
H585   H     0.74439   0.05374   0.59160   0.00000  Uiso   1.00
H586   H     0.73598   0.17330   0.52115   0.00000  Uiso   1.00
H587   H     0.37816   0.06678   0.50250   0.00000  Uiso   1.00
H588   H     0.63851   0.00787   0.65286   0.00000  Uiso   1.00
H589   H     0.62079   0.25999   0.50430   0.00000  Uiso   1.00
O590   O     0.62288   0.09004   0.52490   0.00000  Uiso   1.00
O591   O     0.65247   0.01275   0.72216   0.00000  Uiso   1.00
O592   O     0.62922   0.34353   0.52726   0.00000  Uiso   1.00
N593   N     0.48265   0.12697   0.56457   0.00000  Uiso   1.00
N594   N     0.79115   0.07188   0.70515   0.00000  Uiso   1.00
N595   N     0.77454   0.30759   0.56627   0.00000  Uiso   1.00
N596   N     0.38682   0.08690   0.52345   0.00000  Uiso   1.00
N597   N     0.69532   0.03181   0.66403   0.00000  Uiso   1.00
N598   N     0.67871   0.26752   0.52514   0.00000  Uiso   1.00
C599   C     0.00862   0.41627   0.86996   0.00000  Uiso   1.00
C600   C     0.11269   0.43451   0.89576   0.00000  Uiso   1.00
C601   C     0.25219   0.42971   0.89312   0.00000  Uiso   1.00
C602   C     0.33006   0.44885   0.91940   0.00000  Uiso   1.00
C603   C     0.50073   0.47367   0.95521   0.00000  Uiso   1.00
C604   C     0.92522   0.45625   0.85795   0.00000  Uiso   1.00
C605   C     0.90707   0.46974   0.82351   0.00000  Uiso   1.00
C606   C     0.82711   0.50717   0.81796   0.00000  Uiso   1.00
C607   C     0.70664   0.56573   0.79505   0.00000  Uiso   1.00
C608   C     0.91273   0.38718   0.89137   0.00000  Uiso   1.00
C609   C     0.88405   0.34260   0.88504   0.00000  Uiso   1.00
C610   C     0.79355   0.32189   0.90762   0.00000  Uiso   1.00
C611   C     0.65369   0.27321   0.93662   0.00000  Uiso   1.00
C612   C     0.89886   0.45878   0.92132   0.00000  Uiso   1.00
C613   C     0.05307   0.45760   0.92366   0.00000  Uiso   1.00
C614   C     0.13076   0.47674   0.94994   0.00000  Uiso   1.00
C615   C     0.27034   0.47197   0.94735   0.00000  Uiso   1.00
C616   C     0.86560   0.47934   0.88584   0.00000  Uiso   1.00
C617   C     0.78564   0.51676   0.88033   0.00000  Uiso   1.00
C618   C     0.76738   0.53030   0.84590   0.00000  Uiso   1.00
C619   C     0.85311   0.41027   0.91927   0.00000  Uiso   1.00
C620   C     0.76263   0.38962   0.94186   0.00000  Uiso   1.00
C621   C     0.73382   0.34501   0.93557   0.00000  Uiso   1.00
H622   H     0.05502   0.39830   0.84824   0.00000  Uiso   1.00
H623   H     0.29828   0.41185   0.87153   0.00000  Uiso   1.00
H624   H     0.95321   0.45186   0.80193   0.00000  Uiso   1.00
H625   H     0.93020   0.32474   0.86345   0.00000  Uiso   1.00
H626   H     0.54169   0.43706   0.90964   0.00000  Uiso   1.00
H627   H     0.81405   0.52142   0.76289   0.00000  Uiso   1.00
H628   H     0.76553   0.25337   0.89261   0.00000  Uiso   1.00
H629   H     0.85244   0.47675   0.94304   0.00000  Uiso   1.00
H630   H     0.08459   0.49460   0.97153   0.00000  Uiso   1.00
H631   H     0.73952   0.53462   0.90193   0.00000  Uiso   1.00
H632   H     0.71651   0.40750   0.96345   0.00000  Uiso   1.00
H633   H     0.36825   0.50423   0.99080   0.00000  Uiso   1.00
H634   H     0.64060   0.58859   0.84405   0.00000  Uiso   1.00
H635   H     0.59209   0.32054   0.97378   0.00000  Uiso   1.00
O636   O     0.61134   0.48099   0.96725   0.00000  Uiso   1.00
O637   O     0.65668   0.59166   0.77471   0.00000  Uiso   1.00
O638   O     0.59303   0.23998   0.94491   0.00000  Uiso   1.00
N639   N     0.46901   0.45041   0.92484   0.00000  Uiso   1.00
N640   N     0.78872   0.52929   0.78763   0.00000  Uiso   1.00
N641   N     0.74334   0.27869   0.90891   0.00000  Uiso   1.00
N642   N     0.37569   0.48656   0.96851   0.00000  Uiso   1.00
N643   N     0.69540   0.56543   0.83130   0.00000  Uiso   1.00
N644   N     0.65001   0.31483   0.95258   0.00000  Uiso   1.00
C645   C     0.47540   0.32765   0.11560   0.00000  Uiso   1.00
C646   C     0.37258   0.34994   0.09149   0.00000  Uiso   1.00
C647   C     0.23275   0.34637   0.09412   0.00000  Uiso   1.00
C648   C     0.15620   0.36933   0.06953   0.00000  Uiso   1.00
C649   C     0.98723   0.40007   0.03609   0.00000  Uiso   1.00
C650   C     0.56315   0.36513   0.13023   0.00000  Uiso   1.00
C651   C     0.58356   0.37432   0.16544   0.00000  Uiso   1.00
C652   C     0.66744   0.41006   0.17346   0.00000  Uiso   1.00
C653   C     0.79442   0.46437   0.20017   0.00000  Uiso   1.00
C654   C     0.56771   0.30017   0.09195   0.00000  Uiso   1.00
C655   C     0.59198   0.25474   0.09498   0.00000  Uiso   1.00
C656   C     0.67973   0.23579   0.07078   0.00000  Uiso   1.00
C657   C     0.81377   0.18923   0.03805   0.00000  Uiso   1.00
C658   C     0.58811   0.37477   0.06724   0.00000  Uiso   1.00
C659   C     0.43381   0.37554   0.06522   0.00000  Uiso   1.00
C660   C     0.35744   0.39851   0.04061   0.00000  Uiso   1.00
C661   C     0.21752   0.39497   0.04321   0.00000  Uiso   1.00
C662   C     0.62437   0.39072   0.10396   0.00000  Uiso   1.00
C663   C     0.70825   0.42646   0.11193   0.00000  Uiso   1.00
C664   C     0.72877   0.43571   0.14715   0.00000  Uiso   1.00
C665   C     0.62892   0.32576   0.06568   0.00000  Uiso   1.00
C666   C     0.71666   0.30688   0.04147   0.00000  Uiso   1.00
C667   C     0.74105   0.26143   0.04446   0.00000  Uiso   1.00
H668   H     0.42775   0.30772   0.13606   0.00000  Uiso   1.00
H669   H     0.18541   0.32656   0.11445   0.00000  Uiso   1.00
H670   H     0.53618   0.35451   0.18576   0.00000  Uiso   1.00
H671   H     0.54459   0.23495   0.11531   0.00000  Uiso   1.00
H672   H     0.94374   0.35875   0.07893   0.00000  Uiso   1.00
H673   H     0.68338   0.41767   0.22929   0.00000  Uiso   1.00
H674   H     0.70112   0.16554   0.08073   0.00000  Uiso   1.00
H675   H     0.63577   0.39470   0.04679   0.00000  Uiso   1.00
H676   H     0.40484   0.41831   0.02029   0.00000  Uiso   1.00
H677   H     0.75561   0.44626   0.09160   0.00000  Uiso   1.00
H678   H     0.76402   0.32670   0.02115   0.00000  Uiso   1.00
H679   H     0.12184   0.43322   0.00250   0.00000  Uiso   1.00
H680   H     0.86149   0.49213   0.15286   0.00000  Uiso   1.00
H681   H     0.87921   0.24001   0.00430   0.00000  Uiso   1.00
O682   O     0.87712   0.40996   0.02490   0.00000  Uiso   1.00
O683   O     0.84753   0.48725   0.22216   0.00000  Uiso   1.00
O684   O     0.87078   0.15647   0.02726   0.00000  Uiso   1.00
N685   N     0.01735   0.37303   0.06457   0.00000  Uiso   1.00
N686   N     0.70885   0.42812   0.20515   0.00000  Uiso   1.00
N687   N     0.72546   0.19241   0.06627   0.00000  Uiso   1.00
N688   N     0.11318   0.41310   0.02345   0.00000  Uiso   1.00
N689   N     0.80468   0.46819   0.16403   0.00000  Uiso   1.00
N690   N     0.82129   0.23248   0.02514   0.00000  Uiso   1.00
C691   C     0.49138   0.08373   0.36996   0.00000  Uiso   1.00
C692   C     0.38731   0.06549   0.39576   0.00000  Uiso   1.00
C693   C     0.24781   0.07029   0.39312   0.00000  Uiso   1.00
C694   C     0.16994   0.05115   0.41940   0.00000  Uiso   1.00
C695   C     0.99927   0.02633   0.45521   0.00000  Uiso   1.00
C696   C     0.57478   0.04375   0.35795   0.00000  Uiso   1.00
C697   C     0.59293   0.03026   0.32351   0.00000  Uiso   1.00
C698   C     0.67289   0.99283   0.31796   0.00000  Uiso   1.00
C699   C     0.79336   0.93427   0.29505   0.00000  Uiso   1.00
C700   C     0.58727   0.11282   0.39137   0.00000  Uiso   1.00
C701   C     0.61595   0.15740   0.38504   0.00000  Uiso   1.00
C702   C     0.70645   0.17811   0.40762   0.00000  Uiso   1.00
C703   C     0.84631   0.22679   0.43662   0.00000  Uiso   1.00
C704   C     0.60114   0.04122   0.42132   0.00000  Uiso   1.00
C705   C     0.44693   0.04240   0.42366   0.00000  Uiso   1.00
C706   C     0.36924   0.02326   0.44994   0.00000  Uiso   1.00
C707   C     0.22966   0.02803   0.44735   0.00000  Uiso   1.00
C708   C     0.63440   0.02066   0.38584   0.00000  Uiso   1.00
C709   C     0.71436   0.98324   0.38033   0.00000  Uiso   1.00
C710   C     0.73262   0.96970   0.34590   0.00000  Uiso   1.00
C711   C     0.64689   0.08973   0.41927   0.00000  Uiso   1.00
C712   C     0.73737   0.11038   0.44186   0.00000  Uiso   1.00
C713   C     0.76618   0.15499   0.43557   0.00000  Uiso   1.00
H714   H     0.44498   0.10170   0.34824   0.00000  Uiso   1.00
H715   H     0.20172   0.08815   0.37153   0.00000  Uiso   1.00
H716   H     0.54679   0.04814   0.30193   0.00000  Uiso   1.00
H717   H     0.56980   0.17526   0.36345   0.00000  Uiso   1.00
H718   H     0.95831   0.06294   0.40964   0.00000  Uiso   1.00
H719   H     0.68595   0.97858   0.26289   0.00000  Uiso   1.00
H720   H     0.73447   0.24663   0.39261   0.00000  Uiso   1.00
H721   H     0.64756   0.02325   0.44304   0.00000  Uiso   1.00
H722   H     0.41541   0.00540   0.47153   0.00000  Uiso   1.00
H723   H     0.76048   0.96538   0.40193   0.00000  Uiso   1.00
H724   H     0.78349   0.09250   0.46345   0.00000  Uiso   1.00
H725   H     0.13175   0.99577   0.49080   0.00000  Uiso   1.00
H726   H     0.85940   0.91141   0.34405   0.00000  Uiso   1.00
H727   H     0.90791   0.17946   0.47378   0.00000  Uiso   1.00
O728   O     0.88866   0.01901   0.46725   0.00000  Uiso   1.00
O729   O     0.84332   0.90834   0.27471   0.00000  Uiso   1.00
O730   O     0.90697   0.26002   0.44491   0.00000  Uiso   1.00
N731   N     0.03099   0.04959   0.42484   0.00000  Uiso   1.00
N732   N     0.71128   0.97071   0.28763   0.00000  Uiso   1.00
N733   N     0.75666   0.22131   0.40891   0.00000  Uiso   1.00
N734   N     0.12431   0.01344   0.46851   0.00000  Uiso   1.00
N735   N     0.80460   0.93457   0.33130   0.00000  Uiso   1.00
N736   N     0.84999   0.18517   0.45258   0.00000  Uiso   1.00
