data_job_02355
_audit_creation_date              2018-12-19
_audit_creation_method            'Materials Studio'
_symmetry_space_group_name_H-M    'P1'
_symmetry_Int_Tables_number       1
_symmetry_cell_setting            triclinic
loop_
_symmetry_equiv_pos_as_xyz
  x,y,z
_cell_length_a                    29.4327
_cell_length_b                    38.4888
_cell_length_c                    12.7020
_cell_angle_alpha                 90.0000
_cell_angle_beta                  90.0000
_cell_angle_gamma                 90.0000
loop_
_atom_site_label
_atom_site_type_symbol
_atom_site_fract_x
_atom_site_fract_y
_atom_site_fract_z
_atom_site_U_iso_or_equiv
_atom_site_adp_type
_atom_site_occupancy
C1     C     0.49854   0.20828   0.34220   0.00000  Uiso   1.00
C2     C     0.49929   0.17979   0.42560   0.00000  Uiso   1.00
C3     C     0.52221   0.18126   0.52097   0.00000  Uiso   1.00
C4     C     0.51866   0.15250   0.58644   0.00000  Uiso   1.00
C5     C     0.52373   0.11269   0.72032   0.00000  Uiso   1.00
C6     C     0.51551   0.19146   0.24087   0.00000  Uiso   1.00
C7     C     0.55206   0.20275   0.18092   0.00000  Uiso   1.00
C8     C     0.56217   0.18381   0.09088   0.00000  Uiso   1.00
C9     C     0.59240   0.16213   0.93792   0.00000  Uiso   1.00
C10    C     0.44859   0.21680   0.32358   0.00000  Uiso   1.00
C11    C     0.42887   0.24941   0.33315   0.00000  Uiso   1.00
C12    C     0.38264   0.25181   0.31271   0.00000  Uiso   1.00
C13    C     0.30896   0.26949   0.28818   0.00000  Uiso   1.00
C14    C     0.45149   0.15459   0.28887   0.00000  Uiso   1.00
C15    C     0.47373   0.15062   0.39663   0.00000  Uiso   1.00
C16    C     0.47015   0.12185   0.46197   0.00000  Uiso   1.00
C17    C     0.49306   0.12329   0.55742   0.00000  Uiso   1.00
C18    C     0.48995   0.16229   0.21190   0.00000  Uiso   1.00
C19    C     0.50001   0.14334   0.12192   0.00000  Uiso   1.00
C20    C     0.53657   0.15459   0.06186   0.00000  Uiso   1.00
C21    C     0.42303   0.18764   0.29461   0.00000  Uiso   1.00
C22    C     0.37682   0.19000   0.27415   0.00000  Uiso   1.00
C23    C     0.35704   0.22260   0.28369   0.00000  Uiso   1.00
H24    H     0.51844   0.23099   0.36475   0.00000  Uiso   1.00
H25    H     0.54199   0.20383   0.54336   0.00000  Uiso   1.00
H26    H     0.57183   0.22532   0.20336   0.00000  Uiso   1.00
H27    H     0.44866   0.27197   0.35556   0.00000  Uiso   1.00
H28    H     0.55683   0.16086   0.72859   0.00000  Uiso   1.00
H29    H     0.61976   0.20617   0.01166   0.00000  Uiso   1.00
H30    H     0.36003   0.30455   0.33261   0.00000  Uiso   1.00
H31    H     0.43159   0.13188   0.26631   0.00000  Uiso   1.00
H32    H     0.45037   0.09929   0.43953   0.00000  Uiso   1.00
H33    H     0.48022   0.12077   0.09952   0.00000  Uiso   1.00
H34    H     0.35705   0.16742   0.25173   0.00000  Uiso   1.00
H35    H     0.48248   0.07601   0.64432   0.00000  Uiso   1.00
H36    H     0.54540   0.12132   0.92738   0.00000  Uiso   1.00
H37    H     0.28567   0.21969   0.24834   0.00000  Uiso   1.00
O38    O     0.53359   0.09878   0.80216   0.00000  Uiso   1.00
O39    O     0.61614   0.15822   0.86156   0.00000  Uiso   1.00
O40    O     0.27538   0.28729   0.28266   0.00000  Uiso   1.00
N41    N     0.53675   0.14537   0.68499   0.00000  Uiso   1.00
N42    N     0.59558   0.18772   0.01471   0.00000  Uiso   1.00
N43    N     0.35276   0.27970   0.31475   0.00000  Uiso   1.00
N44    N     0.49674   0.09971   0.63965   0.00000  Uiso   1.00
N45    N     0.55557   0.14207   0.96937   0.00000  Uiso   1.00
N46    N     0.31275   0.23404   0.26941   0.00000  Uiso   1.00
C47    C     0.49854   0.70828   0.84220   0.00000  Uiso   1.00
C48    C     0.49929   0.67979   0.92560   0.00000  Uiso   1.00
C49    C     0.52221   0.68126   0.02097   0.00000  Uiso   1.00
C50    C     0.51866   0.65250   0.08644   0.00000  Uiso   1.00
C51    C     0.52373   0.61269   0.22032   0.00000  Uiso   1.00
C52    C     0.51551   0.69146   0.74087   0.00000  Uiso   1.00
C53    C     0.55206   0.70275   0.68092   0.00000  Uiso   1.00
C54    C     0.56217   0.68381   0.59088   0.00000  Uiso   1.00
C55    C     0.59240   0.66213   0.43792   0.00000  Uiso   1.00
C56    C     0.44859   0.71680   0.82358   0.00000  Uiso   1.00
C57    C     0.42887   0.74941   0.83315   0.00000  Uiso   1.00
C58    C     0.38264   0.75181   0.81271   0.00000  Uiso   1.00
C59    C     0.30896   0.76949   0.78818   0.00000  Uiso   1.00
C60    C     0.45149   0.65459   0.78887   0.00000  Uiso   1.00
C61    C     0.47373   0.65062   0.89663   0.00000  Uiso   1.00
C62    C     0.47015   0.62185   0.96197   0.00000  Uiso   1.00
C63    C     0.49306   0.62329   0.05742   0.00000  Uiso   1.00
C64    C     0.48995   0.66229   0.71190   0.00000  Uiso   1.00
C65    C     0.50001   0.64334   0.62192   0.00000  Uiso   1.00
C66    C     0.53657   0.65459   0.56186   0.00000  Uiso   1.00
C67    C     0.42303   0.68764   0.79461   0.00000  Uiso   1.00
C68    C     0.37682   0.69000   0.77415   0.00000  Uiso   1.00
C69    C     0.35704   0.72260   0.78369   0.00000  Uiso   1.00
H70    H     0.51844   0.73099   0.86475   0.00000  Uiso   1.00
H71    H     0.54199   0.70383   0.04336   0.00000  Uiso   1.00
H72    H     0.57183   0.72532   0.70336   0.00000  Uiso   1.00
H73    H     0.44866   0.77197   0.85556   0.00000  Uiso   1.00
H74    H     0.55683   0.66086   0.22859   0.00000  Uiso   1.00
H75    H     0.61976   0.70617   0.51166   0.00000  Uiso   1.00
H76    H     0.36003   0.80455   0.83261   0.00000  Uiso   1.00
H77    H     0.43159   0.63188   0.76631   0.00000  Uiso   1.00
H78    H     0.45037   0.59929   0.93953   0.00000  Uiso   1.00
H79    H     0.48022   0.62077   0.59952   0.00000  Uiso   1.00
H80    H     0.35705   0.66742   0.75173   0.00000  Uiso   1.00
H81    H     0.48248   0.57601   0.14432   0.00000  Uiso   1.00
H82    H     0.54540   0.62132   0.42738   0.00000  Uiso   1.00
H83    H     0.28567   0.71969   0.74834   0.00000  Uiso   1.00
O84    O     0.53359   0.59878   0.30216   0.00000  Uiso   1.00
O85    O     0.61614   0.65822   0.36156   0.00000  Uiso   1.00
O86    O     0.27538   0.78729   0.78266   0.00000  Uiso   1.00
N87    N     0.53675   0.64537   0.18499   0.00000  Uiso   1.00
N88    N     0.59558   0.68772   0.51471   0.00000  Uiso   1.00
N89    N     0.35276   0.77970   0.81475   0.00000  Uiso   1.00
N90    N     0.49674   0.59971   0.13965   0.00000  Uiso   1.00
N91    N     0.55557   0.64207   0.46937   0.00000  Uiso   1.00
N92    N     0.31275   0.73404   0.76941   0.00000  Uiso   1.00
C93    C     0.99854   0.20828   0.84220   0.00000  Uiso   1.00
C94    C     0.99929   0.17979   0.92560   0.00000  Uiso   1.00
C95    C     0.02221   0.18126   0.02097   0.00000  Uiso   1.00
C96    C     0.01866   0.15250   0.08644   0.00000  Uiso   1.00
C97    C     0.02373   0.11269   0.22032   0.00000  Uiso   1.00
C98    C     0.01551   0.19146   0.74087   0.00000  Uiso   1.00
C99    C     0.05206   0.20275   0.68092   0.00000  Uiso   1.00
C100   C     0.06217   0.18381   0.59088   0.00000  Uiso   1.00
C101   C     0.09240   0.16213   0.43792   0.00000  Uiso   1.00
C102   C     0.94859   0.21680   0.82358   0.00000  Uiso   1.00
C103   C     0.92887   0.24941   0.83315   0.00000  Uiso   1.00
C104   C     0.88264   0.25181   0.81271   0.00000  Uiso   1.00
C105   C     0.80896   0.26949   0.78818   0.00000  Uiso   1.00
C106   C     0.95149   0.15459   0.78887   0.00000  Uiso   1.00
C107   C     0.97373   0.15062   0.89663   0.00000  Uiso   1.00
C108   C     0.97015   0.12185   0.96197   0.00000  Uiso   1.00
C109   C     0.99306   0.12329   0.05742   0.00000  Uiso   1.00
C110   C     0.98995   0.16229   0.71190   0.00000  Uiso   1.00
C111   C     0.00001   0.14334   0.62192   0.00000  Uiso   1.00
C112   C     0.03657   0.15459   0.56186   0.00000  Uiso   1.00
C113   C     0.92303   0.18764   0.79461   0.00000  Uiso   1.00
C114   C     0.87682   0.19000   0.77415   0.00000  Uiso   1.00
C115   C     0.85704   0.22260   0.78369   0.00000  Uiso   1.00
H116   H     0.01844   0.23099   0.86475   0.00000  Uiso   1.00
H117   H     0.04199   0.20383   0.04336   0.00000  Uiso   1.00
H118   H     0.07183   0.22532   0.70336   0.00000  Uiso   1.00
H119   H     0.94866   0.27197   0.85556   0.00000  Uiso   1.00
H120   H     0.05683   0.16086   0.22859   0.00000  Uiso   1.00
H121   H     0.11976   0.20617   0.51166   0.00000  Uiso   1.00
H122   H     0.86003   0.30455   0.83261   0.00000  Uiso   1.00
H123   H     0.93159   0.13188   0.76631   0.00000  Uiso   1.00
H124   H     0.95037   0.09929   0.93953   0.00000  Uiso   1.00
H125   H     0.98022   0.12077   0.59952   0.00000  Uiso   1.00
H126   H     0.85705   0.16742   0.75173   0.00000  Uiso   1.00
H127   H     0.98248   0.07601   0.14432   0.00000  Uiso   1.00
H128   H     0.04540   0.12132   0.42738   0.00000  Uiso   1.00
H129   H     0.78567   0.21969   0.74834   0.00000  Uiso   1.00
O130   O     0.03359   0.09878   0.30216   0.00000  Uiso   1.00
O131   O     0.11614   0.15822   0.36156   0.00000  Uiso   1.00
O132   O     0.77538   0.28729   0.78266   0.00000  Uiso   1.00
N133   N     0.03675   0.14537   0.18499   0.00000  Uiso   1.00
N134   N     0.09558   0.18772   0.51471   0.00000  Uiso   1.00
N135   N     0.85276   0.27970   0.81475   0.00000  Uiso   1.00
N136   N     0.99674   0.09971   0.13965   0.00000  Uiso   1.00
N137   N     0.05557   0.14207   0.46937   0.00000  Uiso   1.00
N138   N     0.81275   0.23404   0.76941   0.00000  Uiso   1.00
C139   C     0.99854   0.70828   0.34220   0.00000  Uiso   1.00
C140   C     0.99929   0.67979   0.42560   0.00000  Uiso   1.00
C141   C     0.02221   0.68126   0.52097   0.00000  Uiso   1.00
C142   C     0.01866   0.65250   0.58644   0.00000  Uiso   1.00
C143   C     0.02373   0.61269   0.72032   0.00000  Uiso   1.00
C144   C     0.01551   0.69146   0.24087   0.00000  Uiso   1.00
C145   C     0.05206   0.70275   0.18092   0.00000  Uiso   1.00
C146   C     0.06217   0.68381   0.09088   0.00000  Uiso   1.00
C147   C     0.09240   0.66213   0.93792   0.00000  Uiso   1.00
C148   C     0.94859   0.71680   0.32358   0.00000  Uiso   1.00
C149   C     0.92887   0.74941   0.33315   0.00000  Uiso   1.00
C150   C     0.88264   0.75181   0.31271   0.00000  Uiso   1.00
C151   C     0.80896   0.76949   0.28818   0.00000  Uiso   1.00
C152   C     0.95149   0.65459   0.28887   0.00000  Uiso   1.00
C153   C     0.97373   0.65062   0.39663   0.00000  Uiso   1.00
C154   C     0.97015   0.62185   0.46197   0.00000  Uiso   1.00
C155   C     0.99306   0.62329   0.55742   0.00000  Uiso   1.00
C156   C     0.98995   0.66229   0.21190   0.00000  Uiso   1.00
C157   C     0.00001   0.64334   0.12192   0.00000  Uiso   1.00
C158   C     0.03657   0.65459   0.06186   0.00000  Uiso   1.00
C159   C     0.92303   0.68764   0.29461   0.00000  Uiso   1.00
C160   C     0.87682   0.69000   0.27415   0.00000  Uiso   1.00
C161   C     0.85704   0.72260   0.28369   0.00000  Uiso   1.00
H162   H     0.01844   0.73099   0.36475   0.00000  Uiso   1.00
H163   H     0.04199   0.70383   0.54336   0.00000  Uiso   1.00
H164   H     0.07183   0.72532   0.20336   0.00000  Uiso   1.00
H165   H     0.94866   0.77197   0.35556   0.00000  Uiso   1.00
H166   H     0.05683   0.66086   0.72859   0.00000  Uiso   1.00
H167   H     0.11976   0.70617   0.01166   0.00000  Uiso   1.00
H168   H     0.86003   0.80455   0.33261   0.00000  Uiso   1.00
H169   H     0.93159   0.63188   0.26631   0.00000  Uiso   1.00
H170   H     0.95037   0.59929   0.43953   0.00000  Uiso   1.00
H171   H     0.98022   0.62077   0.09952   0.00000  Uiso   1.00
H172   H     0.85705   0.66742   0.25173   0.00000  Uiso   1.00
H173   H     0.98248   0.57601   0.64432   0.00000  Uiso   1.00
H174   H     0.04540   0.62132   0.92738   0.00000  Uiso   1.00
H175   H     0.78567   0.71969   0.24834   0.00000  Uiso   1.00
O176   O     0.03359   0.59878   0.80216   0.00000  Uiso   1.00
O177   O     0.11614   0.65822   0.86156   0.00000  Uiso   1.00
O178   O     0.77538   0.78729   0.28266   0.00000  Uiso   1.00
N179   N     0.03675   0.64537   0.68499   0.00000  Uiso   1.00
N180   N     0.09558   0.68772   0.01471   0.00000  Uiso   1.00
N181   N     0.85276   0.77970   0.31475   0.00000  Uiso   1.00
N182   N     0.99674   0.59971   0.63965   0.00000  Uiso   1.00
N183   N     0.05557   0.64207   0.96937   0.00000  Uiso   1.00
N184   N     0.81275   0.73404   0.26941   0.00000  Uiso   1.00
C185   C     0.50146   0.79172   0.34220   0.00000  Uiso   1.00
C186   C     0.50071   0.82021   0.42560   0.00000  Uiso   1.00
C187   C     0.47779   0.81874   0.52097   0.00000  Uiso   1.00
C188   C     0.48134   0.84750   0.58644   0.00000  Uiso   1.00
C189   C     0.47627   0.88731   0.72032   0.00000  Uiso   1.00
C190   C     0.48449   0.80854   0.24087   0.00000  Uiso   1.00
C191   C     0.44794   0.79725   0.18092   0.00000  Uiso   1.00
C192   C     0.43783   0.81619   0.09088   0.00000  Uiso   1.00
C193   C     0.40760   0.83787   0.93792   0.00000  Uiso   1.00
C194   C     0.55141   0.78320   0.32358   0.00000  Uiso   1.00
C195   C     0.57113   0.75059   0.33315   0.00000  Uiso   1.00
C196   C     0.61736   0.74819   0.31271   0.00000  Uiso   1.00
C197   C     0.69104   0.73051   0.28818   0.00000  Uiso   1.00
C198   C     0.54851   0.84541   0.28887   0.00000  Uiso   1.00
C199   C     0.52627   0.84938   0.39663   0.00000  Uiso   1.00
C200   C     0.52985   0.87815   0.46197   0.00000  Uiso   1.00
C201   C     0.50694   0.87671   0.55742   0.00000  Uiso   1.00
C202   C     0.51005   0.83771   0.21190   0.00000  Uiso   1.00
C203   C     0.49999   0.85666   0.12192   0.00000  Uiso   1.00
C204   C     0.46343   0.84541   0.06186   0.00000  Uiso   1.00
C205   C     0.57697   0.81236   0.29461   0.00000  Uiso   1.00
C206   C     0.62318   0.81000   0.27415   0.00000  Uiso   1.00
C207   C     0.64296   0.77740   0.28369   0.00000  Uiso   1.00
H208   H     0.48156   0.76901   0.36475   0.00000  Uiso   1.00
H209   H     0.45801   0.79617   0.54336   0.00000  Uiso   1.00
H210   H     0.42817   0.77468   0.20336   0.00000  Uiso   1.00
H211   H     0.55134   0.72803   0.35556   0.00000  Uiso   1.00
H212   H     0.44317   0.83914   0.72859   0.00000  Uiso   1.00
H213   H     0.38024   0.79383   0.01166   0.00000  Uiso   1.00
H214   H     0.63997   0.69545   0.33261   0.00000  Uiso   1.00
H215   H     0.56841   0.86812   0.26631   0.00000  Uiso   1.00
H216   H     0.54963   0.90071   0.43953   0.00000  Uiso   1.00
H217   H     0.51978   0.87923   0.09952   0.00000  Uiso   1.00
H218   H     0.64295   0.83258   0.25173   0.00000  Uiso   1.00
H219   H     0.51752   0.92399   0.64432   0.00000  Uiso   1.00
H220   H     0.45460   0.87868   0.92738   0.00000  Uiso   1.00
H221   H     0.71433   0.78031   0.24834   0.00000  Uiso   1.00
O222   O     0.46641   0.90122   0.80216   0.00000  Uiso   1.00
O223   O     0.38386   0.84178   0.86156   0.00000  Uiso   1.00
O224   O     0.72462   0.71271   0.28266   0.00000  Uiso   1.00
N225   N     0.46325   0.85463   0.68499   0.00000  Uiso   1.00
N226   N     0.40442   0.81228   0.01471   0.00000  Uiso   1.00
N227   N     0.64724   0.72030   0.31475   0.00000  Uiso   1.00
N228   N     0.50326   0.90029   0.63965   0.00000  Uiso   1.00
N229   N     0.44443   0.85793   0.96937   0.00000  Uiso   1.00
N230   N     0.68725   0.76596   0.26941   0.00000  Uiso   1.00
C231   C     0.50146   0.29172   0.84220   0.00000  Uiso   1.00
C232   C     0.50071   0.32021   0.92560   0.00000  Uiso   1.00
C233   C     0.47779   0.31874   0.02097   0.00000  Uiso   1.00
C234   C     0.48134   0.34750   0.08644   0.00000  Uiso   1.00
C235   C     0.47627   0.38731   0.22032   0.00000  Uiso   1.00
C236   C     0.48449   0.30854   0.74087   0.00000  Uiso   1.00
C237   C     0.44794   0.29725   0.68092   0.00000  Uiso   1.00
C238   C     0.43783   0.31619   0.59088   0.00000  Uiso   1.00
C239   C     0.40760   0.33787   0.43792   0.00000  Uiso   1.00
C240   C     0.55141   0.28320   0.82358   0.00000  Uiso   1.00
C241   C     0.57113   0.25059   0.83315   0.00000  Uiso   1.00
C242   C     0.61736   0.24819   0.81271   0.00000  Uiso   1.00
C243   C     0.69104   0.23051   0.78818   0.00000  Uiso   1.00
C244   C     0.54851   0.34541   0.78887   0.00000  Uiso   1.00
C245   C     0.52627   0.34938   0.89663   0.00000  Uiso   1.00
C246   C     0.52985   0.37815   0.96197   0.00000  Uiso   1.00
C247   C     0.50694   0.37671   0.05742   0.00000  Uiso   1.00
C248   C     0.51005   0.33771   0.71190   0.00000  Uiso   1.00
C249   C     0.49999   0.35666   0.62192   0.00000  Uiso   1.00
C250   C     0.46343   0.34541   0.56186   0.00000  Uiso   1.00
C251   C     0.57697   0.31236   0.79461   0.00000  Uiso   1.00
C252   C     0.62318   0.31000   0.77415   0.00000  Uiso   1.00
C253   C     0.64296   0.27740   0.78369   0.00000  Uiso   1.00
H254   H     0.48156   0.26901   0.86475   0.00000  Uiso   1.00
H255   H     0.45801   0.29617   0.04336   0.00000  Uiso   1.00
H256   H     0.42817   0.27468   0.70336   0.00000  Uiso   1.00
H257   H     0.55134   0.22803   0.85556   0.00000  Uiso   1.00
H258   H     0.44317   0.33914   0.22859   0.00000  Uiso   1.00
H259   H     0.38024   0.29383   0.51166   0.00000  Uiso   1.00
H260   H     0.63997   0.19545   0.83261   0.00000  Uiso   1.00
H261   H     0.56841   0.36812   0.76631   0.00000  Uiso   1.00
H262   H     0.54963   0.40071   0.93953   0.00000  Uiso   1.00
H263   H     0.51978   0.37923   0.59952   0.00000  Uiso   1.00
H264   H     0.64295   0.33258   0.75173   0.00000  Uiso   1.00
H265   H     0.51752   0.42399   0.14432   0.00000  Uiso   1.00
H266   H     0.45460   0.37868   0.42738   0.00000  Uiso   1.00
H267   H     0.71433   0.28031   0.74834   0.00000  Uiso   1.00
O268   O     0.46641   0.40122   0.30216   0.00000  Uiso   1.00
O269   O     0.38386   0.34178   0.36156   0.00000  Uiso   1.00
O270   O     0.72462   0.21271   0.78266   0.00000  Uiso   1.00
N271   N     0.46325   0.35463   0.18499   0.00000  Uiso   1.00
N272   N     0.40442   0.31228   0.51471   0.00000  Uiso   1.00
N273   N     0.64724   0.22030   0.81475   0.00000  Uiso   1.00
N274   N     0.50326   0.40029   0.13965   0.00000  Uiso   1.00
N275   N     0.44443   0.35793   0.46937   0.00000  Uiso   1.00
N276   N     0.68725   0.26596   0.76941   0.00000  Uiso   1.00
C277   C     0.00146   0.79172   0.84220   0.00000  Uiso   1.00
C278   C     0.00071   0.82021   0.92560   0.00000  Uiso   1.00
C279   C     0.97779   0.81874   0.02097   0.00000  Uiso   1.00
C280   C     0.98134   0.84750   0.08644   0.00000  Uiso   1.00
C281   C     0.97627   0.88731   0.22032   0.00000  Uiso   1.00
C282   C     0.98449   0.80854   0.74087   0.00000  Uiso   1.00
C283   C     0.94794   0.79725   0.68092   0.00000  Uiso   1.00
C284   C     0.93783   0.81619   0.59088   0.00000  Uiso   1.00
C285   C     0.90760   0.83787   0.43792   0.00000  Uiso   1.00
C286   C     0.05141   0.78320   0.82358   0.00000  Uiso   1.00
C287   C     0.07113   0.75059   0.83315   0.00000  Uiso   1.00
C288   C     0.11736   0.74819   0.81271   0.00000  Uiso   1.00
C289   C     0.19104   0.73051   0.78818   0.00000  Uiso   1.00
C290   C     0.04851   0.84541   0.78887   0.00000  Uiso   1.00
C291   C     0.02627   0.84938   0.89663   0.00000  Uiso   1.00
C292   C     0.02985   0.87815   0.96197   0.00000  Uiso   1.00
C293   C     0.00694   0.87671   0.05742   0.00000  Uiso   1.00
C294   C     0.01005   0.83771   0.71190   0.00000  Uiso   1.00
C295   C    -0.00001   0.85666   0.62192   0.00000  Uiso   1.00
C296   C     0.96343   0.84541   0.56186   0.00000  Uiso   1.00
C297   C     0.07697   0.81236   0.79461   0.00000  Uiso   1.00
C298   C     0.12318   0.81000   0.77415   0.00000  Uiso   1.00
C299   C     0.14296   0.77740   0.78369   0.00000  Uiso   1.00
H300   H     0.98156   0.76901   0.86475   0.00000  Uiso   1.00
H301   H     0.95801   0.79617   0.04336   0.00000  Uiso   1.00
H302   H     0.92817   0.77468   0.70336   0.00000  Uiso   1.00
H303   H     0.05134   0.72803   0.85556   0.00000  Uiso   1.00
H304   H     0.94317   0.83914   0.22859   0.00000  Uiso   1.00
H305   H     0.88024   0.79383   0.51166   0.00000  Uiso   1.00
H306   H     0.13997   0.69545   0.83261   0.00000  Uiso   1.00
H307   H     0.06841   0.86812   0.76631   0.00000  Uiso   1.00
H308   H     0.04963   0.90071   0.93953   0.00000  Uiso   1.00
H309   H     0.01978   0.87923   0.59952   0.00000  Uiso   1.00
H310   H     0.14295   0.83258   0.75173   0.00000  Uiso   1.00
H311   H     0.01752   0.92399   0.14432   0.00000  Uiso   1.00
H312   H     0.95460   0.87868   0.42738   0.00000  Uiso   1.00
H313   H     0.21433   0.78031   0.74834   0.00000  Uiso   1.00
O314   O     0.96641   0.90122   0.30216   0.00000  Uiso   1.00
O315   O     0.88386   0.84178   0.36156   0.00000  Uiso   1.00
O316   O     0.22462   0.71271   0.78266   0.00000  Uiso   1.00
N317   N     0.96325   0.85463   0.18499   0.00000  Uiso   1.00
N318   N     0.90442   0.81228   0.51471   0.00000  Uiso   1.00
N319   N     0.14724   0.72030   0.81475   0.00000  Uiso   1.00
N320   N     0.00326   0.90029   0.13965   0.00000  Uiso   1.00
N321   N     0.94443   0.85793   0.46937   0.00000  Uiso   1.00
N322   N     0.18725   0.76596   0.76941   0.00000  Uiso   1.00
C323   C     0.00146   0.29172   0.34220   0.00000  Uiso   1.00
C324   C     0.00071   0.32021   0.42560   0.00000  Uiso   1.00
C325   C     0.97779   0.31874   0.52097   0.00000  Uiso   1.00
C326   C     0.98134   0.34750   0.58644   0.00000  Uiso   1.00
C327   C     0.97627   0.38731   0.72032   0.00000  Uiso   1.00
C328   C     0.98449   0.30854   0.24087   0.00000  Uiso   1.00
C329   C     0.94794   0.29725   0.18092   0.00000  Uiso   1.00
C330   C     0.93783   0.31619   0.09088   0.00000  Uiso   1.00
C331   C     0.90760   0.33787   0.93792   0.00000  Uiso   1.00
C332   C     0.05141   0.28320   0.32358   0.00000  Uiso   1.00
C333   C     0.07113   0.25059   0.33315   0.00000  Uiso   1.00
C334   C     0.11736   0.24819   0.31271   0.00000  Uiso   1.00
C335   C     0.19104   0.23051   0.28818   0.00000  Uiso   1.00
C336   C     0.04851   0.34541   0.28887   0.00000  Uiso   1.00
C337   C     0.02627   0.34938   0.39663   0.00000  Uiso   1.00
C338   C     0.02985   0.37815   0.46197   0.00000  Uiso   1.00
C339   C     0.00694   0.37671   0.55742   0.00000  Uiso   1.00
C340   C     0.01005   0.33771   0.21190   0.00000  Uiso   1.00
C341   C    -0.00001   0.35666   0.12192   0.00000  Uiso   1.00
C342   C     0.96343   0.34541   0.06186   0.00000  Uiso   1.00
C343   C     0.07697   0.31236   0.29461   0.00000  Uiso   1.00
C344   C     0.12318   0.31000   0.27415   0.00000  Uiso   1.00
C345   C     0.14296   0.27740   0.28369   0.00000  Uiso   1.00
H346   H     0.98156   0.26901   0.36475   0.00000  Uiso   1.00
H347   H     0.95801   0.29617   0.54336   0.00000  Uiso   1.00
H348   H     0.92817   0.27468   0.20336   0.00000  Uiso   1.00
H349   H     0.05134   0.22803   0.35556   0.00000  Uiso   1.00
H350   H     0.94317   0.33914   0.72859   0.00000  Uiso   1.00
H351   H     0.88024   0.29383   0.01166   0.00000  Uiso   1.00
H352   H     0.13997   0.19545   0.33261   0.00000  Uiso   1.00
H353   H     0.06841   0.36812   0.26631   0.00000  Uiso   1.00
H354   H     0.04963   0.40071   0.43953   0.00000  Uiso   1.00
H355   H     0.01978   0.37923   0.09952   0.00000  Uiso   1.00
H356   H     0.14295   0.33258   0.25173   0.00000  Uiso   1.00
H357   H     0.01752   0.42399   0.64432   0.00000  Uiso   1.00
H358   H     0.95460   0.37868   0.92738   0.00000  Uiso   1.00
H359   H     0.21433   0.28031   0.24834   0.00000  Uiso   1.00
O360   O     0.96641   0.40122   0.80216   0.00000  Uiso   1.00
O361   O     0.88386   0.34178   0.86156   0.00000  Uiso   1.00
O362   O     0.22462   0.21271   0.28266   0.00000  Uiso   1.00
N363   N     0.96325   0.35463   0.68499   0.00000  Uiso   1.00
N364   N     0.90442   0.31228   0.01471   0.00000  Uiso   1.00
N365   N     0.14724   0.22030   0.31475   0.00000  Uiso   1.00
N366   N     0.00326   0.40029   0.63965   0.00000  Uiso   1.00
N367   N     0.94443   0.35793   0.96937   0.00000  Uiso   1.00
N368   N     0.18725   0.26596   0.26941   0.00000  Uiso   1.00
C369   C     0.74854   0.04172   0.59220   0.00000  Uiso   1.00
C370   C     0.74929   0.07021   0.67560   0.00000  Uiso   1.00
C371   C     0.77221   0.06874   0.77097   0.00000  Uiso   1.00
C372   C     0.76866   0.09750   0.83644   0.00000  Uiso   1.00
C373   C     0.77373   0.13731   0.97032   0.00000  Uiso   1.00
C374   C     0.76551   0.05854   0.49087   0.00000  Uiso   1.00
C375   C     0.80206   0.04725   0.43092   0.00000  Uiso   1.00
C376   C     0.81217   0.06619   0.34088   0.00000  Uiso   1.00
C377   C     0.84240   0.08787   0.18792   0.00000  Uiso   1.00
C378   C     0.69859   0.03320   0.57358   0.00000  Uiso   1.00
C379   C     0.67887   0.00059   0.58315   0.00000  Uiso   1.00
C380   C     0.63264   0.99819   0.56271   0.00000  Uiso   1.00
C381   C     0.55896   0.98051   0.53818   0.00000  Uiso   1.00
C382   C     0.70149   0.09541   0.53887   0.00000  Uiso   1.00
C383   C     0.72373   0.09938   0.64663   0.00000  Uiso   1.00
C384   C     0.72015   0.12815   0.71197   0.00000  Uiso   1.00
C385   C     0.74306   0.12671   0.80742   0.00000  Uiso   1.00
C386   C     0.73995   0.08771   0.46190   0.00000  Uiso   1.00
C387   C     0.75001   0.10666   0.37192   0.00000  Uiso   1.00
C388   C     0.78657   0.09541   0.31186   0.00000  Uiso   1.00
C389   C     0.67303   0.06236   0.54461   0.00000  Uiso   1.00
C390   C     0.62682   0.06000   0.52415   0.00000  Uiso   1.00
C391   C     0.60704   0.02740   0.53369   0.00000  Uiso   1.00
H392   H     0.76844   0.01901   0.61475   0.00000  Uiso   1.00
H393   H     0.79199   0.04617   0.79336   0.00000  Uiso   1.00
H394   H     0.82183   0.02468   0.45336   0.00000  Uiso   1.00
H395   H     0.69866   0.97803   0.60556   0.00000  Uiso   1.00
H396   H     0.80683   0.08914   0.97859   0.00000  Uiso   1.00
H397   H     0.86976   0.04383   0.26166   0.00000  Uiso   1.00
H398   H     0.61003   0.94545   0.58261   0.00000  Uiso   1.00
H399   H     0.68159   0.11812   0.51631   0.00000  Uiso   1.00
H400   H     0.70037   0.15071   0.68953   0.00000  Uiso   1.00
H401   H     0.73022   0.12923   0.34952   0.00000  Uiso   1.00
H402   H     0.60705   0.08258   0.50173   0.00000  Uiso   1.00
H403   H     0.73248   0.17399   0.89432   0.00000  Uiso   1.00
H404   H     0.79540   0.12868   0.17738   0.00000  Uiso   1.00
H405   H     0.53567   0.03031   0.49834   0.00000  Uiso   1.00
O406   O     0.78359   0.15122   0.05216   0.00000  Uiso   1.00
O407   O     0.86614   0.09178   0.11156   0.00000  Uiso   1.00
O408   O     0.52538   0.96271   0.53266   0.00000  Uiso   1.00
N409   N     0.78675   0.10463   0.93499   0.00000  Uiso   1.00
N410   N     0.84558   0.06228   0.26471   0.00000  Uiso   1.00
N411   N     0.60276   0.97030   0.56475   0.00000  Uiso   1.00
N412   N     0.74674   0.15029   0.88965   0.00000  Uiso   1.00
N413   N     0.80557   0.10793   0.21937   0.00000  Uiso   1.00
N414   N     0.56275   0.01596   0.51941   0.00000  Uiso   1.00
C415   C     0.74854   0.54172   0.09220   0.00000  Uiso   1.00
C416   C     0.74929   0.57021   0.17560   0.00000  Uiso   1.00
C417   C     0.77221   0.56874   0.27097   0.00000  Uiso   1.00
C418   C     0.76866   0.59750   0.33644   0.00000  Uiso   1.00
C419   C     0.77373   0.63731   0.47032   0.00000  Uiso   1.00
C420   C     0.76551   0.55854   0.99087   0.00000  Uiso   1.00
C421   C     0.80206   0.54725   0.93092   0.00000  Uiso   1.00
C422   C     0.81217   0.56619   0.84088   0.00000  Uiso   1.00
C423   C     0.84240   0.58787   0.68792   0.00000  Uiso   1.00
C424   C     0.69859   0.53320   0.07358   0.00000  Uiso   1.00
C425   C     0.67887   0.50059   0.08315   0.00000  Uiso   1.00
C426   C     0.63264   0.49819   0.06271   0.00000  Uiso   1.00
C427   C     0.55896   0.48051   0.03818   0.00000  Uiso   1.00
C428   C     0.70149   0.59541   0.03887   0.00000  Uiso   1.00
C429   C     0.72373   0.59938   0.14663   0.00000  Uiso   1.00
C430   C     0.72015   0.62815   0.21197   0.00000  Uiso   1.00
C431   C     0.74306   0.62671   0.30742   0.00000  Uiso   1.00
C432   C     0.73995   0.58771   0.96190   0.00000  Uiso   1.00
C433   C     0.75001   0.60666   0.87192   0.00000  Uiso   1.00
C434   C     0.78657   0.59541   0.81186   0.00000  Uiso   1.00
C435   C     0.67303   0.56236   0.04461   0.00000  Uiso   1.00
C436   C     0.62682   0.56000   0.02415   0.00000  Uiso   1.00
C437   C     0.60704   0.52740   0.03369   0.00000  Uiso   1.00
H438   H     0.76844   0.51901   0.11475   0.00000  Uiso   1.00
H439   H     0.79199   0.54617   0.29336   0.00000  Uiso   1.00
H440   H     0.82183   0.52468   0.95336   0.00000  Uiso   1.00
H441   H     0.69866   0.47803   0.10556   0.00000  Uiso   1.00
H442   H     0.80683   0.58914   0.47859   0.00000  Uiso   1.00
H443   H     0.86976   0.54383   0.76166   0.00000  Uiso   1.00
H444   H     0.61003   0.44545   0.08261   0.00000  Uiso   1.00
H445   H     0.68159   0.61812   0.01631   0.00000  Uiso   1.00
H446   H     0.70037   0.65071   0.18953   0.00000  Uiso   1.00
H447   H     0.73022   0.62923   0.84952   0.00000  Uiso   1.00
H448   H     0.60705   0.58258   0.00173   0.00000  Uiso   1.00
H449   H     0.73248   0.67399   0.39432   0.00000  Uiso   1.00
H450   H     0.79540   0.62868   0.67738   0.00000  Uiso   1.00
H451   H     0.53567   0.53031   0.99834   0.00000  Uiso   1.00
O452   O     0.78359   0.65122   0.55216   0.00000  Uiso   1.00
O453   O     0.86614   0.59178   0.61156   0.00000  Uiso   1.00
O454   O     0.52538   0.46271   0.03266   0.00000  Uiso   1.00
N455   N     0.78675   0.60463   0.43499   0.00000  Uiso   1.00
N456   N     0.84558   0.56228   0.76471   0.00000  Uiso   1.00
N457   N     0.60276   0.47030   0.06475   0.00000  Uiso   1.00
N458   N     0.74674   0.65029   0.38965   0.00000  Uiso   1.00
N459   N     0.80557   0.60793   0.71937   0.00000  Uiso   1.00
N460   N     0.56275   0.51596   0.01941   0.00000  Uiso   1.00
C461   C     0.24854   0.04172   0.09220   0.00000  Uiso   1.00
C462   C     0.24929   0.07021   0.17560   0.00000  Uiso   1.00
C463   C     0.27221   0.06874   0.27097   0.00000  Uiso   1.00
C464   C     0.26866   0.09750   0.33644   0.00000  Uiso   1.00
C465   C     0.27373   0.13731   0.47032   0.00000  Uiso   1.00
C466   C     0.26551   0.05854   0.99087   0.00000  Uiso   1.00
C467   C     0.30206   0.04725   0.93092   0.00000  Uiso   1.00
C468   C     0.31217   0.06619   0.84088   0.00000  Uiso   1.00
C469   C     0.34240   0.08787   0.68792   0.00000  Uiso   1.00
C470   C     0.19859   0.03320   0.07358   0.00000  Uiso   1.00
C471   C     0.17887   0.00059   0.08315   0.00000  Uiso   1.00
C472   C     0.13264   0.99819   0.06271   0.00000  Uiso   1.00
C473   C     0.05896   0.98051   0.03818   0.00000  Uiso   1.00
C474   C     0.20149   0.09541   0.03887   0.00000  Uiso   1.00
C475   C     0.22373   0.09938   0.14663   0.00000  Uiso   1.00
C476   C     0.22015   0.12815   0.21197   0.00000  Uiso   1.00
C477   C     0.24306   0.12671   0.30742   0.00000  Uiso   1.00
C478   C     0.23995   0.08771   0.96190   0.00000  Uiso   1.00
C479   C     0.25001   0.10666   0.87192   0.00000  Uiso   1.00
C480   C     0.28657   0.09541   0.81186   0.00000  Uiso   1.00
C481   C     0.17303   0.06236   0.04461   0.00000  Uiso   1.00
C482   C     0.12682   0.06000   0.02415   0.00000  Uiso   1.00
C483   C     0.10704   0.02740   0.03369   0.00000  Uiso   1.00
H484   H     0.26844   0.01901   0.11475   0.00000  Uiso   1.00
H485   H     0.29199   0.04617   0.29336   0.00000  Uiso   1.00
H486   H     0.32183   0.02468   0.95336   0.00000  Uiso   1.00
H487   H     0.19866   0.97803   0.10556   0.00000  Uiso   1.00
H488   H     0.30683   0.08914   0.47859   0.00000  Uiso   1.00
H489   H     0.36976   0.04383   0.76166   0.00000  Uiso   1.00
H490   H     0.11003   0.94545   0.08261   0.00000  Uiso   1.00
H491   H     0.18159   0.11812   0.01631   0.00000  Uiso   1.00
H492   H     0.20037   0.15071   0.18953   0.00000  Uiso   1.00
H493   H     0.23022   0.12923   0.84952   0.00000  Uiso   1.00
H494   H     0.10705   0.08258   0.00173   0.00000  Uiso   1.00
H495   H     0.23248   0.17399   0.39432   0.00000  Uiso   1.00
H496   H     0.29540   0.12868   0.67738   0.00000  Uiso   1.00
H497   H     0.03567   0.03031   0.99834   0.00000  Uiso   1.00
O498   O     0.28359   0.15122   0.55216   0.00000  Uiso   1.00
O499   O     0.36614   0.09178   0.61156   0.00000  Uiso   1.00
O500   O     0.02538   0.96271   0.03266   0.00000  Uiso   1.00
N501   N     0.28675   0.10463   0.43499   0.00000  Uiso   1.00
N502   N     0.34558   0.06228   0.76471   0.00000  Uiso   1.00
N503   N     0.10276   0.97030   0.06475   0.00000  Uiso   1.00
N504   N     0.24674   0.15029   0.38965   0.00000  Uiso   1.00
N505   N     0.30557   0.10793   0.71937   0.00000  Uiso   1.00
N506   N     0.06275   0.01596   0.01941   0.00000  Uiso   1.00
C507   C     0.24854   0.54172   0.59220   0.00000  Uiso   1.00
C508   C     0.24929   0.57021   0.67560   0.00000  Uiso   1.00
C509   C     0.27221   0.56874   0.77097   0.00000  Uiso   1.00
C510   C     0.26866   0.59750   0.83644   0.00000  Uiso   1.00
C511   C     0.27373   0.63731   0.97032   0.00000  Uiso   1.00
C512   C     0.26551   0.55854   0.49087   0.00000  Uiso   1.00
C513   C     0.30206   0.54725   0.43092   0.00000  Uiso   1.00
C514   C     0.31217   0.56619   0.34088   0.00000  Uiso   1.00
C515   C     0.34240   0.58787   0.18792   0.00000  Uiso   1.00
C516   C     0.19859   0.53320   0.57358   0.00000  Uiso   1.00
C517   C     0.17887   0.50059   0.58315   0.00000  Uiso   1.00
C518   C     0.13264   0.49819   0.56271   0.00000  Uiso   1.00
C519   C     0.05896   0.48051   0.53818   0.00000  Uiso   1.00
C520   C     0.20149   0.59541   0.53887   0.00000  Uiso   1.00
C521   C     0.22373   0.59938   0.64663   0.00000  Uiso   1.00
C522   C     0.22015   0.62815   0.71197   0.00000  Uiso   1.00
C523   C     0.24306   0.62671   0.80742   0.00000  Uiso   1.00
C524   C     0.23995   0.58771   0.46190   0.00000  Uiso   1.00
C525   C     0.25001   0.60666   0.37192   0.00000  Uiso   1.00
C526   C     0.28657   0.59541   0.31186   0.00000  Uiso   1.00
C527   C     0.17303   0.56236   0.54461   0.00000  Uiso   1.00
C528   C     0.12682   0.56000   0.52415   0.00000  Uiso   1.00
C529   C     0.10704   0.52740   0.53369   0.00000  Uiso   1.00
H530   H     0.26844   0.51901   0.61475   0.00000  Uiso   1.00
H531   H     0.29199   0.54617   0.79336   0.00000  Uiso   1.00
H532   H     0.32183   0.52468   0.45336   0.00000  Uiso   1.00
H533   H     0.19866   0.47803   0.60556   0.00000  Uiso   1.00
H534   H     0.30683   0.58914   0.97859   0.00000  Uiso   1.00
H535   H     0.36976   0.54383   0.26166   0.00000  Uiso   1.00
H536   H     0.11003   0.44545   0.58261   0.00000  Uiso   1.00
H537   H     0.18159   0.61812   0.51631   0.00000  Uiso   1.00
H538   H     0.20037   0.65071   0.68953   0.00000  Uiso   1.00
H539   H     0.23022   0.62923   0.34952   0.00000  Uiso   1.00
H540   H     0.10705   0.58258   0.50173   0.00000  Uiso   1.00
H541   H     0.23248   0.67399   0.89432   0.00000  Uiso   1.00
H542   H     0.29540   0.62868   0.17738   0.00000  Uiso   1.00
H543   H     0.03567   0.53031   0.49834   0.00000  Uiso   1.00
O544   O     0.28359   0.65122   0.05216   0.00000  Uiso   1.00
O545   O     0.36614   0.59178   0.11156   0.00000  Uiso   1.00
O546   O     0.02538   0.46271   0.53266   0.00000  Uiso   1.00
N547   N     0.28675   0.60463   0.93499   0.00000  Uiso   1.00
N548   N     0.34558   0.56228   0.26471   0.00000  Uiso   1.00
N549   N     0.10276   0.47030   0.56475   0.00000  Uiso   1.00
N550   N     0.24674   0.65029   0.88965   0.00000  Uiso   1.00
N551   N     0.30557   0.60793   0.21937   0.00000  Uiso   1.00
N552   N     0.06275   0.51596   0.51941   0.00000  Uiso   1.00
C553   C     0.75146   0.45828   0.59220   0.00000  Uiso   1.00
C554   C     0.75071   0.42979   0.67560   0.00000  Uiso   1.00
C555   C     0.72779   0.43126   0.77097   0.00000  Uiso   1.00
C556   C     0.73134   0.40250   0.83644   0.00000  Uiso   1.00
C557   C     0.72627   0.36269   0.97032   0.00000  Uiso   1.00
C558   C     0.73449   0.44146   0.49087   0.00000  Uiso   1.00
C559   C     0.69794   0.45275   0.43092   0.00000  Uiso   1.00
C560   C     0.68783   0.43381   0.34088   0.00000  Uiso   1.00
C561   C     0.65760   0.41213   0.18792   0.00000  Uiso   1.00
C562   C     0.80141   0.46680   0.57358   0.00000  Uiso   1.00
C563   C     0.82113   0.49941   0.58315   0.00000  Uiso   1.00
C564   C     0.86736   0.50181   0.56271   0.00000  Uiso   1.00
C565   C     0.94104   0.51949   0.53818   0.00000  Uiso   1.00
C566   C     0.79851   0.40459   0.53887   0.00000  Uiso   1.00
C567   C     0.77627   0.40062   0.64663   0.00000  Uiso   1.00
C568   C     0.77985   0.37185   0.71197   0.00000  Uiso   1.00
C569   C     0.75694   0.37329   0.80742   0.00000  Uiso   1.00
C570   C     0.76005   0.41229   0.46190   0.00000  Uiso   1.00
C571   C     0.74999   0.39334   0.37192   0.00000  Uiso   1.00
C572   C     0.71343   0.40459   0.31186   0.00000  Uiso   1.00
C573   C     0.82697   0.43764   0.54461   0.00000  Uiso   1.00
C574   C     0.87318   0.44000   0.52415   0.00000  Uiso   1.00
C575   C     0.89296   0.47260   0.53369   0.00000  Uiso   1.00
H576   H     0.73156   0.48099   0.61475   0.00000  Uiso   1.00
H577   H     0.70801   0.45383   0.79336   0.00000  Uiso   1.00
H578   H     0.67817   0.47532   0.45336   0.00000  Uiso   1.00
H579   H     0.80134   0.52197   0.60556   0.00000  Uiso   1.00
H580   H     0.69317   0.41086   0.97859   0.00000  Uiso   1.00
H581   H     0.63024   0.45617   0.26166   0.00000  Uiso   1.00
H582   H     0.88997   0.55455   0.58261   0.00000  Uiso   1.00
H583   H     0.81841   0.38188   0.51631   0.00000  Uiso   1.00
H584   H     0.79963   0.34929   0.68953   0.00000  Uiso   1.00
H585   H     0.76978   0.37077   0.34952   0.00000  Uiso   1.00
H586   H     0.89295   0.41742   0.50173   0.00000  Uiso   1.00
H587   H     0.76752   0.32601   0.89432   0.00000  Uiso   1.00
H588   H     0.70460   0.37132   0.17738   0.00000  Uiso   1.00
H589   H     0.96433   0.46969   0.49834   0.00000  Uiso   1.00
O590   O     0.71641   0.34878   0.05216   0.00000  Uiso   1.00
O591   O     0.63386   0.40822   0.11156   0.00000  Uiso   1.00
O592   O     0.97462   0.53729   0.53266   0.00000  Uiso   1.00
N593   N     0.71325   0.39537   0.93499   0.00000  Uiso   1.00
N594   N     0.65442   0.43772   0.26471   0.00000  Uiso   1.00
N595   N     0.89724   0.52970   0.56475   0.00000  Uiso   1.00
N596   N     0.75326   0.34971   0.88965   0.00000  Uiso   1.00
N597   N     0.69443   0.39207   0.21937   0.00000  Uiso   1.00
N598   N     0.93725   0.48404   0.51941   0.00000  Uiso   1.00
C599   C     0.75146   0.95828   0.09220   0.00000  Uiso   1.00
C600   C     0.75071   0.92979   0.17560   0.00000  Uiso   1.00
C601   C     0.72779   0.93126   0.27097   0.00000  Uiso   1.00
C602   C     0.73134   0.90250   0.33644   0.00000  Uiso   1.00
C603   C     0.72627   0.86269   0.47032   0.00000  Uiso   1.00
C604   C     0.73449   0.94146   0.99087   0.00000  Uiso   1.00
C605   C     0.69794   0.95275   0.93092   0.00000  Uiso   1.00
C606   C     0.68783   0.93381   0.84088   0.00000  Uiso   1.00
C607   C     0.65760   0.91213   0.68792   0.00000  Uiso   1.00
C608   C     0.80141   0.96680   0.07358   0.00000  Uiso   1.00
C609   C     0.82113   0.99941   0.08315   0.00000  Uiso   1.00
C610   C     0.86736   0.00181   0.06271   0.00000  Uiso   1.00
C611   C     0.94104   0.01949   0.03818   0.00000  Uiso   1.00
C612   C     0.79851   0.90459   0.03887   0.00000  Uiso   1.00
C613   C     0.77627   0.90062   0.14663   0.00000  Uiso   1.00
C614   C     0.77985   0.87185   0.21197   0.00000  Uiso   1.00
C615   C     0.75694   0.87329   0.30742   0.00000  Uiso   1.00
C616   C     0.76005   0.91229   0.96190   0.00000  Uiso   1.00
C617   C     0.74999   0.89334   0.87192   0.00000  Uiso   1.00
C618   C     0.71343   0.90459   0.81186   0.00000  Uiso   1.00
C619   C     0.82697   0.93764   0.04461   0.00000  Uiso   1.00
C620   C     0.87318   0.94000   0.02415   0.00000  Uiso   1.00
C621   C     0.89296   0.97260   0.03369   0.00000  Uiso   1.00
H622   H     0.73156   0.98099   0.11475   0.00000  Uiso   1.00
H623   H     0.70801   0.95383   0.29336   0.00000  Uiso   1.00
H624   H     0.67817   0.97532   0.95336   0.00000  Uiso   1.00
H625   H     0.80134   0.02197   0.10556   0.00000  Uiso   1.00
H626   H     0.69317   0.91086   0.47859   0.00000  Uiso   1.00
H627   H     0.63024   0.95617   0.76166   0.00000  Uiso   1.00
H628   H     0.88997   0.05455   0.08261   0.00000  Uiso   1.00
H629   H     0.81841   0.88188   0.01631   0.00000  Uiso   1.00
H630   H     0.79963   0.84929   0.18953   0.00000  Uiso   1.00
H631   H     0.76978   0.87077   0.84952   0.00000  Uiso   1.00
H632   H     0.89295   0.91742   0.00173   0.00000  Uiso   1.00
H633   H     0.76752   0.82601   0.39432   0.00000  Uiso   1.00
H634   H     0.70460   0.87132   0.67738   0.00000  Uiso   1.00
H635   H     0.96433   0.96969   0.99834   0.00000  Uiso   1.00
O636   O     0.71641   0.84878   0.55216   0.00000  Uiso   1.00
O637   O     0.63386   0.90822   0.61156   0.00000  Uiso   1.00
O638   O     0.97462   0.03729   0.03266   0.00000  Uiso   1.00
N639   N     0.71325   0.89537   0.43499   0.00000  Uiso   1.00
N640   N     0.65442   0.93772   0.76471   0.00000  Uiso   1.00
N641   N     0.89724   0.02970   0.06475   0.00000  Uiso   1.00
N642   N     0.75326   0.84971   0.38965   0.00000  Uiso   1.00
N643   N     0.69443   0.89207   0.71937   0.00000  Uiso   1.00
N644   N     0.93725   0.98404   0.01941   0.00000  Uiso   1.00
C645   C     0.25146   0.45828   0.09220   0.00000  Uiso   1.00
C646   C     0.25071   0.42979   0.17560   0.00000  Uiso   1.00
C647   C     0.22779   0.43126   0.27097   0.00000  Uiso   1.00
C648   C     0.23134   0.40250   0.33644   0.00000  Uiso   1.00
C649   C     0.22627   0.36269   0.47032   0.00000  Uiso   1.00
C650   C     0.23449   0.44146   0.99087   0.00000  Uiso   1.00
C651   C     0.19794   0.45275   0.93092   0.00000  Uiso   1.00
C652   C     0.18783   0.43381   0.84088   0.00000  Uiso   1.00
C653   C     0.15760   0.41213   0.68792   0.00000  Uiso   1.00
C654   C     0.30141   0.46680   0.07358   0.00000  Uiso   1.00
C655   C     0.32113   0.49941   0.08315   0.00000  Uiso   1.00
C656   C     0.36736   0.50181   0.06271   0.00000  Uiso   1.00
C657   C     0.44104   0.51949   0.03818   0.00000  Uiso   1.00
C658   C     0.29851   0.40459   0.03887   0.00000  Uiso   1.00
C659   C     0.27627   0.40062   0.14663   0.00000  Uiso   1.00
C660   C     0.27985   0.37185   0.21197   0.00000  Uiso   1.00
C661   C     0.25694   0.37329   0.30742   0.00000  Uiso   1.00
C662   C     0.26005   0.41229   0.96190   0.00000  Uiso   1.00
C663   C     0.24999   0.39334   0.87192   0.00000  Uiso   1.00
C664   C     0.21343   0.40459   0.81186   0.00000  Uiso   1.00
C665   C     0.32697   0.43764   0.04461   0.00000  Uiso   1.00
C666   C     0.37318   0.44000   0.02415   0.00000  Uiso   1.00
C667   C     0.39296   0.47260   0.03369   0.00000  Uiso   1.00
H668   H     0.23156   0.48099   0.11475   0.00000  Uiso   1.00
H669   H     0.20801   0.45383   0.29336   0.00000  Uiso   1.00
H670   H     0.17817   0.47532   0.95336   0.00000  Uiso   1.00
H671   H     0.30134   0.52197   0.10556   0.00000  Uiso   1.00
H672   H     0.19317   0.41086   0.47859   0.00000  Uiso   1.00
H673   H     0.13024   0.45617   0.76166   0.00000  Uiso   1.00
H674   H     0.38997   0.55455   0.08261   0.00000  Uiso   1.00
H675   H     0.31841   0.38188   0.01631   0.00000  Uiso   1.00
H676   H     0.29963   0.34929   0.18953   0.00000  Uiso   1.00
H677   H     0.26978   0.37077   0.84952   0.00000  Uiso   1.00
H678   H     0.39295   0.41742   0.00173   0.00000  Uiso   1.00
H679   H     0.26752   0.32601   0.39432   0.00000  Uiso   1.00
H680   H     0.20460   0.37132   0.67738   0.00000  Uiso   1.00
H681   H     0.46433   0.46969   0.99834   0.00000  Uiso   1.00
O682   O     0.21641   0.34878   0.55216   0.00000  Uiso   1.00
O683   O     0.13386   0.40822   0.61156   0.00000  Uiso   1.00
O684   O     0.47462   0.53729   0.03266   0.00000  Uiso   1.00
N685   N     0.21325   0.39537   0.43499   0.00000  Uiso   1.00
N686   N     0.15442   0.43772   0.76471   0.00000  Uiso   1.00
N687   N     0.39724   0.52970   0.06475   0.00000  Uiso   1.00
N688   N     0.25326   0.34971   0.38965   0.00000  Uiso   1.00
N689   N     0.19443   0.39207   0.71937   0.00000  Uiso   1.00
N690   N     0.43725   0.48404   0.01941   0.00000  Uiso   1.00
C691   C     0.25146   0.95828   0.59220   0.00000  Uiso   1.00
C692   C     0.25071   0.92979   0.67560   0.00000  Uiso   1.00
C693   C     0.22779   0.93126   0.77097   0.00000  Uiso   1.00
C694   C     0.23134   0.90250   0.83644   0.00000  Uiso   1.00
C695   C     0.22627   0.86269   0.97032   0.00000  Uiso   1.00
C696   C     0.23449   0.94146   0.49087   0.00000  Uiso   1.00
C697   C     0.19794   0.95275   0.43092   0.00000  Uiso   1.00
C698   C     0.18783   0.93381   0.34088   0.00000  Uiso   1.00
C699   C     0.15760   0.91213   0.18792   0.00000  Uiso   1.00
C700   C     0.30141   0.96680   0.57358   0.00000  Uiso   1.00
C701   C     0.32113   0.99941   0.58315   0.00000  Uiso   1.00
C702   C     0.36736   0.00181   0.56271   0.00000  Uiso   1.00
C703   C     0.44104   0.01949   0.53818   0.00000  Uiso   1.00
C704   C     0.29851   0.90459   0.53887   0.00000  Uiso   1.00
C705   C     0.27627   0.90062   0.64663   0.00000  Uiso   1.00
C706   C     0.27985   0.87185   0.71197   0.00000  Uiso   1.00
C707   C     0.25694   0.87329   0.80742   0.00000  Uiso   1.00
C708   C     0.26005   0.91229   0.46190   0.00000  Uiso   1.00
C709   C     0.24999   0.89334   0.37192   0.00000  Uiso   1.00
C710   C     0.21343   0.90459   0.31186   0.00000  Uiso   1.00
C711   C     0.32697   0.93764   0.54461   0.00000  Uiso   1.00
C712   C     0.37318   0.94000   0.52415   0.00000  Uiso   1.00
C713   C     0.39296   0.97260   0.53369   0.00000  Uiso   1.00
H714   H     0.23156   0.98099   0.61475   0.00000  Uiso   1.00
H715   H     0.20801   0.95383   0.79336   0.00000  Uiso   1.00
H716   H     0.17817   0.97532   0.45336   0.00000  Uiso   1.00
H717   H     0.30134   0.02197   0.60556   0.00000  Uiso   1.00
H718   H     0.19317   0.91086   0.97859   0.00000  Uiso   1.00
H719   H     0.13024   0.95617   0.26166   0.00000  Uiso   1.00
H720   H     0.38997   0.05455   0.58261   0.00000  Uiso   1.00
H721   H     0.31841   0.88188   0.51631   0.00000  Uiso   1.00
H722   H     0.29963   0.84929   0.68953   0.00000  Uiso   1.00
H723   H     0.26978   0.87077   0.34952   0.00000  Uiso   1.00
H724   H     0.39295   0.91742   0.50173   0.00000  Uiso   1.00
H725   H     0.26752   0.82601   0.89432   0.00000  Uiso   1.00
H726   H     0.20460   0.87132   0.17738   0.00000  Uiso   1.00
H727   H     0.46433   0.96969   0.49834   0.00000  Uiso   1.00
O728   O     0.21641   0.84878   0.05216   0.00000  Uiso   1.00
O729   O     0.13386   0.90822   0.11156   0.00000  Uiso   1.00
O730   O     0.47462   0.03729   0.53266   0.00000  Uiso   1.00
N731   N     0.21325   0.89537   0.93499   0.00000  Uiso   1.00
N732   N     0.15442   0.93772   0.26471   0.00000  Uiso   1.00
N733   N     0.39724   0.02970   0.56475   0.00000  Uiso   1.00
N734   N     0.25326   0.84971   0.88965   0.00000  Uiso   1.00
N735   N     0.19443   0.89207   0.21937   0.00000  Uiso   1.00
N736   N     0.43725   0.98404   0.51941   0.00000  Uiso   1.00
