data_job_01511
_audit_creation_date              2018-12-19
_audit_creation_method            'Materials Studio'
_symmetry_space_group_name_H-M    'P1'
_symmetry_Int_Tables_number       1
_symmetry_cell_setting            triclinic
loop_
_symmetry_equiv_pos_as_xyz
  x,y,z
_cell_length_a                    29.1161
_cell_length_b                    29.1161
_cell_length_c                    13.2355
_cell_angle_alpha                 90.0000
_cell_angle_beta                  90.0000
_cell_angle_gamma                 90.0000
loop_
_atom_site_label
_atom_site_type_symbol
_atom_site_fract_x
_atom_site_fract_y
_atom_site_fract_z
_atom_site_U_iso_or_equiv
_atom_site_adp_type
_atom_site_occupancy
C1     C     0.35607   0.29031   0.49005   0.00000  Uiso   1.00
C2     C     0.38571   0.31492   0.56809   0.00000  Uiso   1.00
C3     C     0.41942   0.29470   0.62738   0.00000  Uiso   1.00
C4     C     0.44273   0.32309   0.69428   0.00000  Uiso   1.00
C5     C     0.49028   0.35417   0.81438   0.00000  Uiso   1.00
C6     C     0.30638   0.29940   0.52053   0.00000  Uiso   1.00
C7     C     0.27339   0.26613   0.53983   0.00000  Uiso   1.00
C8     C     0.22992   0.28146   0.56667   0.00000  Uiso   1.00
C9     C     0.15430   0.28844   0.61287   0.00000  Uiso   1.00
C10    C     0.36338   0.31579   0.39070   0.00000  Uiso   1.00
C11    C     0.37831   0.29630   0.30081   0.00000  Uiso   1.00
C12    C     0.38281   0.32543   0.21834   0.00000  Uiso   1.00
C13    C     0.39570   0.35786   0.06295   0.00000  Uiso   1.00
C14    C     0.33751   0.37668   0.50340   0.00000  Uiso   1.00
C15    C     0.37563   0.36184   0.57534   0.00000  Uiso   1.00
C16    C     0.39890   0.39026   0.64216   0.00000  Uiso   1.00
C17    C     0.43264   0.37009   0.70154   0.00000  Uiso   1.00
C18    C     0.29630   0.34631   0.52778   0.00000  Uiso   1.00
C19    C     0.25287   0.36169   0.55460   0.00000  Uiso   1.00
C20    C     0.21982   0.32846   0.57394   0.00000  Uiso   1.00
C21    C     0.35331   0.36271   0.39795   0.00000  Uiso   1.00
C22    C     0.35778   0.39187   0.31559   0.00000  Uiso   1.00
C23    C     0.37272   0.37243   0.22561   0.00000  Uiso   1.00
H24    H     0.36391   0.25378   0.48441   0.00000  Uiso   1.00
H25    H     0.42721   0.25839   0.62175   0.00000  Uiso   1.00
H26    H     0.28120   0.22983   0.53420   0.00000  Uiso   1.00
H27    H     0.38610   0.26000   0.29523   0.00000  Uiso   1.00
H28    H     0.49293   0.28419   0.77725   0.00000  Uiso   1.00
H29    H     0.18507   0.22396   0.59261   0.00000  Uiso   1.00
H30    H     0.40627   0.28757   0.08869   0.00000  Uiso   1.00
H31    H     0.32966   0.41321   0.50905   0.00000  Uiso   1.00
H32    H     0.39109   0.42657   0.64775   0.00000  Uiso   1.00
H33    H     0.24508   0.39800   0.56020   0.00000  Uiso   1.00
H34    H     0.34998   0.42817   0.32123   0.00000  Uiso   1.00
H35    H     0.46361   0.42069   0.79836   0.00000  Uiso   1.00
H36    H     0.15574   0.36046   0.61371   0.00000  Uiso   1.00
H37    H     0.37695   0.42407   0.10980   0.00000  Uiso   1.00
O38    O     0.51929   0.35835   0.87863   0.00000  Uiso   1.00
O39    O     0.11538   0.27933   0.63636   0.00000  Uiso   1.00
O40    O     0.40559   0.36279   0.97524   0.00000  Uiso   1.00
N41    N     0.47761   0.31448   0.76317   0.00000  Uiso   1.00
N42    N     0.18977   0.25817   0.59056   0.00000  Uiso   1.00
N43    N     0.39657   0.31764   0.11943   0.00000  Uiso   1.00
N44    N     0.46183   0.38793   0.77453   0.00000  Uiso   1.00
N45    N     0.17400   0.33162   0.60191   0.00000  Uiso   1.00
N46    N     0.38079   0.39109   0.13078   0.00000  Uiso   1.00
C47    C     0.85607   0.79031   0.99005   0.00000  Uiso   1.00
C48    C     0.88571   0.81492   0.06809   0.00000  Uiso   1.00
C49    C     0.91942   0.79470   0.12738   0.00000  Uiso   1.00
C50    C     0.94273   0.82309   0.19428   0.00000  Uiso   1.00
C51    C     0.99028   0.85417   0.31438   0.00000  Uiso   1.00
C52    C     0.80638   0.79940   0.02053   0.00000  Uiso   1.00
C53    C     0.77339   0.76613   0.03983   0.00000  Uiso   1.00
C54    C     0.72992   0.78146   0.06667   0.00000  Uiso   1.00
C55    C     0.65430   0.78844   0.11287   0.00000  Uiso   1.00
C56    C     0.86338   0.81579   0.89070   0.00000  Uiso   1.00
C57    C     0.87831   0.79630   0.80081   0.00000  Uiso   1.00
C58    C     0.88281   0.82543   0.71834   0.00000  Uiso   1.00
C59    C     0.89570   0.85786   0.56295   0.00000  Uiso   1.00
C60    C     0.83751   0.87668   0.00340   0.00000  Uiso   1.00
C61    C     0.87563   0.86184   0.07534   0.00000  Uiso   1.00
C62    C     0.89890   0.89026   0.14216   0.00000  Uiso   1.00
C63    C     0.93264   0.87009   0.20154   0.00000  Uiso   1.00
C64    C     0.79630   0.84631   0.02778   0.00000  Uiso   1.00
C65    C     0.75287   0.86169   0.05460   0.00000  Uiso   1.00
C66    C     0.71982   0.82846   0.07394   0.00000  Uiso   1.00
C67    C     0.85331   0.86271   0.89795   0.00000  Uiso   1.00
C68    C     0.85778   0.89187   0.81559   0.00000  Uiso   1.00
C69    C     0.87272   0.87243   0.72561   0.00000  Uiso   1.00
H70    H     0.86391   0.75378   0.98441   0.00000  Uiso   1.00
H71    H     0.92721   0.75839   0.12175   0.00000  Uiso   1.00
H72    H     0.78120   0.72983   0.03420   0.00000  Uiso   1.00
H73    H     0.88610   0.76000   0.79523   0.00000  Uiso   1.00
H74    H     0.99293   0.78419   0.27725   0.00000  Uiso   1.00
H75    H     0.68507   0.72396   0.09261   0.00000  Uiso   1.00
H76    H     0.90627   0.78757   0.58869   0.00000  Uiso   1.00
H77    H     0.82966   0.91321   0.00905   0.00000  Uiso   1.00
H78    H     0.89109   0.92657   0.14775   0.00000  Uiso   1.00
H79    H     0.74508   0.89800   0.06020   0.00000  Uiso   1.00
H80    H     0.84998   0.92817   0.82123   0.00000  Uiso   1.00
H81    H     0.96361   0.92069   0.29836   0.00000  Uiso   1.00
H82    H     0.65574   0.86046   0.11371   0.00000  Uiso   1.00
H83    H     0.87695   0.92407   0.60980   0.00000  Uiso   1.00
O84    O     0.01929   0.85835   0.37863   0.00000  Uiso   1.00
O85    O     0.61538   0.77933   0.13636   0.00000  Uiso   1.00
O86    O     0.90559   0.86279   0.47524   0.00000  Uiso   1.00
N87    N     0.97761   0.81448   0.26317   0.00000  Uiso   1.00
N88    N     0.68977   0.75817   0.09056   0.00000  Uiso   1.00
N89    N     0.89657   0.81764   0.61943   0.00000  Uiso   1.00
N90    N     0.96183   0.88793   0.27453   0.00000  Uiso   1.00
N91    N     0.67400   0.83162   0.10191   0.00000  Uiso   1.00
N92    N     0.88079   0.89109   0.63078   0.00000  Uiso   1.00
C93    C     0.14393   0.20969   0.99005   0.00000  Uiso   1.00
C94    C     0.11429   0.18508   0.06809   0.00000  Uiso   1.00
C95    C     0.08058   0.20530   0.12738   0.00000  Uiso   1.00
C96    C     0.05727   0.17691   0.19428   0.00000  Uiso   1.00
C97    C     0.00972   0.14583   0.31438   0.00000  Uiso   1.00
C98    C     0.19362   0.20060   0.02053   0.00000  Uiso   1.00
C99    C     0.22661   0.23387   0.03983   0.00000  Uiso   1.00
C100   C     0.27008   0.21854   0.06667   0.00000  Uiso   1.00
C101   C     0.34570   0.21156   0.11287   0.00000  Uiso   1.00
C102   C     0.13662   0.18421   0.89070   0.00000  Uiso   1.00
C103   C     0.12169   0.20370   0.80081   0.00000  Uiso   1.00
C104   C     0.11719   0.17457   0.71834   0.00000  Uiso   1.00
C105   C     0.10430   0.14214   0.56295   0.00000  Uiso   1.00
C106   C     0.16249   0.12332   0.00340   0.00000  Uiso   1.00
C107   C     0.12437   0.13816   0.07534   0.00000  Uiso   1.00
C108   C     0.10110   0.10974   0.14216   0.00000  Uiso   1.00
C109   C     0.06736   0.12991   0.20154   0.00000  Uiso   1.00
C110   C     0.20370   0.15369   0.02778   0.00000  Uiso   1.00
C111   C     0.24713   0.13831   0.05460   0.00000  Uiso   1.00
C112   C     0.28018   0.17154   0.07394   0.00000  Uiso   1.00
C113   C     0.14669   0.13729   0.89795   0.00000  Uiso   1.00
C114   C     0.14222   0.10813   0.81559   0.00000  Uiso   1.00
C115   C     0.12728   0.12757   0.72561   0.00000  Uiso   1.00
H116   H     0.13609   0.24622   0.98441   0.00000  Uiso   1.00
H117   H     0.07279   0.24161   0.12175   0.00000  Uiso   1.00
H118   H     0.21880   0.27017   0.03420   0.00000  Uiso   1.00
H119   H     0.11390   0.24000   0.79523   0.00000  Uiso   1.00
H120   H     0.00707   0.21581   0.27725   0.00000  Uiso   1.00
H121   H     0.31493   0.27604   0.09261   0.00000  Uiso   1.00
H122   H     0.09373   0.21243   0.58869   0.00000  Uiso   1.00
H123   H     0.17034   0.08679   0.00905   0.00000  Uiso   1.00
H124   H     0.10891   0.07343   0.14775   0.00000  Uiso   1.00
H125   H     0.25492   0.10200   0.06020   0.00000  Uiso   1.00
H126   H     0.15002   0.07183   0.82123   0.00000  Uiso   1.00
H127   H     0.03639   0.07931   0.29836   0.00000  Uiso   1.00
H128   H     0.34426   0.13954   0.11371   0.00000  Uiso   1.00
H129   H     0.12305   0.07593   0.60980   0.00000  Uiso   1.00
O130   O     0.98071   0.14165   0.37863   0.00000  Uiso   1.00
O131   O     0.38462   0.22067   0.13636   0.00000  Uiso   1.00
O132   O     0.09441   0.13721   0.47524   0.00000  Uiso   1.00
N133   N     0.02239   0.18552   0.26317   0.00000  Uiso   1.00
N134   N     0.31023   0.24183   0.09056   0.00000  Uiso   1.00
N135   N     0.10343   0.18236   0.61943   0.00000  Uiso   1.00
N136   N     0.03817   0.11207   0.27453   0.00000  Uiso   1.00
N137   N     0.32600   0.16838   0.10191   0.00000  Uiso   1.00
N138   N     0.11921   0.10891   0.63078   0.00000  Uiso   1.00
C139   C     0.64393   0.70969   0.49005   0.00000  Uiso   1.00
C140   C     0.61429   0.68508   0.56809   0.00000  Uiso   1.00
C141   C     0.58058   0.70530   0.62738   0.00000  Uiso   1.00
C142   C     0.55727   0.67691   0.69428   0.00000  Uiso   1.00
C143   C     0.50972   0.64583   0.81438   0.00000  Uiso   1.00
C144   C     0.69362   0.70060   0.52053   0.00000  Uiso   1.00
C145   C     0.72661   0.73387   0.53983   0.00000  Uiso   1.00
C146   C     0.77008   0.71854   0.56667   0.00000  Uiso   1.00
C147   C     0.84570   0.71156   0.61287   0.00000  Uiso   1.00
C148   C     0.63662   0.68421   0.39070   0.00000  Uiso   1.00
C149   C     0.62169   0.70370   0.30081   0.00000  Uiso   1.00
C150   C     0.61719   0.67457   0.21834   0.00000  Uiso   1.00
C151   C     0.60430   0.64214   0.06295   0.00000  Uiso   1.00
C152   C     0.66249   0.62332   0.50340   0.00000  Uiso   1.00
C153   C     0.62437   0.63816   0.57534   0.00000  Uiso   1.00
C154   C     0.60110   0.60974   0.64216   0.00000  Uiso   1.00
C155   C     0.56736   0.62991   0.70154   0.00000  Uiso   1.00
C156   C     0.70370   0.65369   0.52778   0.00000  Uiso   1.00
C157   C     0.74713   0.63831   0.55460   0.00000  Uiso   1.00
C158   C     0.78018   0.67154   0.57394   0.00000  Uiso   1.00
C159   C     0.64669   0.63729   0.39795   0.00000  Uiso   1.00
C160   C     0.64222   0.60813   0.31559   0.00000  Uiso   1.00
C161   C     0.62728   0.62757   0.22561   0.00000  Uiso   1.00
H162   H     0.63609   0.74622   0.48441   0.00000  Uiso   1.00
H163   H     0.57279   0.74161   0.62175   0.00000  Uiso   1.00
H164   H     0.71880   0.77017   0.53420   0.00000  Uiso   1.00
H165   H     0.61390   0.74000   0.29523   0.00000  Uiso   1.00
H166   H     0.50707   0.71581   0.77725   0.00000  Uiso   1.00
H167   H     0.81493   0.77604   0.59261   0.00000  Uiso   1.00
H168   H     0.59373   0.71243   0.08869   0.00000  Uiso   1.00
H169   H     0.67034   0.58679   0.50905   0.00000  Uiso   1.00
H170   H     0.60891   0.57343   0.64775   0.00000  Uiso   1.00
H171   H     0.75492   0.60200   0.56020   0.00000  Uiso   1.00
H172   H     0.65002   0.57183   0.32123   0.00000  Uiso   1.00
H173   H     0.53639   0.57931   0.79836   0.00000  Uiso   1.00
H174   H     0.84426   0.63954   0.61371   0.00000  Uiso   1.00
H175   H     0.62305   0.57593   0.10980   0.00000  Uiso   1.00
O176   O     0.48071   0.64165   0.87863   0.00000  Uiso   1.00
O177   O     0.88462   0.72067   0.63636   0.00000  Uiso   1.00
O178   O     0.59441   0.63721   0.97524   0.00000  Uiso   1.00
N179   N     0.52239   0.68552   0.76317   0.00000  Uiso   1.00
N180   N     0.81023   0.74183   0.59056   0.00000  Uiso   1.00
N181   N     0.60343   0.68236   0.11943   0.00000  Uiso   1.00
N182   N     0.53817   0.61207   0.77453   0.00000  Uiso   1.00
N183   N     0.82600   0.66838   0.60191   0.00000  Uiso   1.00
N184   N     0.61921   0.60891   0.13078   0.00000  Uiso   1.00
C185   C     0.70969   0.85607   0.74005   0.00000  Uiso   1.00
C186   C     0.68508   0.88571   0.81809   0.00000  Uiso   1.00
C187   C     0.70530   0.91942   0.87738   0.00000  Uiso   1.00
C188   C     0.67691   0.94273   0.94428   0.00000  Uiso   1.00
C189   C     0.64583   0.99028   0.06438   0.00000  Uiso   1.00
C190   C     0.70060   0.80638   0.77053   0.00000  Uiso   1.00
C191   C     0.73387   0.77339   0.78983   0.00000  Uiso   1.00
C192   C     0.71854   0.72992   0.81667   0.00000  Uiso   1.00
C193   C     0.71156   0.65430   0.86287   0.00000  Uiso   1.00
C194   C     0.68421   0.86338   0.64070   0.00000  Uiso   1.00
C195   C     0.70370   0.87831   0.55081   0.00000  Uiso   1.00
C196   C     0.67457   0.88281   0.46834   0.00000  Uiso   1.00
C197   C     0.64214   0.89570   0.31295   0.00000  Uiso   1.00
C198   C     0.62332   0.83751   0.75340   0.00000  Uiso   1.00
C199   C     0.63816   0.87563   0.82534   0.00000  Uiso   1.00
C200   C     0.60974   0.89890   0.89216   0.00000  Uiso   1.00
C201   C     0.62991   0.93264   0.95154   0.00000  Uiso   1.00
C202   C     0.65369   0.79630   0.77778   0.00000  Uiso   1.00
C203   C     0.63831   0.75287   0.80460   0.00000  Uiso   1.00
C204   C     0.67154   0.71982   0.82394   0.00000  Uiso   1.00
C205   C     0.63729   0.85331   0.64795   0.00000  Uiso   1.00
C206   C     0.60813   0.85778   0.56559   0.00000  Uiso   1.00
C207   C     0.62757   0.87272   0.47561   0.00000  Uiso   1.00
H208   H     0.74622   0.86391   0.73441   0.00000  Uiso   1.00
H209   H     0.74161   0.92721   0.87175   0.00000  Uiso   1.00
H210   H     0.77017   0.78120   0.78420   0.00000  Uiso   1.00
H211   H     0.74000   0.88610   0.54523   0.00000  Uiso   1.00
H212   H     0.71581   0.99293   0.02725   0.00000  Uiso   1.00
H213   H     0.77604   0.68507   0.84261   0.00000  Uiso   1.00
H214   H     0.71243   0.90627   0.33869   0.00000  Uiso   1.00
H215   H     0.58679   0.82966   0.75905   0.00000  Uiso   1.00
H216   H     0.57343   0.89109   0.89775   0.00000  Uiso   1.00
H217   H     0.60200   0.74508   0.81020   0.00000  Uiso   1.00
H218   H     0.57183   0.84998   0.57123   0.00000  Uiso   1.00
H219   H     0.57931   0.96361   0.04836   0.00000  Uiso   1.00
H220   H     0.63954   0.65574   0.86371   0.00000  Uiso   1.00
H221   H     0.57593   0.87695   0.35980   0.00000  Uiso   1.00
O222   O     0.64165   0.01929   0.12863   0.00000  Uiso   1.00
O223   O     0.72067   0.61538   0.88636   0.00000  Uiso   1.00
O224   O     0.63721   0.90559   0.22524   0.00000  Uiso   1.00
N225   N     0.68552   0.97761   0.01317   0.00000  Uiso   1.00
N226   N     0.74183   0.68977   0.84056   0.00000  Uiso   1.00
N227   N     0.68236   0.89657   0.36943   0.00000  Uiso   1.00
N228   N     0.61207   0.96183   0.02453   0.00000  Uiso   1.00
N229   N     0.66838   0.67400   0.85191   0.00000  Uiso   1.00
N230   N     0.60891   0.88079   0.38078   0.00000  Uiso   1.00
C231   C     0.20969   0.35607   0.24005   0.00000  Uiso   1.00
C232   C     0.18508   0.38571   0.31809   0.00000  Uiso   1.00
C233   C     0.20530   0.41942   0.37738   0.00000  Uiso   1.00
C234   C     0.17691   0.44273   0.44428   0.00000  Uiso   1.00
C235   C     0.14583   0.49028   0.56438   0.00000  Uiso   1.00
C236   C     0.20060   0.30638   0.27053   0.00000  Uiso   1.00
C237   C     0.23387   0.27339   0.28983   0.00000  Uiso   1.00
C238   C     0.21854   0.22992   0.31667   0.00000  Uiso   1.00
C239   C     0.21156   0.15430   0.36287   0.00000  Uiso   1.00
C240   C     0.18421   0.36338   0.14070   0.00000  Uiso   1.00
C241   C     0.20370   0.37831   0.05081   0.00000  Uiso   1.00
C242   C     0.17457   0.38281   0.96834   0.00000  Uiso   1.00
C243   C     0.14214   0.39570   0.81295   0.00000  Uiso   1.00
C244   C     0.12332   0.33751   0.25340   0.00000  Uiso   1.00
C245   C     0.13816   0.37563   0.32534   0.00000  Uiso   1.00
C246   C     0.10974   0.39890   0.39216   0.00000  Uiso   1.00
C247   C     0.12991   0.43264   0.45154   0.00000  Uiso   1.00
C248   C     0.15369   0.29630   0.27778   0.00000  Uiso   1.00
C249   C     0.13831   0.25287   0.30460   0.00000  Uiso   1.00
C250   C     0.17154   0.21982   0.32394   0.00000  Uiso   1.00
C251   C     0.13729   0.35331   0.14795   0.00000  Uiso   1.00
C252   C     0.10813   0.35778   0.06559   0.00000  Uiso   1.00
C253   C     0.12757   0.37272   0.97561   0.00000  Uiso   1.00
H254   H     0.24622   0.36391   0.23441   0.00000  Uiso   1.00
H255   H     0.24161   0.42721   0.37175   0.00000  Uiso   1.00
H256   H     0.27017   0.28120   0.28420   0.00000  Uiso   1.00
H257   H     0.24000   0.38610   0.04523   0.00000  Uiso   1.00
H258   H     0.21581   0.49293   0.52725   0.00000  Uiso   1.00
H259   H     0.27604   0.18507   0.34261   0.00000  Uiso   1.00
H260   H     0.21243   0.40627   0.83869   0.00000  Uiso   1.00
H261   H     0.08679   0.32966   0.25905   0.00000  Uiso   1.00
H262   H     0.07343   0.39109   0.39775   0.00000  Uiso   1.00
H263   H     0.10200   0.24508   0.31020   0.00000  Uiso   1.00
H264   H     0.07183   0.34998   0.07123   0.00000  Uiso   1.00
H265   H     0.07931   0.46361   0.54836   0.00000  Uiso   1.00
H266   H     0.13954   0.15574   0.36371   0.00000  Uiso   1.00
H267   H     0.07593   0.37695   0.85980   0.00000  Uiso   1.00
O268   O     0.14165   0.51929   0.62863   0.00000  Uiso   1.00
O269   O     0.22067   0.11538   0.38636   0.00000  Uiso   1.00
O270   O     0.13721   0.40559   0.72524   0.00000  Uiso   1.00
N271   N     0.18552   0.47761   0.51317   0.00000  Uiso   1.00
N272   N     0.24183   0.18977   0.34056   0.00000  Uiso   1.00
N273   N     0.18236   0.39657   0.86943   0.00000  Uiso   1.00
N274   N     0.11207   0.46183   0.52453   0.00000  Uiso   1.00
N275   N     0.16838   0.17400   0.35191   0.00000  Uiso   1.00
N276   N     0.10891   0.38079   0.88078   0.00000  Uiso   1.00
C277   C     0.79031   0.64393   0.24005   0.00000  Uiso   1.00
C278   C     0.81492   0.61429   0.31809   0.00000  Uiso   1.00
C279   C     0.79470   0.58058   0.37738   0.00000  Uiso   1.00
C280   C     0.82309   0.55727   0.44428   0.00000  Uiso   1.00
C281   C     0.85417   0.50972   0.56438   0.00000  Uiso   1.00
C282   C     0.79940   0.69362   0.27053   0.00000  Uiso   1.00
C283   C     0.76613   0.72661   0.28983   0.00000  Uiso   1.00
C284   C     0.78146   0.77008   0.31667   0.00000  Uiso   1.00
C285   C     0.78844   0.84570   0.36287   0.00000  Uiso   1.00
C286   C     0.81579   0.63662   0.14070   0.00000  Uiso   1.00
C287   C     0.79630   0.62169   0.05081   0.00000  Uiso   1.00
C288   C     0.82543   0.61719   0.96834   0.00000  Uiso   1.00
C289   C     0.85786   0.60430   0.81295   0.00000  Uiso   1.00
C290   C     0.87668   0.66249   0.25340   0.00000  Uiso   1.00
C291   C     0.86184   0.62437   0.32534   0.00000  Uiso   1.00
C292   C     0.89026   0.60110   0.39216   0.00000  Uiso   1.00
C293   C     0.87009   0.56736   0.45154   0.00000  Uiso   1.00
C294   C     0.84631   0.70370   0.27778   0.00000  Uiso   1.00
C295   C     0.86169   0.74713   0.30460   0.00000  Uiso   1.00
C296   C     0.82846   0.78018   0.32394   0.00000  Uiso   1.00
C297   C     0.86271   0.64669   0.14795   0.00000  Uiso   1.00
C298   C     0.89187   0.64222   0.06559   0.00000  Uiso   1.00
C299   C     0.87243   0.62728   0.97561   0.00000  Uiso   1.00
H300   H     0.75378   0.63609   0.23441   0.00000  Uiso   1.00
H301   H     0.75839   0.57279   0.37175   0.00000  Uiso   1.00
H302   H     0.72983   0.71880   0.28420   0.00000  Uiso   1.00
H303   H     0.76000   0.61390   0.04523   0.00000  Uiso   1.00
H304   H     0.78419   0.50707   0.52725   0.00000  Uiso   1.00
H305   H     0.72396   0.81493   0.34261   0.00000  Uiso   1.00
H306   H     0.78757   0.59373   0.83869   0.00000  Uiso   1.00
H307   H     0.91321   0.67034   0.25905   0.00000  Uiso   1.00
H308   H     0.92657   0.60891   0.39775   0.00000  Uiso   1.00
H309   H     0.89800   0.75492   0.31020   0.00000  Uiso   1.00
H310   H     0.92817   0.65002   0.07123   0.00000  Uiso   1.00
H311   H     0.92069   0.53639   0.54836   0.00000  Uiso   1.00
H312   H     0.86046   0.84426   0.36371   0.00000  Uiso   1.00
H313   H     0.92407   0.62305   0.85980   0.00000  Uiso   1.00
O314   O     0.85835   0.48071   0.62863   0.00000  Uiso   1.00
O315   O     0.77933   0.88462   0.38636   0.00000  Uiso   1.00
O316   O     0.86279   0.59441   0.72524   0.00000  Uiso   1.00
N317   N     0.81448   0.52239   0.51317   0.00000  Uiso   1.00
N318   N     0.75817   0.81023   0.34056   0.00000  Uiso   1.00
N319   N     0.81764   0.60343   0.86943   0.00000  Uiso   1.00
N320   N     0.88793   0.53817   0.52453   0.00000  Uiso   1.00
N321   N     0.83162   0.82600   0.35191   0.00000  Uiso   1.00
N322   N     0.89109   0.61921   0.88078   0.00000  Uiso   1.00
C323   C     0.29031   0.14393   0.74005   0.00000  Uiso   1.00
C324   C     0.31492   0.11429   0.81809   0.00000  Uiso   1.00
C325   C     0.29470   0.08058   0.87738   0.00000  Uiso   1.00
C326   C     0.32309   0.05727   0.94428   0.00000  Uiso   1.00
C327   C     0.35417   0.00972   0.06438   0.00000  Uiso   1.00
C328   C     0.29940   0.19362   0.77053   0.00000  Uiso   1.00
C329   C     0.26613   0.22661   0.78983   0.00000  Uiso   1.00
C330   C     0.28146   0.27008   0.81667   0.00000  Uiso   1.00
C331   C     0.28844   0.34570   0.86287   0.00000  Uiso   1.00
C332   C     0.31579   0.13662   0.64070   0.00000  Uiso   1.00
C333   C     0.29630   0.12169   0.55081   0.00000  Uiso   1.00
C334   C     0.32543   0.11719   0.46834   0.00000  Uiso   1.00
C335   C     0.35786   0.10430   0.31295   0.00000  Uiso   1.00
C336   C     0.37668   0.16249   0.75340   0.00000  Uiso   1.00
C337   C     0.36184   0.12437   0.82534   0.00000  Uiso   1.00
C338   C     0.39026   0.10110   0.89216   0.00000  Uiso   1.00
C339   C     0.37009   0.06736   0.95154   0.00000  Uiso   1.00
C340   C     0.34631   0.20370   0.77778   0.00000  Uiso   1.00
C341   C     0.36169   0.24713   0.80460   0.00000  Uiso   1.00
C342   C     0.32846   0.28018   0.82394   0.00000  Uiso   1.00
C343   C     0.36271   0.14669   0.64795   0.00000  Uiso   1.00
C344   C     0.39187   0.14222   0.56559   0.00000  Uiso   1.00
C345   C     0.37243   0.12728   0.47561   0.00000  Uiso   1.00
H346   H     0.25378   0.13609   0.73441   0.00000  Uiso   1.00
H347   H     0.25839   0.07279   0.87175   0.00000  Uiso   1.00
H348   H     0.22983   0.21880   0.78420   0.00000  Uiso   1.00
H349   H     0.26000   0.11390   0.54523   0.00000  Uiso   1.00
H350   H     0.28419   0.00707   0.02725   0.00000  Uiso   1.00
H351   H     0.22396   0.31493   0.84261   0.00000  Uiso   1.00
H352   H     0.28757   0.09373   0.33869   0.00000  Uiso   1.00
H353   H     0.41321   0.17034   0.75905   0.00000  Uiso   1.00
H354   H     0.42657   0.10891   0.89775   0.00000  Uiso   1.00
H355   H     0.39800   0.25492   0.81020   0.00000  Uiso   1.00
H356   H     0.42817   0.15002   0.57123   0.00000  Uiso   1.00
H357   H     0.42069   0.03639   0.04836   0.00000  Uiso   1.00
H358   H     0.36046   0.34426   0.86371   0.00000  Uiso   1.00
H359   H     0.42407   0.12305   0.35980   0.00000  Uiso   1.00
O360   O     0.35835   0.98071   0.12863   0.00000  Uiso   1.00
O361   O     0.27933   0.38462   0.88636   0.00000  Uiso   1.00
O362   O     0.36279   0.09441   0.22524   0.00000  Uiso   1.00
N363   N     0.31448   0.02239   0.01317   0.00000  Uiso   1.00
N364   N     0.25817   0.31023   0.84056   0.00000  Uiso   1.00
N365   N     0.31764   0.10343   0.36943   0.00000  Uiso   1.00
N366   N     0.38793   0.03817   0.02453   0.00000  Uiso   1.00
N367   N     0.33162   0.32600   0.85191   0.00000  Uiso   1.00
N368   N     0.39109   0.11921   0.38078   0.00000  Uiso   1.00
C369   C     0.64393   0.20969   0.75995   0.00000  Uiso   1.00
C370   C     0.61429   0.18508   0.68191   0.00000  Uiso   1.00
C371   C     0.58058   0.20530   0.62262   0.00000  Uiso   1.00
C372   C     0.55727   0.17691   0.55572   0.00000  Uiso   1.00
C373   C     0.50972   0.14583   0.43562   0.00000  Uiso   1.00
C374   C     0.69362   0.20060   0.72947   0.00000  Uiso   1.00
C375   C     0.72661   0.23387   0.71017   0.00000  Uiso   1.00
C376   C     0.77008   0.21854   0.68333   0.00000  Uiso   1.00
C377   C     0.84570   0.21156   0.63713   0.00000  Uiso   1.00
C378   C     0.63662   0.18421   0.85930   0.00000  Uiso   1.00
C379   C     0.62169   0.20370   0.94919   0.00000  Uiso   1.00
C380   C     0.61719   0.17457   0.03166   0.00000  Uiso   1.00
C381   C     0.60430   0.14214   0.18705   0.00000  Uiso   1.00
C382   C     0.66249   0.12332   0.74660   0.00000  Uiso   1.00
C383   C     0.62437   0.13816   0.67466   0.00000  Uiso   1.00
C384   C     0.60110   0.10974   0.60784   0.00000  Uiso   1.00
C385   C     0.56736   0.12991   0.54846   0.00000  Uiso   1.00
C386   C     0.70370   0.15369   0.72222   0.00000  Uiso   1.00
C387   C     0.74713   0.13831   0.69540   0.00000  Uiso   1.00
C388   C     0.78018   0.17154   0.67606   0.00000  Uiso   1.00
C389   C     0.64669   0.13729   0.85205   0.00000  Uiso   1.00
C390   C     0.64222   0.10813   0.93441   0.00000  Uiso   1.00
C391   C     0.62728   0.12757   0.02439   0.00000  Uiso   1.00
H392   H     0.63609   0.24622   0.76559   0.00000  Uiso   1.00
H393   H     0.57279   0.24161   0.62825   0.00000  Uiso   1.00
H394   H     0.71880   0.27017   0.71580   0.00000  Uiso   1.00
H395   H     0.61390   0.24000   0.95477   0.00000  Uiso   1.00
H396   H     0.50707   0.21581   0.47275   0.00000  Uiso   1.00
H397   H     0.81493   0.27604   0.65739   0.00000  Uiso   1.00
H398   H     0.59373   0.21243   0.16131   0.00000  Uiso   1.00
H399   H     0.67034   0.08679   0.74095   0.00000  Uiso   1.00
H400   H     0.60891   0.07343   0.60225   0.00000  Uiso   1.00
H401   H     0.75492   0.10200   0.68980   0.00000  Uiso   1.00
H402   H     0.65002   0.07183   0.92877   0.00000  Uiso   1.00
H403   H     0.53639   0.07931   0.45164   0.00000  Uiso   1.00
H404   H     0.84426   0.13954   0.63629   0.00000  Uiso   1.00
H405   H     0.62305   0.07593   0.14020   0.00000  Uiso   1.00
O406   O     0.48071   0.14165   0.37137   0.00000  Uiso   1.00
O407   O     0.88462   0.22067   0.61364   0.00000  Uiso   1.00
O408   O     0.59441   0.13721   0.27476   0.00000  Uiso   1.00
N409   N     0.52239   0.18552   0.48683   0.00000  Uiso   1.00
N410   N     0.81023   0.24183   0.65944   0.00000  Uiso   1.00
N411   N     0.60343   0.18236   0.13057   0.00000  Uiso   1.00
N412   N     0.53817   0.11207   0.47547   0.00000  Uiso   1.00
N413   N     0.82600   0.16838   0.64809   0.00000  Uiso   1.00
N414   N     0.61921   0.10891   0.11922   0.00000  Uiso   1.00
C415   C     0.14393   0.70969   0.25995   0.00000  Uiso   1.00
C416   C     0.11429   0.68508   0.18191   0.00000  Uiso   1.00
C417   C     0.08058   0.70530   0.12262   0.00000  Uiso   1.00
C418   C     0.05727   0.67691   0.05572   0.00000  Uiso   1.00
C419   C     0.00972   0.64583   0.93562   0.00000  Uiso   1.00
C420   C     0.19362   0.70060   0.22947   0.00000  Uiso   1.00
C421   C     0.22661   0.73387   0.21017   0.00000  Uiso   1.00
C422   C     0.27008   0.71854   0.18333   0.00000  Uiso   1.00
C423   C     0.34570   0.71156   0.13713   0.00000  Uiso   1.00
C424   C     0.13662   0.68421   0.35930   0.00000  Uiso   1.00
C425   C     0.12169   0.70370   0.44919   0.00000  Uiso   1.00
C426   C     0.11719   0.67457   0.53166   0.00000  Uiso   1.00
C427   C     0.10430   0.64214   0.68705   0.00000  Uiso   1.00
C428   C     0.16249   0.62332   0.24660   0.00000  Uiso   1.00
C429   C     0.12437   0.63816   0.17466   0.00000  Uiso   1.00
C430   C     0.10110   0.60974   0.10784   0.00000  Uiso   1.00
C431   C     0.06736   0.62991   0.04846   0.00000  Uiso   1.00
C432   C     0.20370   0.65369   0.22222   0.00000  Uiso   1.00
C433   C     0.24713   0.63831   0.19540   0.00000  Uiso   1.00
C434   C     0.28018   0.67154   0.17606   0.00000  Uiso   1.00
C435   C     0.14669   0.63729   0.35205   0.00000  Uiso   1.00
C436   C     0.14222   0.60813   0.43441   0.00000  Uiso   1.00
C437   C     0.12728   0.62757   0.52439   0.00000  Uiso   1.00
H438   H     0.13609   0.74622   0.26559   0.00000  Uiso   1.00
H439   H     0.07279   0.74161   0.12825   0.00000  Uiso   1.00
H440   H     0.21880   0.77017   0.21580   0.00000  Uiso   1.00
H441   H     0.11390   0.74000   0.45477   0.00000  Uiso   1.00
H442   H     0.00707   0.71581   0.97275   0.00000  Uiso   1.00
H443   H     0.31493   0.77604   0.15739   0.00000  Uiso   1.00
H444   H     0.09373   0.71243   0.66131   0.00000  Uiso   1.00
H445   H     0.17034   0.58679   0.24095   0.00000  Uiso   1.00
H446   H     0.10891   0.57343   0.10225   0.00000  Uiso   1.00
H447   H     0.25492   0.60200   0.18980   0.00000  Uiso   1.00
H448   H     0.15002   0.57183   0.42877   0.00000  Uiso   1.00
H449   H     0.03639   0.57931   0.95164   0.00000  Uiso   1.00
H450   H     0.34426   0.63954   0.13629   0.00000  Uiso   1.00
H451   H     0.12305   0.57593   0.64020   0.00000  Uiso   1.00
O452   O     0.98071   0.64165   0.87137   0.00000  Uiso   1.00
O453   O     0.38462   0.72067   0.11364   0.00000  Uiso   1.00
O454   O     0.09441   0.63721   0.77476   0.00000  Uiso   1.00
N455   N     0.02239   0.68552   0.98683   0.00000  Uiso   1.00
N456   N     0.31023   0.74183   0.15944   0.00000  Uiso   1.00
N457   N     0.10343   0.68236   0.63057   0.00000  Uiso   1.00
N458   N     0.03817   0.61207   0.97547   0.00000  Uiso   1.00
N459   N     0.32600   0.66838   0.14809   0.00000  Uiso   1.00
N460   N     0.11921   0.60891   0.61922   0.00000  Uiso   1.00
C461   C     0.85607   0.29031   0.25995   0.00000  Uiso   1.00
C462   C     0.88571   0.31492   0.18191   0.00000  Uiso   1.00
C463   C     0.91942   0.29470   0.12262   0.00000  Uiso   1.00
C464   C     0.94273   0.32309   0.05572   0.00000  Uiso   1.00
C465   C     0.99028   0.35417   0.93562   0.00000  Uiso   1.00
C466   C     0.80638   0.29940   0.22947   0.00000  Uiso   1.00
C467   C     0.77339   0.26613   0.21017   0.00000  Uiso   1.00
C468   C     0.72992   0.28146   0.18333   0.00000  Uiso   1.00
C469   C     0.65430   0.28844   0.13713   0.00000  Uiso   1.00
C470   C     0.86338   0.31579   0.35930   0.00000  Uiso   1.00
C471   C     0.87831   0.29630   0.44919   0.00000  Uiso   1.00
C472   C     0.88281   0.32543   0.53166   0.00000  Uiso   1.00
C473   C     0.89570   0.35786   0.68705   0.00000  Uiso   1.00
C474   C     0.83751   0.37668   0.24660   0.00000  Uiso   1.00
C475   C     0.87563   0.36184   0.17466   0.00000  Uiso   1.00
C476   C     0.89890   0.39026   0.10784   0.00000  Uiso   1.00
C477   C     0.93264   0.37009   0.04846   0.00000  Uiso   1.00
C478   C     0.79630   0.34631   0.22222   0.00000  Uiso   1.00
C479   C     0.75287   0.36169   0.19540   0.00000  Uiso   1.00
C480   C     0.71982   0.32846   0.17606   0.00000  Uiso   1.00
C481   C     0.85331   0.36271   0.35205   0.00000  Uiso   1.00
C482   C     0.85778   0.39187   0.43441   0.00000  Uiso   1.00
C483   C     0.87272   0.37243   0.52439   0.00000  Uiso   1.00
H484   H     0.86391   0.25378   0.26559   0.00000  Uiso   1.00
H485   H     0.92721   0.25839   0.12825   0.00000  Uiso   1.00
H486   H     0.78120   0.22983   0.21580   0.00000  Uiso   1.00
H487   H     0.88610   0.26000   0.45477   0.00000  Uiso   1.00
H488   H     0.99293   0.28419   0.97275   0.00000  Uiso   1.00
H489   H     0.68507   0.22396   0.15739   0.00000  Uiso   1.00
H490   H     0.90627   0.28757   0.66131   0.00000  Uiso   1.00
H491   H     0.82966   0.41321   0.24095   0.00000  Uiso   1.00
H492   H     0.89109   0.42657   0.10225   0.00000  Uiso   1.00
H493   H     0.74508   0.39800   0.18980   0.00000  Uiso   1.00
H494   H     0.84998   0.42817   0.42877   0.00000  Uiso   1.00
H495   H     0.96361   0.42069   0.95164   0.00000  Uiso   1.00
H496   H     0.65574   0.36046   0.13629   0.00000  Uiso   1.00
H497   H     0.87695   0.42407   0.64020   0.00000  Uiso   1.00
O498   O     0.01929   0.35835   0.87137   0.00000  Uiso   1.00
O499   O     0.61538   0.27933   0.11364   0.00000  Uiso   1.00
O500   O     0.90559   0.36279   0.77476   0.00000  Uiso   1.00
N501   N     0.97761   0.31448   0.98683   0.00000  Uiso   1.00
N502   N     0.68977   0.25817   0.15944   0.00000  Uiso   1.00
N503   N     0.89657   0.31764   0.63057   0.00000  Uiso   1.00
N504   N     0.96183   0.38793   0.97547   0.00000  Uiso   1.00
N505   N     0.67400   0.33162   0.14809   0.00000  Uiso   1.00
N506   N     0.88079   0.39109   0.61922   0.00000  Uiso   1.00
C507   C     0.35607   0.79031   0.75995   0.00000  Uiso   1.00
C508   C     0.38571   0.81492   0.68191   0.00000  Uiso   1.00
C509   C     0.41942   0.79470   0.62262   0.00000  Uiso   1.00
C510   C     0.44273   0.82309   0.55572   0.00000  Uiso   1.00
C511   C     0.49028   0.85417   0.43562   0.00000  Uiso   1.00
C512   C     0.30638   0.79940   0.72947   0.00000  Uiso   1.00
C513   C     0.27339   0.76613   0.71017   0.00000  Uiso   1.00
C514   C     0.22992   0.78146   0.68333   0.00000  Uiso   1.00
C515   C     0.15430   0.78844   0.63713   0.00000  Uiso   1.00
C516   C     0.36338   0.81579   0.85930   0.00000  Uiso   1.00
C517   C     0.37831   0.79630   0.94919   0.00000  Uiso   1.00
C518   C     0.38281   0.82543   0.03166   0.00000  Uiso   1.00
C519   C     0.39570   0.85786   0.18705   0.00000  Uiso   1.00
C520   C     0.33751   0.87668   0.74660   0.00000  Uiso   1.00
C521   C     0.37563   0.86184   0.67466   0.00000  Uiso   1.00
C522   C     0.39890   0.89026   0.60784   0.00000  Uiso   1.00
C523   C     0.43264   0.87009   0.54846   0.00000  Uiso   1.00
C524   C     0.29630   0.84631   0.72222   0.00000  Uiso   1.00
C525   C     0.25287   0.86169   0.69540   0.00000  Uiso   1.00
C526   C     0.21982   0.82846   0.67606   0.00000  Uiso   1.00
C527   C     0.35331   0.86271   0.85205   0.00000  Uiso   1.00
C528   C     0.35778   0.89187   0.93441   0.00000  Uiso   1.00
C529   C     0.37272   0.87243   0.02439   0.00000  Uiso   1.00
H530   H     0.36391   0.75378   0.76559   0.00000  Uiso   1.00
H531   H     0.42721   0.75839   0.62825   0.00000  Uiso   1.00
H532   H     0.28120   0.72983   0.71580   0.00000  Uiso   1.00
H533   H     0.38610   0.76000   0.95477   0.00000  Uiso   1.00
H534   H     0.49293   0.78419   0.47275   0.00000  Uiso   1.00
H535   H     0.18507   0.72396   0.65739   0.00000  Uiso   1.00
H536   H     0.40627   0.78757   0.16131   0.00000  Uiso   1.00
H537   H     0.32966   0.91321   0.74095   0.00000  Uiso   1.00
H538   H     0.39109   0.92657   0.60225   0.00000  Uiso   1.00
H539   H     0.24508   0.89800   0.68980   0.00000  Uiso   1.00
H540   H     0.34998   0.92817   0.92877   0.00000  Uiso   1.00
H541   H     0.46361   0.92069   0.45164   0.00000  Uiso   1.00
H542   H     0.15574   0.86046   0.63629   0.00000  Uiso   1.00
H543   H     0.37695   0.92407   0.14020   0.00000  Uiso   1.00
O544   O     0.51929   0.85835   0.37137   0.00000  Uiso   1.00
O545   O     0.11538   0.77933   0.61364   0.00000  Uiso   1.00
O546   O     0.40559   0.86279   0.27476   0.00000  Uiso   1.00
N547   N     0.47761   0.81448   0.48683   0.00000  Uiso   1.00
N548   N     0.18977   0.75817   0.65944   0.00000  Uiso   1.00
N549   N     0.39657   0.81764   0.13057   0.00000  Uiso   1.00
N550   N     0.46183   0.88793   0.47547   0.00000  Uiso   1.00
N551   N     0.17400   0.83162   0.64809   0.00000  Uiso   1.00
N552   N     0.38079   0.89109   0.11922   0.00000  Uiso   1.00
C553   C     0.29031   0.64393   0.50995   0.00000  Uiso   1.00
C554   C     0.31492   0.61429   0.43191   0.00000  Uiso   1.00
C555   C     0.29470   0.58058   0.37262   0.00000  Uiso   1.00
C556   C     0.32309   0.55727   0.30572   0.00000  Uiso   1.00
C557   C     0.35417   0.50972   0.18562   0.00000  Uiso   1.00
C558   C     0.29940   0.69362   0.47947   0.00000  Uiso   1.00
C559   C     0.26613   0.72661   0.46017   0.00000  Uiso   1.00
C560   C     0.28146   0.77008   0.43333   0.00000  Uiso   1.00
C561   C     0.28844   0.84570   0.38713   0.00000  Uiso   1.00
C562   C     0.31579   0.63662   0.60930   0.00000  Uiso   1.00
C563   C     0.29630   0.62169   0.69919   0.00000  Uiso   1.00
C564   C     0.32543   0.61719   0.78166   0.00000  Uiso   1.00
C565   C     0.35786   0.60430   0.93705   0.00000  Uiso   1.00
C566   C     0.37668   0.66249   0.49660   0.00000  Uiso   1.00
C567   C     0.36184   0.62437   0.42466   0.00000  Uiso   1.00
C568   C     0.39026   0.60110   0.35784   0.00000  Uiso   1.00
C569   C     0.37009   0.56736   0.29846   0.00000  Uiso   1.00
C570   C     0.34631   0.70370   0.47222   0.00000  Uiso   1.00
C571   C     0.36169   0.74713   0.44540   0.00000  Uiso   1.00
C572   C     0.32846   0.78018   0.42606   0.00000  Uiso   1.00
C573   C     0.36271   0.64669   0.60205   0.00000  Uiso   1.00
C574   C     0.39187   0.64222   0.68441   0.00000  Uiso   1.00
C575   C     0.37243   0.62728   0.77439   0.00000  Uiso   1.00
H576   H     0.25378   0.63609   0.51559   0.00000  Uiso   1.00
H577   H     0.25839   0.57279   0.37825   0.00000  Uiso   1.00
H578   H     0.22983   0.71880   0.46580   0.00000  Uiso   1.00
H579   H     0.26000   0.61390   0.70477   0.00000  Uiso   1.00
H580   H     0.28419   0.50707   0.22275   0.00000  Uiso   1.00
H581   H     0.22396   0.81493   0.40739   0.00000  Uiso   1.00
H582   H     0.28757   0.59373   0.91131   0.00000  Uiso   1.00
H583   H     0.41321   0.67034   0.49095   0.00000  Uiso   1.00
H584   H     0.42657   0.60891   0.35225   0.00000  Uiso   1.00
H585   H     0.39800   0.75492   0.43980   0.00000  Uiso   1.00
H586   H     0.42817   0.65002   0.67877   0.00000  Uiso   1.00
H587   H     0.42069   0.53639   0.20164   0.00000  Uiso   1.00
H588   H     0.36046   0.84426   0.38629   0.00000  Uiso   1.00
H589   H     0.42407   0.62305   0.89020   0.00000  Uiso   1.00
O590   O     0.35835   0.48071   0.12137   0.00000  Uiso   1.00
O591   O     0.27933   0.88462   0.36364   0.00000  Uiso   1.00
O592   O     0.36279   0.59441   0.02476   0.00000  Uiso   1.00
N593   N     0.31448   0.52239   0.23683   0.00000  Uiso   1.00
N594   N     0.25817   0.81023   0.40944   0.00000  Uiso   1.00
N595   N     0.31764   0.60343   0.88057   0.00000  Uiso   1.00
N596   N     0.38793   0.53817   0.22547   0.00000  Uiso   1.00
N597   N     0.33162   0.82600   0.39809   0.00000  Uiso   1.00
N598   N     0.39109   0.61921   0.86922   0.00000  Uiso   1.00
C599   C     0.79031   0.14393   0.00995   0.00000  Uiso   1.00
C600   C     0.81492   0.11429   0.93191   0.00000  Uiso   1.00
C601   C     0.79470   0.08058   0.87262   0.00000  Uiso   1.00
C602   C     0.82309   0.05727   0.80572   0.00000  Uiso   1.00
C603   C     0.85417   0.00972   0.68562   0.00000  Uiso   1.00
C604   C     0.79940   0.19362   0.97947   0.00000  Uiso   1.00
C605   C     0.76613   0.22661   0.96017   0.00000  Uiso   1.00
C606   C     0.78146   0.27008   0.93333   0.00000  Uiso   1.00
C607   C     0.78844   0.34570   0.88713   0.00000  Uiso   1.00
C608   C     0.81579   0.13662   0.10930   0.00000  Uiso   1.00
C609   C     0.79630   0.12169   0.19919   0.00000  Uiso   1.00
C610   C     0.82543   0.11719   0.28166   0.00000  Uiso   1.00
C611   C     0.85786   0.10430   0.43705   0.00000  Uiso   1.00
C612   C     0.87668   0.16249   0.99660   0.00000  Uiso   1.00
C613   C     0.86184   0.12437   0.92466   0.00000  Uiso   1.00
C614   C     0.89026   0.10110   0.85784   0.00000  Uiso   1.00
C615   C     0.87009   0.06736   0.79846   0.00000  Uiso   1.00
C616   C     0.84631   0.20370   0.97222   0.00000  Uiso   1.00
C617   C     0.86169   0.24713   0.94540   0.00000  Uiso   1.00
C618   C     0.82846   0.28018   0.92606   0.00000  Uiso   1.00
C619   C     0.86271   0.14669   0.10205   0.00000  Uiso   1.00
C620   C     0.89187   0.14222   0.18441   0.00000  Uiso   1.00
C621   C     0.87243   0.12728   0.27439   0.00000  Uiso   1.00
H622   H     0.75378   0.13609   0.01559   0.00000  Uiso   1.00
H623   H     0.75839   0.07279   0.87825   0.00000  Uiso   1.00
H624   H     0.72983   0.21880   0.96580   0.00000  Uiso   1.00
H625   H     0.76000   0.11390   0.20477   0.00000  Uiso   1.00
H626   H     0.78419   0.00707   0.72275   0.00000  Uiso   1.00
H627   H     0.72396   0.31493   0.90739   0.00000  Uiso   1.00
H628   H     0.78757   0.09373   0.41131   0.00000  Uiso   1.00
H629   H     0.91321   0.17034   0.99095   0.00000  Uiso   1.00
H630   H     0.92657   0.10891   0.85225   0.00000  Uiso   1.00
H631   H     0.89800   0.25492   0.93980   0.00000  Uiso   1.00
H632   H     0.92817   0.15002   0.17877   0.00000  Uiso   1.00
H633   H     0.92069   0.03639   0.70164   0.00000  Uiso   1.00
H634   H     0.86046   0.34426   0.88629   0.00000  Uiso   1.00
H635   H     0.92407   0.12305   0.39020   0.00000  Uiso   1.00
O636   O     0.85835   0.98071   0.62137   0.00000  Uiso   1.00
O637   O     0.77933   0.38462   0.86364   0.00000  Uiso   1.00
O638   O     0.86279   0.09441   0.52476   0.00000  Uiso   1.00
N639   N     0.81448   0.02239   0.73683   0.00000  Uiso   1.00
N640   N     0.75817   0.31023   0.90944   0.00000  Uiso   1.00
N641   N     0.81764   0.10343   0.38057   0.00000  Uiso   1.00
N642   N     0.88793   0.03817   0.72547   0.00000  Uiso   1.00
N643   N     0.83162   0.32600   0.89809   0.00000  Uiso   1.00
N644   N     0.89109   0.11921   0.36922   0.00000  Uiso   1.00
C645   C     0.20969   0.85607   0.00995   0.00000  Uiso   1.00
C646   C     0.18508   0.88571   0.93191   0.00000  Uiso   1.00
C647   C     0.20530   0.91942   0.87262   0.00000  Uiso   1.00
C648   C     0.17691   0.94273   0.80572   0.00000  Uiso   1.00
C649   C     0.14583   0.99028   0.68562   0.00000  Uiso   1.00
C650   C     0.20060   0.80638   0.97947   0.00000  Uiso   1.00
C651   C     0.23387   0.77339   0.96017   0.00000  Uiso   1.00
C652   C     0.21854   0.72992   0.93333   0.00000  Uiso   1.00
C653   C     0.21156   0.65430   0.88713   0.00000  Uiso   1.00
C654   C     0.18421   0.86338   0.10930   0.00000  Uiso   1.00
C655   C     0.20370   0.87831   0.19919   0.00000  Uiso   1.00
C656   C     0.17457   0.88281   0.28166   0.00000  Uiso   1.00
C657   C     0.14214   0.89570   0.43705   0.00000  Uiso   1.00
C658   C     0.12332   0.83751   0.99660   0.00000  Uiso   1.00
C659   C     0.13816   0.87563   0.92466   0.00000  Uiso   1.00
C660   C     0.10974   0.89890   0.85784   0.00000  Uiso   1.00
C661   C     0.12991   0.93264   0.79846   0.00000  Uiso   1.00
C662   C     0.15369   0.79630   0.97222   0.00000  Uiso   1.00
C663   C     0.13831   0.75287   0.94540   0.00000  Uiso   1.00
C664   C     0.17154   0.71982   0.92606   0.00000  Uiso   1.00
C665   C     0.13729   0.85331   0.10205   0.00000  Uiso   1.00
C666   C     0.10813   0.85778   0.18441   0.00000  Uiso   1.00
C667   C     0.12757   0.87272   0.27439   0.00000  Uiso   1.00
H668   H     0.24622   0.86391   0.01559   0.00000  Uiso   1.00
H669   H     0.24161   0.92721   0.87825   0.00000  Uiso   1.00
H670   H     0.27017   0.78120   0.96580   0.00000  Uiso   1.00
H671   H     0.24000   0.88610   0.20477   0.00000  Uiso   1.00
H672   H     0.21581   0.99293   0.72275   0.00000  Uiso   1.00
H673   H     0.27604   0.68507   0.90739   0.00000  Uiso   1.00
H674   H     0.21243   0.90627   0.41131   0.00000  Uiso   1.00
H675   H     0.08679   0.82966   0.99095   0.00000  Uiso   1.00
H676   H     0.07343   0.89109   0.85225   0.00000  Uiso   1.00
H677   H     0.10200   0.74508   0.93980   0.00000  Uiso   1.00
H678   H     0.07183   0.84998   0.17877   0.00000  Uiso   1.00
H679   H     0.07931   0.96361   0.70164   0.00000  Uiso   1.00
H680   H     0.13954   0.65574   0.88629   0.00000  Uiso   1.00
H681   H     0.07593   0.87695   0.39020   0.00000  Uiso   1.00
O682   O     0.14165   0.01929   0.62137   0.00000  Uiso   1.00
O683   O     0.22067   0.61538   0.86364   0.00000  Uiso   1.00
O684   O     0.13721   0.90559   0.52476   0.00000  Uiso   1.00
N685   N     0.18552   0.97761   0.73683   0.00000  Uiso   1.00
N686   N     0.24183   0.68977   0.90944   0.00000  Uiso   1.00
N687   N     0.18236   0.89657   0.38057   0.00000  Uiso   1.00
N688   N     0.11207   0.96183   0.72547   0.00000  Uiso   1.00
N689   N     0.16838   0.67400   0.89809   0.00000  Uiso   1.00
N690   N     0.10891   0.88079   0.36922   0.00000  Uiso   1.00
C691   C     0.70969   0.35607   0.50995   0.00000  Uiso   1.00
C692   C     0.68508   0.38571   0.43191   0.00000  Uiso   1.00
C693   C     0.70530   0.41942   0.37262   0.00000  Uiso   1.00
C694   C     0.67691   0.44273   0.30572   0.00000  Uiso   1.00
C695   C     0.64583   0.49028   0.18562   0.00000  Uiso   1.00
C696   C     0.70060   0.30638   0.47947   0.00000  Uiso   1.00
C697   C     0.73387   0.27339   0.46017   0.00000  Uiso   1.00
C698   C     0.71854   0.22992   0.43333   0.00000  Uiso   1.00
C699   C     0.71156   0.15430   0.38713   0.00000  Uiso   1.00
C700   C     0.68421   0.36338   0.60930   0.00000  Uiso   1.00
C701   C     0.70370   0.37831   0.69919   0.00000  Uiso   1.00
C702   C     0.67457   0.38281   0.78166   0.00000  Uiso   1.00
C703   C     0.64214   0.39570   0.93705   0.00000  Uiso   1.00
C704   C     0.62332   0.33751   0.49660   0.00000  Uiso   1.00
C705   C     0.63816   0.37563   0.42466   0.00000  Uiso   1.00
C706   C     0.60974   0.39890   0.35784   0.00000  Uiso   1.00
C707   C     0.62991   0.43264   0.29846   0.00000  Uiso   1.00
C708   C     0.65369   0.29630   0.47222   0.00000  Uiso   1.00
C709   C     0.63831   0.25287   0.44540   0.00000  Uiso   1.00
C710   C     0.67154   0.21982   0.42606   0.00000  Uiso   1.00
C711   C     0.63729   0.35331   0.60205   0.00000  Uiso   1.00
C712   C     0.60813   0.35778   0.68441   0.00000  Uiso   1.00
C713   C     0.62757   0.37272   0.77439   0.00000  Uiso   1.00
H714   H     0.74622   0.36391   0.51559   0.00000  Uiso   1.00
H715   H     0.74161   0.42721   0.37825   0.00000  Uiso   1.00
H716   H     0.77017   0.28120   0.46580   0.00000  Uiso   1.00
H717   H     0.74000   0.38610   0.70477   0.00000  Uiso   1.00
H718   H     0.71581   0.49293   0.22275   0.00000  Uiso   1.00
H719   H     0.77604   0.18507   0.40739   0.00000  Uiso   1.00
H720   H     0.71243   0.40627   0.91131   0.00000  Uiso   1.00
H721   H     0.58679   0.32966   0.49095   0.00000  Uiso   1.00
H722   H     0.57343   0.39109   0.35225   0.00000  Uiso   1.00
H723   H     0.60200   0.24508   0.43980   0.00000  Uiso   1.00
H724   H     0.57183   0.34998   0.67877   0.00000  Uiso   1.00
H725   H     0.57931   0.46361   0.20164   0.00000  Uiso   1.00
H726   H     0.63954   0.15574   0.38629   0.00000  Uiso   1.00
H727   H     0.57593   0.37695   0.89020   0.00000  Uiso   1.00
O728   O     0.64165   0.51929   0.12137   0.00000  Uiso   1.00
O729   O     0.72067   0.11538   0.36364   0.00000  Uiso   1.00
O730   O     0.63721   0.40559   0.02476   0.00000  Uiso   1.00
N731   N     0.68552   0.47761   0.23683   0.00000  Uiso   1.00
N732   N     0.74183   0.18977   0.40944   0.00000  Uiso   1.00
N733   N     0.68236   0.39657   0.88057   0.00000  Uiso   1.00
N734   N     0.61207   0.46183   0.22547   0.00000  Uiso   1.00
N735   N     0.66838   0.17400   0.39809   0.00000  Uiso   1.00
N736   N     0.60891   0.38079   0.86922   0.00000  Uiso   1.00
