data_job_02155
_audit_creation_date              2018-12-19
_audit_creation_method            'Materials Studio'
_symmetry_space_group_name_H-M    'P1'
_symmetry_Int_Tables_number       1
_symmetry_cell_setting            triclinic
loop_
_symmetry_equiv_pos_as_xyz
  x,y,z
_cell_length_a                    23.9841
_cell_length_b                    23.9841
_cell_length_c                    20.5304
_cell_angle_alpha                 90.0000
_cell_angle_beta                  90.0000
_cell_angle_gamma                 90.0000
loop_
_atom_site_label
_atom_site_type_symbol
_atom_site_fract_x
_atom_site_fract_y
_atom_site_fract_z
_atom_site_U_iso_or_equiv
_atom_site_adp_type
_atom_site_occupancy
C1     C     0.74818   0.42890   0.07468   0.00000  Uiso   1.00
C2     C     0.71783   0.38194   0.03932   0.00000  Uiso   1.00
C3     C     0.66220   0.38238   0.02076   0.00000  Uiso   1.00
C4     C     0.64229   0.33536   0.98891   0.00000  Uiso   1.00
C5     C     0.58991   0.26939   0.93598   0.00000  Uiso   1.00
C6     C     0.77221   0.40306   0.13647   0.00000  Uiso   1.00
C7     C     0.76230   0.42127   0.19958   0.00000  Uiso   1.00
C8     C     0.78817   0.39203   0.24951   0.00000  Uiso   1.00
C9     C     0.82024   0.35888   0.34740   0.00000  Uiso   1.00
C10    C     0.79807   0.44393   0.03212   0.00000  Uiso   1.00
C11    C     0.80991   0.49650   0.00750   0.00000  Uiso   1.00
C12    C     0.85757   0.50167   0.96959   0.00000  Uiso   1.00
C13    C     0.92980   0.53197   0.90546   0.00000  Uiso   1.00
C14    C     0.81176   0.34460   0.05113   0.00000  Uiso   1.00
C15    C     0.75237   0.33615   0.02653   0.00000  Uiso   1.00
C16    C     0.73254   0.28911   0.99470   0.00000  Uiso   1.00
C17    C     0.67689   0.28948   0.97609   0.00000  Uiso   1.00
C18    C     0.80674   0.35727   0.12368   0.00000  Uiso   1.00
C19    C     0.83264   0.32800   0.17353   0.00000  Uiso   1.00
C20    C     0.82277   0.34616   0.23670   0.00000  Uiso   1.00
C21    C     0.83260   0.39814   0.01932   0.00000  Uiso   1.00
C22    C     0.88026   0.40322   0.98145   0.00000  Uiso   1.00
C23    C     0.89217   0.45579   0.95678   0.00000  Uiso   1.00
H24    H     0.72129   0.46455   0.08464   0.00000  Uiso   1.00
H25    H     0.63548   0.41783   0.03067   0.00000  Uiso   1.00
H26    H     0.73557   0.45671   0.20946   0.00000  Uiso   1.00
H27    H     0.78318   0.53193   0.01741   0.00000  Uiso   1.00
H28    H     0.55557   0.34582   0.96521   0.00000  Uiso   1.00
H29    H     0.76663   0.42782   0.34221   0.00000  Uiso   1.00
H30    H     0.86702   0.58643   0.93723   0.00000  Uiso   1.00
H31    H     0.83865   0.30894   0.04117   0.00000  Uiso   1.00
H32    H     0.75928   0.25368   0.98481   0.00000  Uiso   1.00
H33    H     0.85937   0.29257   0.16361   0.00000  Uiso   1.00
H34    H     0.90697   0.36778   0.97156   0.00000  Uiso   1.00
H35    H     0.65604   0.21259   0.92799   0.00000  Uiso   1.00
H36    H     0.86711   0.29460   0.30499   0.00000  Uiso   1.00
H37    H     0.96750   0.45320   0.90001   0.00000  Uiso   1.00
O38    O     0.55147   0.24565   0.91033   0.00000  Uiso   1.00
O39    O     0.82838   0.35325   0.40493   0.00000  Uiso   1.00
O40    O     0.96009   0.56133   0.87361   0.00000  Uiso   1.00
N41    N     0.59011   0.32205   0.96417   0.00000  Uiso   1.00
N42    N     0.78743   0.39872   0.31664   0.00000  Uiso   1.00
N43    N     0.88130   0.54701   0.93804   0.00000  Uiso   1.00
N44    N     0.64418   0.25036   0.94415   0.00000  Uiso   1.00
N45    N     0.84150   0.32703   0.29662   0.00000  Uiso   1.00
N46    N     0.93536   0.47532   0.91801   0.00000  Uiso   1.00
C47    C     0.24818   0.92890   0.57468   0.00000  Uiso   1.00
C48    C     0.21783   0.88194   0.53932   0.00000  Uiso   1.00
C49    C     0.16220   0.88238   0.52076   0.00000  Uiso   1.00
C50    C     0.14229   0.83536   0.48891   0.00000  Uiso   1.00
C51    C     0.08991   0.76939   0.43598   0.00000  Uiso   1.00
C52    C     0.27221   0.90306   0.63647   0.00000  Uiso   1.00
C53    C     0.26230   0.92127   0.69958   0.00000  Uiso   1.00
C54    C     0.28817   0.89203   0.74951   0.00000  Uiso   1.00
C55    C     0.32024   0.85888   0.84740   0.00000  Uiso   1.00
C56    C     0.29807   0.94393   0.53212   0.00000  Uiso   1.00
C57    C     0.30991   0.99650   0.50750   0.00000  Uiso   1.00
C58    C     0.35757   0.00167   0.46959   0.00000  Uiso   1.00
C59    C     0.42980   0.03197   0.40546   0.00000  Uiso   1.00
C60    C     0.31176   0.84460   0.55113   0.00000  Uiso   1.00
C61    C     0.25237   0.83615   0.52653   0.00000  Uiso   1.00
C62    C     0.23254   0.78911   0.49470   0.00000  Uiso   1.00
C63    C     0.17689   0.78948   0.47609   0.00000  Uiso   1.00
C64    C     0.30674   0.85727   0.62368   0.00000  Uiso   1.00
C65    C     0.33264   0.82800   0.67353   0.00000  Uiso   1.00
C66    C     0.32277   0.84616   0.73670   0.00000  Uiso   1.00
C67    C     0.33260   0.89814   0.51932   0.00000  Uiso   1.00
C68    C     0.38026   0.90322   0.48145   0.00000  Uiso   1.00
C69    C     0.39217   0.95579   0.45678   0.00000  Uiso   1.00
H70    H     0.22129   0.96455   0.58464   0.00000  Uiso   1.00
H71    H     0.13548   0.91783   0.53067   0.00000  Uiso   1.00
H72    H     0.23557   0.95671   0.70946   0.00000  Uiso   1.00
H73    H     0.28318   0.03193   0.51741   0.00000  Uiso   1.00
H74    H     0.05557   0.84582   0.46521   0.00000  Uiso   1.00
H75    H     0.26663   0.92782   0.84221   0.00000  Uiso   1.00
H76    H     0.36702   0.08643   0.43723   0.00000  Uiso   1.00
H77    H     0.33865   0.80894   0.54117   0.00000  Uiso   1.00
H78    H     0.25928   0.75368   0.48481   0.00000  Uiso   1.00
H79    H     0.35937   0.79257   0.66361   0.00000  Uiso   1.00
H80    H     0.40697   0.86778   0.47156   0.00000  Uiso   1.00
H81    H     0.15604   0.71259   0.42799   0.00000  Uiso   1.00
H82    H     0.36711   0.79460   0.80499   0.00000  Uiso   1.00
H83    H     0.46750   0.95320   0.40001   0.00000  Uiso   1.00
O84    O     0.05147   0.74565   0.41033   0.00000  Uiso   1.00
O85    O     0.32838   0.85325   0.90493   0.00000  Uiso   1.00
O86    O     0.46009   0.06133   0.37361   0.00000  Uiso   1.00
N87    N     0.09011   0.82205   0.46417   0.00000  Uiso   1.00
N88    N     0.28743   0.89872   0.81664   0.00000  Uiso   1.00
N89    N     0.38130   0.04701   0.43804   0.00000  Uiso   1.00
N90    N     0.14418   0.75036   0.44415   0.00000  Uiso   1.00
N91    N     0.34150   0.82703   0.79662   0.00000  Uiso   1.00
N92    N     0.43536   0.97532   0.41801   0.00000  Uiso   1.00
C93    C     0.75182   0.07110   0.57468   0.00000  Uiso   1.00
C94    C     0.78217   0.11806   0.53932   0.00000  Uiso   1.00
C95    C     0.83780   0.11762   0.52076   0.00000  Uiso   1.00
C96    C     0.85771   0.16464   0.48891   0.00000  Uiso   1.00
C97    C     0.91009   0.23061   0.43598   0.00000  Uiso   1.00
C98    C     0.72779   0.09694   0.63647   0.00000  Uiso   1.00
C99    C     0.73770   0.07873   0.69958   0.00000  Uiso   1.00
C100   C     0.71183   0.10797   0.74951   0.00000  Uiso   1.00
C101   C     0.67976   0.14112   0.84740   0.00000  Uiso   1.00
C102   C     0.70193   0.05607   0.53212   0.00000  Uiso   1.00
C103   C     0.69009   0.00350   0.50750   0.00000  Uiso   1.00
C104   C     0.64243   0.99833   0.46959   0.00000  Uiso   1.00
C105   C     0.57020   0.96803   0.40546   0.00000  Uiso   1.00
C106   C     0.68824   0.15540   0.55113   0.00000  Uiso   1.00
C107   C     0.74763   0.16385   0.52653   0.00000  Uiso   1.00
C108   C     0.76746   0.21089   0.49470   0.00000  Uiso   1.00
C109   C     0.82311   0.21052   0.47609   0.00000  Uiso   1.00
C110   C     0.69326   0.14273   0.62368   0.00000  Uiso   1.00
C111   C     0.66736   0.17200   0.67353   0.00000  Uiso   1.00
C112   C     0.67723   0.15384   0.73670   0.00000  Uiso   1.00
C113   C     0.66740   0.10186   0.51932   0.00000  Uiso   1.00
C114   C     0.61974   0.09678   0.48145   0.00000  Uiso   1.00
C115   C     0.60783   0.04421   0.45678   0.00000  Uiso   1.00
H116   H     0.77871   0.03545   0.58464   0.00000  Uiso   1.00
H117   H     0.86452   0.08217   0.53067   0.00000  Uiso   1.00
H118   H     0.76443   0.04329   0.70946   0.00000  Uiso   1.00
H119   H     0.71682   0.96807   0.51741   0.00000  Uiso   1.00
H120   H     0.94443   0.15418   0.46521   0.00000  Uiso   1.00
H121   H     0.73337   0.07218   0.84221   0.00000  Uiso   1.00
H122   H     0.63298   0.91357   0.43723   0.00000  Uiso   1.00
H123   H     0.66135   0.19106   0.54117   0.00000  Uiso   1.00
H124   H     0.74072   0.24632   0.48481   0.00000  Uiso   1.00
H125   H     0.64063   0.20743   0.66361   0.00000  Uiso   1.00
H126   H     0.59303   0.13222   0.47156   0.00000  Uiso   1.00
H127   H     0.84396   0.28741   0.42799   0.00000  Uiso   1.00
H128   H     0.63289   0.20540   0.80499   0.00000  Uiso   1.00
H129   H     0.53250   0.04680   0.40001   0.00000  Uiso   1.00
O130   O     0.94853   0.25435   0.41033   0.00000  Uiso   1.00
O131   O     0.67162   0.14675   0.90493   0.00000  Uiso   1.00
O132   O     0.53991   0.93867   0.37361   0.00000  Uiso   1.00
N133   N     0.90989   0.17795   0.46417   0.00000  Uiso   1.00
N134   N     0.71257   0.10128   0.81664   0.00000  Uiso   1.00
N135   N     0.61870   0.95299   0.43804   0.00000  Uiso   1.00
N136   N     0.85582   0.24964   0.44415   0.00000  Uiso   1.00
N137   N     0.65850   0.17297   0.79662   0.00000  Uiso   1.00
N138   N     0.56464   0.02468   0.41801   0.00000  Uiso   1.00
C139   C     0.25182   0.57110   0.07468   0.00000  Uiso   1.00
C140   C     0.28217   0.61806   0.03932   0.00000  Uiso   1.00
C141   C     0.33780   0.61762   0.02076   0.00000  Uiso   1.00
C142   C     0.35771   0.66464   0.98891   0.00000  Uiso   1.00
C143   C     0.41009   0.73061   0.93598   0.00000  Uiso   1.00
C144   C     0.22779   0.59694   0.13647   0.00000  Uiso   1.00
C145   C     0.23770   0.57873   0.19958   0.00000  Uiso   1.00
C146   C     0.21183   0.60797   0.24951   0.00000  Uiso   1.00
C147   C     0.17976   0.64112   0.34740   0.00000  Uiso   1.00
C148   C     0.20193   0.55607   0.03212   0.00000  Uiso   1.00
C149   C     0.19009   0.50350   0.00750   0.00000  Uiso   1.00
C150   C     0.14243   0.49833   0.96959   0.00000  Uiso   1.00
C151   C     0.07020   0.46803   0.90546   0.00000  Uiso   1.00
C152   C     0.18824   0.65540   0.05113   0.00000  Uiso   1.00
C153   C     0.24763   0.66385   0.02653   0.00000  Uiso   1.00
C154   C     0.26746   0.71089   0.99470   0.00000  Uiso   1.00
C155   C     0.32311   0.71052   0.97609   0.00000  Uiso   1.00
C156   C     0.19326   0.64273   0.12368   0.00000  Uiso   1.00
C157   C     0.16736   0.67200   0.17353   0.00000  Uiso   1.00
C158   C     0.17723   0.65384   0.23670   0.00000  Uiso   1.00
C159   C     0.16740   0.60186   0.01932   0.00000  Uiso   1.00
C160   C     0.11974   0.59678   0.98145   0.00000  Uiso   1.00
C161   C     0.10783   0.54421   0.95678   0.00000  Uiso   1.00
H162   H     0.27871   0.53545   0.08464   0.00000  Uiso   1.00
H163   H     0.36452   0.58217   0.03067   0.00000  Uiso   1.00
H164   H     0.26443   0.54329   0.20946   0.00000  Uiso   1.00
H165   H     0.21682   0.46807   0.01741   0.00000  Uiso   1.00
H166   H     0.44443   0.65418   0.96521   0.00000  Uiso   1.00
H167   H     0.23337   0.57218   0.34221   0.00000  Uiso   1.00
H168   H     0.13298   0.41357   0.93723   0.00000  Uiso   1.00
H169   H     0.16135   0.69106   0.04117   0.00000  Uiso   1.00
H170   H     0.24072   0.74632   0.98481   0.00000  Uiso   1.00
H171   H     0.14063   0.70743   0.16361   0.00000  Uiso   1.00
H172   H     0.09303   0.63222   0.97156   0.00000  Uiso   1.00
H173   H     0.34396   0.78741   0.92799   0.00000  Uiso   1.00
H174   H     0.13289   0.70540   0.30499   0.00000  Uiso   1.00
H175   H     0.03250   0.54680   0.90001   0.00000  Uiso   1.00
O176   O     0.44853   0.75435   0.91033   0.00000  Uiso   1.00
O177   O     0.17162   0.64675   0.40493   0.00000  Uiso   1.00
O178   O     0.03991   0.43867   0.87361   0.00000  Uiso   1.00
N179   N     0.40989   0.67795   0.96417   0.00000  Uiso   1.00
N180   N     0.21257   0.60128   0.31664   0.00000  Uiso   1.00
N181   N     0.11870   0.45299   0.93804   0.00000  Uiso   1.00
N182   N     0.35582   0.74964   0.94415   0.00000  Uiso   1.00
N183   N     0.15850   0.67297   0.29662   0.00000  Uiso   1.00
N184   N     0.06464   0.52468   0.91801   0.00000  Uiso   1.00
C185   C     0.57110   0.24818   0.32468   0.00000  Uiso   1.00
C186   C     0.61806   0.21783   0.28932   0.00000  Uiso   1.00
C187   C     0.61762   0.16220   0.27076   0.00000  Uiso   1.00
C188   C     0.66464   0.14229   0.23891   0.00000  Uiso   1.00
C189   C     0.73061   0.08991   0.18598   0.00000  Uiso   1.00
C190   C     0.59694   0.27221   0.38647   0.00000  Uiso   1.00
C191   C     0.57873   0.26230   0.44958   0.00000  Uiso   1.00
C192   C     0.60797   0.28817   0.49951   0.00000  Uiso   1.00
C193   C     0.64112   0.32024   0.59740   0.00000  Uiso   1.00
C194   C     0.55607   0.29807   0.28212   0.00000  Uiso   1.00
C195   C     0.50350   0.30991   0.25750   0.00000  Uiso   1.00
C196   C     0.49833   0.35757   0.21959   0.00000  Uiso   1.00
C197   C     0.46803   0.42980   0.15546   0.00000  Uiso   1.00
C198   C     0.65540   0.31176   0.30113   0.00000  Uiso   1.00
C199   C     0.66385   0.25237   0.27653   0.00000  Uiso   1.00
C200   C     0.71089   0.23254   0.24470   0.00000  Uiso   1.00
C201   C     0.71052   0.17689   0.22609   0.00000  Uiso   1.00
C202   C     0.64273   0.30674   0.37368   0.00000  Uiso   1.00
C203   C     0.67200   0.33264   0.42353   0.00000  Uiso   1.00
C204   C     0.65384   0.32277   0.48670   0.00000  Uiso   1.00
C205   C     0.60186   0.33260   0.26932   0.00000  Uiso   1.00
C206   C     0.59678   0.38026   0.23145   0.00000  Uiso   1.00
C207   C     0.54421   0.39217   0.20678   0.00000  Uiso   1.00
H208   H     0.53545   0.22129   0.33464   0.00000  Uiso   1.00
H209   H     0.58217   0.13548   0.28067   0.00000  Uiso   1.00
H210   H     0.54329   0.23557   0.45946   0.00000  Uiso   1.00
H211   H     0.46807   0.28318   0.26741   0.00000  Uiso   1.00
H212   H     0.65418   0.05557   0.21521   0.00000  Uiso   1.00
H213   H     0.57218   0.26663   0.59221   0.00000  Uiso   1.00
H214   H     0.41357   0.36702   0.18723   0.00000  Uiso   1.00
H215   H     0.69106   0.33865   0.29117   0.00000  Uiso   1.00
H216   H     0.74632   0.25928   0.23481   0.00000  Uiso   1.00
H217   H     0.70743   0.35937   0.41361   0.00000  Uiso   1.00
H218   H     0.63222   0.40697   0.22156   0.00000  Uiso   1.00
H219   H     0.78741   0.15604   0.17799   0.00000  Uiso   1.00
H220   H     0.70540   0.36711   0.55499   0.00000  Uiso   1.00
H221   H     0.54680   0.46750   0.15001   0.00000  Uiso   1.00
O222   O     0.75435   0.05147   0.16033   0.00000  Uiso   1.00
O223   O     0.64675   0.32838   0.65493   0.00000  Uiso   1.00
O224   O     0.43867   0.46009   0.12361   0.00000  Uiso   1.00
N225   N     0.67795   0.09011   0.21417   0.00000  Uiso   1.00
N226   N     0.60128   0.28743   0.56664   0.00000  Uiso   1.00
N227   N     0.45299   0.38130   0.18804   0.00000  Uiso   1.00
N228   N     0.74964   0.14418   0.19415   0.00000  Uiso   1.00
N229   N     0.67297   0.34150   0.54662   0.00000  Uiso   1.00
N230   N     0.52468   0.43536   0.16801   0.00000  Uiso   1.00
C231   C     0.07110   0.74818   0.82468   0.00000  Uiso   1.00
C232   C     0.11806   0.71783   0.78932   0.00000  Uiso   1.00
C233   C     0.11762   0.66220   0.77076   0.00000  Uiso   1.00
C234   C     0.16464   0.64229   0.73891   0.00000  Uiso   1.00
C235   C     0.23061   0.58991   0.68598   0.00000  Uiso   1.00
C236   C     0.09694   0.77221   0.88647   0.00000  Uiso   1.00
C237   C     0.07873   0.76230   0.94958   0.00000  Uiso   1.00
C238   C     0.10797   0.78817   0.99951   0.00000  Uiso   1.00
C239   C     0.14112   0.82024   0.09740   0.00000  Uiso   1.00
C240   C     0.05607   0.79807   0.78212   0.00000  Uiso   1.00
C241   C     0.00350   0.80991   0.75750   0.00000  Uiso   1.00
C242   C     0.99833   0.85757   0.71959   0.00000  Uiso   1.00
C243   C     0.96803   0.92980   0.65546   0.00000  Uiso   1.00
C244   C     0.15540   0.81176   0.80113   0.00000  Uiso   1.00
C245   C     0.16385   0.75237   0.77653   0.00000  Uiso   1.00
C246   C     0.21089   0.73254   0.74470   0.00000  Uiso   1.00
C247   C     0.21052   0.67689   0.72609   0.00000  Uiso   1.00
C248   C     0.14273   0.80674   0.87368   0.00000  Uiso   1.00
C249   C     0.17200   0.83264   0.92353   0.00000  Uiso   1.00
C250   C     0.15384   0.82277   0.98670   0.00000  Uiso   1.00
C251   C     0.10186   0.83260   0.76932   0.00000  Uiso   1.00
C252   C     0.09678   0.88026   0.73145   0.00000  Uiso   1.00
C253   C     0.04421   0.89217   0.70678   0.00000  Uiso   1.00
H254   H     0.03545   0.72129   0.83464   0.00000  Uiso   1.00
H255   H     0.08217   0.63548   0.78067   0.00000  Uiso   1.00
H256   H     0.04329   0.73557   0.95946   0.00000  Uiso   1.00
H257   H     0.96807   0.78318   0.76741   0.00000  Uiso   1.00
H258   H     0.15418   0.55557   0.71521   0.00000  Uiso   1.00
H259   H     0.07218   0.76663   0.09221   0.00000  Uiso   1.00
H260   H     0.91357   0.86702   0.68723   0.00000  Uiso   1.00
H261   H     0.19106   0.83865   0.79117   0.00000  Uiso   1.00
H262   H     0.24632   0.75928   0.73481   0.00000  Uiso   1.00
H263   H     0.20743   0.85937   0.91361   0.00000  Uiso   1.00
H264   H     0.13222   0.90697   0.72156   0.00000  Uiso   1.00
H265   H     0.28741   0.65604   0.67799   0.00000  Uiso   1.00
H266   H     0.20540   0.86711   0.05499   0.00000  Uiso   1.00
H267   H     0.04680   0.96750   0.65001   0.00000  Uiso   1.00
O268   O     0.25435   0.55147   0.66033   0.00000  Uiso   1.00
O269   O     0.14675   0.82838   0.15493   0.00000  Uiso   1.00
O270   O     0.93867   0.96009   0.62361   0.00000  Uiso   1.00
N271   N     0.17795   0.59011   0.71417   0.00000  Uiso   1.00
N272   N     0.10128   0.78743   0.06664   0.00000  Uiso   1.00
N273   N     0.95299   0.88130   0.68804   0.00000  Uiso   1.00
N274   N     0.24964   0.64418   0.69415   0.00000  Uiso   1.00
N275   N     0.17297   0.84150   0.04662   0.00000  Uiso   1.00
N276   N     0.02468   0.93536   0.66801   0.00000  Uiso   1.00
C277   C     0.92890   0.25182   0.82468   0.00000  Uiso   1.00
C278   C     0.88194   0.28217   0.78932   0.00000  Uiso   1.00
C279   C     0.88238   0.33780   0.77076   0.00000  Uiso   1.00
C280   C     0.83536   0.35771   0.73891   0.00000  Uiso   1.00
C281   C     0.76939   0.41009   0.68598   0.00000  Uiso   1.00
C282   C     0.90306   0.22779   0.88647   0.00000  Uiso   1.00
C283   C     0.92127   0.23770   0.94958   0.00000  Uiso   1.00
C284   C     0.89203   0.21183   0.99951   0.00000  Uiso   1.00
C285   C     0.85888   0.17976   0.09740   0.00000  Uiso   1.00
C286   C     0.94393   0.20193   0.78212   0.00000  Uiso   1.00
C287   C     0.99650   0.19009   0.75750   0.00000  Uiso   1.00
C288   C     0.00167   0.14243   0.71959   0.00000  Uiso   1.00
C289   C     0.03197   0.07020   0.65546   0.00000  Uiso   1.00
C290   C     0.84460   0.18824   0.80113   0.00000  Uiso   1.00
C291   C     0.83615   0.24763   0.77653   0.00000  Uiso   1.00
C292   C     0.78911   0.26746   0.74470   0.00000  Uiso   1.00
C293   C     0.78948   0.32311   0.72609   0.00000  Uiso   1.00
C294   C     0.85727   0.19326   0.87368   0.00000  Uiso   1.00
C295   C     0.82800   0.16736   0.92353   0.00000  Uiso   1.00
C296   C     0.84616   0.17723   0.98670   0.00000  Uiso   1.00
C297   C     0.89814   0.16740   0.76932   0.00000  Uiso   1.00
C298   C     0.90322   0.11974   0.73145   0.00000  Uiso   1.00
C299   C     0.95579   0.10783   0.70678   0.00000  Uiso   1.00
H300   H     0.96455   0.27871   0.83464   0.00000  Uiso   1.00
H301   H     0.91783   0.36452   0.78067   0.00000  Uiso   1.00
H302   H     0.95671   0.26443   0.95946   0.00000  Uiso   1.00
H303   H     0.03193   0.21682   0.76741   0.00000  Uiso   1.00
H304   H     0.84582   0.44443   0.71521   0.00000  Uiso   1.00
H305   H     0.92782   0.23337   0.09221   0.00000  Uiso   1.00
H306   H     0.08643   0.13298   0.68723   0.00000  Uiso   1.00
H307   H     0.80894   0.16135   0.79117   0.00000  Uiso   1.00
H308   H     0.75368   0.24072   0.73481   0.00000  Uiso   1.00
H309   H     0.79257   0.14063   0.91361   0.00000  Uiso   1.00
H310   H     0.86778   0.09303   0.72156   0.00000  Uiso   1.00
H311   H     0.71259   0.34396   0.67799   0.00000  Uiso   1.00
H312   H     0.79460   0.13289   0.05499   0.00000  Uiso   1.00
H313   H     0.95320   0.03250   0.65001   0.00000  Uiso   1.00
O314   O     0.74565   0.44853   0.66033   0.00000  Uiso   1.00
O315   O     0.85325   0.17162   0.15493   0.00000  Uiso   1.00
O316   O     0.06133   0.03991   0.62361   0.00000  Uiso   1.00
N317   N     0.82205   0.40989   0.71417   0.00000  Uiso   1.00
N318   N     0.89872   0.21257   0.06664   0.00000  Uiso   1.00
N319   N     0.04701   0.11870   0.68804   0.00000  Uiso   1.00
N320   N     0.75036   0.35582   0.69415   0.00000  Uiso   1.00
N321   N     0.82703   0.15850   0.04662   0.00000  Uiso   1.00
N322   N     0.97532   0.06464   0.66801   0.00000  Uiso   1.00
C323   C     0.42890   0.75182   0.32468   0.00000  Uiso   1.00
C324   C     0.38194   0.78217   0.28932   0.00000  Uiso   1.00
C325   C     0.38238   0.83780   0.27076   0.00000  Uiso   1.00
C326   C     0.33536   0.85771   0.23891   0.00000  Uiso   1.00
C327   C     0.26939   0.91009   0.18598   0.00000  Uiso   1.00
C328   C     0.40306   0.72779   0.38647   0.00000  Uiso   1.00
C329   C     0.42127   0.73770   0.44958   0.00000  Uiso   1.00
C330   C     0.39203   0.71183   0.49951   0.00000  Uiso   1.00
C331   C     0.35888   0.67976   0.59740   0.00000  Uiso   1.00
C332   C     0.44393   0.70193   0.28212   0.00000  Uiso   1.00
C333   C     0.49650   0.69009   0.25750   0.00000  Uiso   1.00
C334   C     0.50167   0.64243   0.21959   0.00000  Uiso   1.00
C335   C     0.53197   0.57020   0.15546   0.00000  Uiso   1.00
C336   C     0.34460   0.68824   0.30113   0.00000  Uiso   1.00
C337   C     0.33615   0.74763   0.27653   0.00000  Uiso   1.00
C338   C     0.28911   0.76746   0.24470   0.00000  Uiso   1.00
C339   C     0.28948   0.82311   0.22609   0.00000  Uiso   1.00
C340   C     0.35727   0.69326   0.37368   0.00000  Uiso   1.00
C341   C     0.32800   0.66736   0.42353   0.00000  Uiso   1.00
C342   C     0.34616   0.67723   0.48670   0.00000  Uiso   1.00
C343   C     0.39814   0.66740   0.26932   0.00000  Uiso   1.00
C344   C     0.40322   0.61974   0.23145   0.00000  Uiso   1.00
C345   C     0.45579   0.60783   0.20678   0.00000  Uiso   1.00
H346   H     0.46455   0.77871   0.33464   0.00000  Uiso   1.00
H347   H     0.41783   0.86452   0.28067   0.00000  Uiso   1.00
H348   H     0.45671   0.76443   0.45946   0.00000  Uiso   1.00
H349   H     0.53193   0.71682   0.26741   0.00000  Uiso   1.00
H350   H     0.34582   0.94443   0.21521   0.00000  Uiso   1.00
H351   H     0.42782   0.73337   0.59221   0.00000  Uiso   1.00
H352   H     0.58643   0.63298   0.18723   0.00000  Uiso   1.00
H353   H     0.30894   0.66135   0.29117   0.00000  Uiso   1.00
H354   H     0.25368   0.74072   0.23481   0.00000  Uiso   1.00
H355   H     0.29257   0.64063   0.41361   0.00000  Uiso   1.00
H356   H     0.36778   0.59303   0.22156   0.00000  Uiso   1.00
H357   H     0.21259   0.84396   0.17799   0.00000  Uiso   1.00
H358   H     0.29460   0.63289   0.55499   0.00000  Uiso   1.00
H359   H     0.45320   0.53250   0.15001   0.00000  Uiso   1.00
O360   O     0.24565   0.94853   0.16033   0.00000  Uiso   1.00
O361   O     0.35325   0.67162   0.65493   0.00000  Uiso   1.00
O362   O     0.56133   0.53991   0.12361   0.00000  Uiso   1.00
N363   N     0.32205   0.90989   0.21417   0.00000  Uiso   1.00
N364   N     0.39872   0.71257   0.56664   0.00000  Uiso   1.00
N365   N     0.54701   0.61870   0.18804   0.00000  Uiso   1.00
N366   N     0.25036   0.85582   0.19415   0.00000  Uiso   1.00
N367   N     0.32703   0.65850   0.54662   0.00000  Uiso   1.00
N368   N     0.47532   0.56464   0.16801   0.00000  Uiso   1.00
C369   C     0.74818   0.57110   0.57468   0.00000  Uiso   1.00
C370   C     0.71783   0.61806   0.53932   0.00000  Uiso   1.00
C371   C     0.66220   0.61762   0.52076   0.00000  Uiso   1.00
C372   C     0.64229   0.66464   0.48891   0.00000  Uiso   1.00
C373   C     0.58991   0.73061   0.43598   0.00000  Uiso   1.00
C374   C     0.77221   0.59694   0.63647   0.00000  Uiso   1.00
C375   C     0.76230   0.57873   0.69958   0.00000  Uiso   1.00
C376   C     0.78817   0.60797   0.74951   0.00000  Uiso   1.00
C377   C     0.82024   0.64112   0.84740   0.00000  Uiso   1.00
C378   C     0.79807   0.55607   0.53212   0.00000  Uiso   1.00
C379   C     0.80991   0.50350   0.50750   0.00000  Uiso   1.00
C380   C     0.85757   0.49833   0.46959   0.00000  Uiso   1.00
C381   C     0.92980   0.46803   0.40546   0.00000  Uiso   1.00
C382   C     0.81176   0.65540   0.55113   0.00000  Uiso   1.00
C383   C     0.75237   0.66385   0.52653   0.00000  Uiso   1.00
C384   C     0.73254   0.71089   0.49470   0.00000  Uiso   1.00
C385   C     0.67689   0.71052   0.47609   0.00000  Uiso   1.00
C386   C     0.80674   0.64273   0.62368   0.00000  Uiso   1.00
C387   C     0.83264   0.67200   0.67353   0.00000  Uiso   1.00
C388   C     0.82277   0.65384   0.73670   0.00000  Uiso   1.00
C389   C     0.83260   0.60186   0.51932   0.00000  Uiso   1.00
C390   C     0.88026   0.59678   0.48145   0.00000  Uiso   1.00
C391   C     0.89217   0.54421   0.45678   0.00000  Uiso   1.00
H392   H     0.72129   0.53545   0.58464   0.00000  Uiso   1.00
H393   H     0.63548   0.58217   0.53067   0.00000  Uiso   1.00
H394   H     0.73557   0.54329   0.70946   0.00000  Uiso   1.00
H395   H     0.78318   0.46807   0.51741   0.00000  Uiso   1.00
H396   H     0.55557   0.65418   0.46521   0.00000  Uiso   1.00
H397   H     0.76663   0.57218   0.84221   0.00000  Uiso   1.00
H398   H     0.86702   0.41357   0.43723   0.00000  Uiso   1.00
H399   H     0.83865   0.69106   0.54117   0.00000  Uiso   1.00
H400   H     0.75928   0.74632   0.48481   0.00000  Uiso   1.00
H401   H     0.85937   0.70743   0.66361   0.00000  Uiso   1.00
H402   H     0.90697   0.63222   0.47156   0.00000  Uiso   1.00
H403   H     0.65604   0.78741   0.42799   0.00000  Uiso   1.00
H404   H     0.86711   0.70540   0.80499   0.00000  Uiso   1.00
H405   H     0.96750   0.54680   0.40001   0.00000  Uiso   1.00
O406   O     0.55147   0.75435   0.41033   0.00000  Uiso   1.00
O407   O     0.82838   0.64675   0.90493   0.00000  Uiso   1.00
O408   O     0.96009   0.43867   0.37361   0.00000  Uiso   1.00
N409   N     0.59011   0.67795   0.46417   0.00000  Uiso   1.00
N410   N     0.78743   0.60128   0.81664   0.00000  Uiso   1.00
N411   N     0.88130   0.45299   0.43804   0.00000  Uiso   1.00
N412   N     0.64418   0.74964   0.44415   0.00000  Uiso   1.00
N413   N     0.84150   0.67297   0.79662   0.00000  Uiso   1.00
N414   N     0.93536   0.52468   0.41801   0.00000  Uiso   1.00
C415   C     0.24818   0.07110   0.07468   0.00000  Uiso   1.00
C416   C     0.21783   0.11806   0.03932   0.00000  Uiso   1.00
C417   C     0.16220   0.11762   0.02076   0.00000  Uiso   1.00
C418   C     0.14229   0.16464   0.98891   0.00000  Uiso   1.00
C419   C     0.08991   0.23061   0.93598   0.00000  Uiso   1.00
C420   C     0.27221   0.09694   0.13647   0.00000  Uiso   1.00
C421   C     0.26230   0.07873   0.19958   0.00000  Uiso   1.00
C422   C     0.28817   0.10797   0.24951   0.00000  Uiso   1.00
C423   C     0.32024   0.14112   0.34740   0.00000  Uiso   1.00
C424   C     0.29807   0.05607   0.03212   0.00000  Uiso   1.00
C425   C     0.30991   0.00350   0.00750   0.00000  Uiso   1.00
C426   C     0.35757   0.99833   0.96959   0.00000  Uiso   1.00
C427   C     0.42980   0.96803   0.90546   0.00000  Uiso   1.00
C428   C     0.31176   0.15540   0.05113   0.00000  Uiso   1.00
C429   C     0.25237   0.16385   0.02653   0.00000  Uiso   1.00
C430   C     0.23254   0.21089   0.99470   0.00000  Uiso   1.00
C431   C     0.17689   0.21052   0.97609   0.00000  Uiso   1.00
C432   C     0.30674   0.14273   0.12368   0.00000  Uiso   1.00
C433   C     0.33264   0.17200   0.17353   0.00000  Uiso   1.00
C434   C     0.32277   0.15384   0.23670   0.00000  Uiso   1.00
C435   C     0.33260   0.10186   0.01932   0.00000  Uiso   1.00
C436   C     0.38026   0.09678   0.98145   0.00000  Uiso   1.00
C437   C     0.39217   0.04421   0.95678   0.00000  Uiso   1.00
H438   H     0.22129   0.03545   0.08464   0.00000  Uiso   1.00
H439   H     0.13548   0.08217   0.03067   0.00000  Uiso   1.00
H440   H     0.23557   0.04329   0.20946   0.00000  Uiso   1.00
H441   H     0.28318   0.96807   0.01741   0.00000  Uiso   1.00
H442   H     0.05557   0.15418   0.96521   0.00000  Uiso   1.00
H443   H     0.26663   0.07218   0.34221   0.00000  Uiso   1.00
H444   H     0.36702   0.91357   0.93723   0.00000  Uiso   1.00
H445   H     0.33865   0.19106   0.04117   0.00000  Uiso   1.00
H446   H     0.25928   0.24632   0.98481   0.00000  Uiso   1.00
H447   H     0.35937   0.20743   0.16361   0.00000  Uiso   1.00
H448   H     0.40697   0.13222   0.97156   0.00000  Uiso   1.00
H449   H     0.15604   0.28741   0.92799   0.00000  Uiso   1.00
H450   H     0.36711   0.20540   0.30499   0.00000  Uiso   1.00
H451   H     0.46750   0.04680   0.90001   0.00000  Uiso   1.00
O452   O     0.05147   0.25435   0.91033   0.00000  Uiso   1.00
O453   O     0.32838   0.14675   0.40493   0.00000  Uiso   1.00
O454   O     0.46009   0.93867   0.87361   0.00000  Uiso   1.00
N455   N     0.09011   0.17795   0.96417   0.00000  Uiso   1.00
N456   N     0.28743   0.10128   0.31664   0.00000  Uiso   1.00
N457   N     0.38130   0.95299   0.93804   0.00000  Uiso   1.00
N458   N     0.14418   0.24964   0.94415   0.00000  Uiso   1.00
N459   N     0.34150   0.17297   0.29662   0.00000  Uiso   1.00
N460   N     0.43536   0.02468   0.91801   0.00000  Uiso   1.00
C461   C     0.75182   0.92890   0.07468   0.00000  Uiso   1.00
C462   C     0.78217   0.88194   0.03932   0.00000  Uiso   1.00
C463   C     0.83780   0.88238   0.02076   0.00000  Uiso   1.00
C464   C     0.85771   0.83536   0.98891   0.00000  Uiso   1.00
C465   C     0.91009   0.76939   0.93598   0.00000  Uiso   1.00
C466   C     0.72779   0.90306   0.13647   0.00000  Uiso   1.00
C467   C     0.73770   0.92127   0.19958   0.00000  Uiso   1.00
C468   C     0.71183   0.89203   0.24951   0.00000  Uiso   1.00
C469   C     0.67976   0.85888   0.34740   0.00000  Uiso   1.00
C470   C     0.70193   0.94393   0.03212   0.00000  Uiso   1.00
C471   C     0.69009   0.99650   0.00750   0.00000  Uiso   1.00
C472   C     0.64243   0.00167   0.96959   0.00000  Uiso   1.00
C473   C     0.57020   0.03197   0.90546   0.00000  Uiso   1.00
C474   C     0.68824   0.84460   0.05113   0.00000  Uiso   1.00
C475   C     0.74763   0.83615   0.02653   0.00000  Uiso   1.00
C476   C     0.76746   0.78911   0.99470   0.00000  Uiso   1.00
C477   C     0.82311   0.78948   0.97609   0.00000  Uiso   1.00
C478   C     0.69326   0.85727   0.12368   0.00000  Uiso   1.00
C479   C     0.66736   0.82800   0.17353   0.00000  Uiso   1.00
C480   C     0.67723   0.84616   0.23670   0.00000  Uiso   1.00
C481   C     0.66740   0.89814   0.01932   0.00000  Uiso   1.00
C482   C     0.61974   0.90322   0.98145   0.00000  Uiso   1.00
C483   C     0.60783   0.95579   0.95678   0.00000  Uiso   1.00
H484   H     0.77871   0.96455   0.08464   0.00000  Uiso   1.00
H485   H     0.86452   0.91783   0.03067   0.00000  Uiso   1.00
H486   H     0.76443   0.95671   0.20946   0.00000  Uiso   1.00
H487   H     0.71682   0.03193   0.01741   0.00000  Uiso   1.00
H488   H     0.94443   0.84582   0.96521   0.00000  Uiso   1.00
H489   H     0.73337   0.92782   0.34221   0.00000  Uiso   1.00
H490   H     0.63298   0.08643   0.93723   0.00000  Uiso   1.00
H491   H     0.66135   0.80894   0.04117   0.00000  Uiso   1.00
H492   H     0.74072   0.75368   0.98481   0.00000  Uiso   1.00
H493   H     0.64063   0.79257   0.16361   0.00000  Uiso   1.00
H494   H     0.59303   0.86778   0.97156   0.00000  Uiso   1.00
H495   H     0.84396   0.71259   0.92799   0.00000  Uiso   1.00
H496   H     0.63289   0.79460   0.30499   0.00000  Uiso   1.00
H497   H     0.53250   0.95320   0.90001   0.00000  Uiso   1.00
O498   O     0.94853   0.74565   0.91033   0.00000  Uiso   1.00
O499   O     0.67162   0.85325   0.40493   0.00000  Uiso   1.00
O500   O     0.53991   0.06133   0.87361   0.00000  Uiso   1.00
N501   N     0.90989   0.82205   0.96417   0.00000  Uiso   1.00
N502   N     0.71257   0.89872   0.31664   0.00000  Uiso   1.00
N503   N     0.61870   0.04701   0.93804   0.00000  Uiso   1.00
N504   N     0.85582   0.75036   0.94415   0.00000  Uiso   1.00
N505   N     0.65850   0.82703   0.29662   0.00000  Uiso   1.00
N506   N     0.56464   0.97532   0.91801   0.00000  Uiso   1.00
C507   C     0.25182   0.42890   0.57468   0.00000  Uiso   1.00
C508   C     0.28217   0.38194   0.53932   0.00000  Uiso   1.00
C509   C     0.33780   0.38238   0.52076   0.00000  Uiso   1.00
C510   C     0.35771   0.33536   0.48891   0.00000  Uiso   1.00
C511   C     0.41009   0.26939   0.43598   0.00000  Uiso   1.00
C512   C     0.22779   0.40306   0.63647   0.00000  Uiso   1.00
C513   C     0.23770   0.42127   0.69958   0.00000  Uiso   1.00
C514   C     0.21183   0.39203   0.74951   0.00000  Uiso   1.00
C515   C     0.17976   0.35888   0.84740   0.00000  Uiso   1.00
C516   C     0.20193   0.44393   0.53212   0.00000  Uiso   1.00
C517   C     0.19009   0.49650   0.50750   0.00000  Uiso   1.00
C518   C     0.14243   0.50167   0.46959   0.00000  Uiso   1.00
C519   C     0.07020   0.53197   0.40546   0.00000  Uiso   1.00
C520   C     0.18824   0.34460   0.55113   0.00000  Uiso   1.00
C521   C     0.24763   0.33615   0.52653   0.00000  Uiso   1.00
C522   C     0.26746   0.28911   0.49470   0.00000  Uiso   1.00
C523   C     0.32311   0.28948   0.47609   0.00000  Uiso   1.00
C524   C     0.19326   0.35727   0.62368   0.00000  Uiso   1.00
C525   C     0.16736   0.32800   0.67353   0.00000  Uiso   1.00
C526   C     0.17723   0.34616   0.73670   0.00000  Uiso   1.00
C527   C     0.16740   0.39814   0.51932   0.00000  Uiso   1.00
C528   C     0.11974   0.40322   0.48145   0.00000  Uiso   1.00
C529   C     0.10783   0.45579   0.45678   0.00000  Uiso   1.00
H530   H     0.27871   0.46455   0.58464   0.00000  Uiso   1.00
H531   H     0.36452   0.41783   0.53067   0.00000  Uiso   1.00
H532   H     0.26443   0.45671   0.70946   0.00000  Uiso   1.00
H533   H     0.21682   0.53193   0.51741   0.00000  Uiso   1.00
H534   H     0.44443   0.34582   0.46521   0.00000  Uiso   1.00
H535   H     0.23337   0.42782   0.84221   0.00000  Uiso   1.00
H536   H     0.13298   0.58643   0.43723   0.00000  Uiso   1.00
H537   H     0.16135   0.30894   0.54117   0.00000  Uiso   1.00
H538   H     0.24072   0.25368   0.48481   0.00000  Uiso   1.00
H539   H     0.14063   0.29257   0.66361   0.00000  Uiso   1.00
H540   H     0.09303   0.36778   0.47156   0.00000  Uiso   1.00
H541   H     0.34396   0.21259   0.42799   0.00000  Uiso   1.00
H542   H     0.13289   0.29460   0.80499   0.00000  Uiso   1.00
H543   H     0.03250   0.45320   0.40001   0.00000  Uiso   1.00
O544   O     0.44853   0.24565   0.41033   0.00000  Uiso   1.00
O545   O     0.17162   0.35325   0.90493   0.00000  Uiso   1.00
O546   O     0.03991   0.56133   0.37361   0.00000  Uiso   1.00
N547   N     0.40989   0.32205   0.46417   0.00000  Uiso   1.00
N548   N     0.21257   0.39872   0.81664   0.00000  Uiso   1.00
N549   N     0.11870   0.54701   0.43804   0.00000  Uiso   1.00
N550   N     0.35582   0.25036   0.44415   0.00000  Uiso   1.00
N551   N     0.15850   0.32703   0.79662   0.00000  Uiso   1.00
N552   N     0.06464   0.47532   0.41801   0.00000  Uiso   1.00
C553   C     0.57110   0.75182   0.82468   0.00000  Uiso   1.00
C554   C     0.61806   0.78217   0.78932   0.00000  Uiso   1.00
C555   C     0.61762   0.83780   0.77076   0.00000  Uiso   1.00
C556   C     0.66464   0.85771   0.73891   0.00000  Uiso   1.00
C557   C     0.73061   0.91009   0.68598   0.00000  Uiso   1.00
C558   C     0.59694   0.72779   0.88647   0.00000  Uiso   1.00
C559   C     0.57873   0.73770   0.94958   0.00000  Uiso   1.00
C560   C     0.60797   0.71183   0.99951   0.00000  Uiso   1.00
C561   C     0.64112   0.67976   0.09740   0.00000  Uiso   1.00
C562   C     0.55607   0.70193   0.78212   0.00000  Uiso   1.00
C563   C     0.50350   0.69009   0.75750   0.00000  Uiso   1.00
C564   C     0.49833   0.64243   0.71959   0.00000  Uiso   1.00
C565   C     0.46803   0.57020   0.65546   0.00000  Uiso   1.00
C566   C     0.65540   0.68824   0.80113   0.00000  Uiso   1.00
C567   C     0.66385   0.74763   0.77653   0.00000  Uiso   1.00
C568   C     0.71089   0.76746   0.74470   0.00000  Uiso   1.00
C569   C     0.71052   0.82311   0.72609   0.00000  Uiso   1.00
C570   C     0.64273   0.69326   0.87368   0.00000  Uiso   1.00
C571   C     0.67200   0.66736   0.92353   0.00000  Uiso   1.00
C572   C     0.65384   0.67723   0.98670   0.00000  Uiso   1.00
C573   C     0.60186   0.66740   0.76932   0.00000  Uiso   1.00
C574   C     0.59678   0.61974   0.73145   0.00000  Uiso   1.00
C575   C     0.54421   0.60783   0.70678   0.00000  Uiso   1.00
H576   H     0.53545   0.77871   0.83464   0.00000  Uiso   1.00
H577   H     0.58217   0.86452   0.78067   0.00000  Uiso   1.00
H578   H     0.54329   0.76443   0.95946   0.00000  Uiso   1.00
H579   H     0.46807   0.71682   0.76741   0.00000  Uiso   1.00
H580   H     0.65418   0.94443   0.71521   0.00000  Uiso   1.00
H581   H     0.57218   0.73337   0.09221   0.00000  Uiso   1.00
H582   H     0.41357   0.63298   0.68723   0.00000  Uiso   1.00
H583   H     0.69106   0.66135   0.79117   0.00000  Uiso   1.00
H584   H     0.74632   0.74072   0.73481   0.00000  Uiso   1.00
H585   H     0.70743   0.64063   0.91361   0.00000  Uiso   1.00
H586   H     0.63222   0.59303   0.72156   0.00000  Uiso   1.00
H587   H     0.78741   0.84396   0.67799   0.00000  Uiso   1.00
H588   H     0.70540   0.63289   0.05499   0.00000  Uiso   1.00
H589   H     0.54680   0.53250   0.65001   0.00000  Uiso   1.00
O590   O     0.75435   0.94853   0.66033   0.00000  Uiso   1.00
O591   O     0.64675   0.67162   0.15493   0.00000  Uiso   1.00
O592   O     0.43867   0.53991   0.62361   0.00000  Uiso   1.00
N593   N     0.67795   0.90989   0.71417   0.00000  Uiso   1.00
N594   N     0.60128   0.71257   0.06664   0.00000  Uiso   1.00
N595   N     0.45299   0.61870   0.68804   0.00000  Uiso   1.00
N596   N     0.74964   0.85582   0.69415   0.00000  Uiso   1.00
N597   N     0.67297   0.65850   0.04662   0.00000  Uiso   1.00
N598   N     0.52468   0.56464   0.66801   0.00000  Uiso   1.00
C599   C     0.07110   0.25182   0.32468   0.00000  Uiso   1.00
C600   C     0.11806   0.28217   0.28932   0.00000  Uiso   1.00
C601   C     0.11762   0.33780   0.27076   0.00000  Uiso   1.00
C602   C     0.16464   0.35771   0.23891   0.00000  Uiso   1.00
C603   C     0.23061   0.41009   0.18598   0.00000  Uiso   1.00
C604   C     0.09694   0.22779   0.38647   0.00000  Uiso   1.00
C605   C     0.07873   0.23770   0.44958   0.00000  Uiso   1.00
C606   C     0.10797   0.21183   0.49951   0.00000  Uiso   1.00
C607   C     0.14112   0.17976   0.59740   0.00000  Uiso   1.00
C608   C     0.05607   0.20193   0.28212   0.00000  Uiso   1.00
C609   C     0.00350   0.19009   0.25750   0.00000  Uiso   1.00
C610   C     0.99833   0.14243   0.21959   0.00000  Uiso   1.00
C611   C     0.96803   0.07020   0.15546   0.00000  Uiso   1.00
C612   C     0.15540   0.18824   0.30113   0.00000  Uiso   1.00
C613   C     0.16385   0.24763   0.27653   0.00000  Uiso   1.00
C614   C     0.21089   0.26746   0.24470   0.00000  Uiso   1.00
C615   C     0.21052   0.32311   0.22609   0.00000  Uiso   1.00
C616   C     0.14273   0.19326   0.37368   0.00000  Uiso   1.00
C617   C     0.17200   0.16736   0.42353   0.00000  Uiso   1.00
C618   C     0.15384   0.17723   0.48670   0.00000  Uiso   1.00
C619   C     0.10186   0.16740   0.26932   0.00000  Uiso   1.00
C620   C     0.09678   0.11974   0.23145   0.00000  Uiso   1.00
C621   C     0.04421   0.10783   0.20678   0.00000  Uiso   1.00
H622   H     0.03545   0.27871   0.33464   0.00000  Uiso   1.00
H623   H     0.08217   0.36452   0.28067   0.00000  Uiso   1.00
H624   H     0.04329   0.26443   0.45946   0.00000  Uiso   1.00
H625   H     0.96807   0.21682   0.26741   0.00000  Uiso   1.00
H626   H     0.15418   0.44443   0.21521   0.00000  Uiso   1.00
H627   H     0.07218   0.23337   0.59221   0.00000  Uiso   1.00
H628   H     0.91357   0.13298   0.18723   0.00000  Uiso   1.00
H629   H     0.19106   0.16135   0.29117   0.00000  Uiso   1.00
H630   H     0.24632   0.24072   0.23481   0.00000  Uiso   1.00
H631   H     0.20743   0.14063   0.41361   0.00000  Uiso   1.00
H632   H     0.13222   0.09303   0.22156   0.00000  Uiso   1.00
H633   H     0.28741   0.34396   0.17799   0.00000  Uiso   1.00
H634   H     0.20540   0.13289   0.55499   0.00000  Uiso   1.00
H635   H     0.04680   0.03250   0.15001   0.00000  Uiso   1.00
O636   O     0.25435   0.44853   0.16033   0.00000  Uiso   1.00
O637   O     0.14675   0.17162   0.65493   0.00000  Uiso   1.00
O638   O     0.93867   0.03991   0.12361   0.00000  Uiso   1.00
N639   N     0.17795   0.40989   0.21417   0.00000  Uiso   1.00
N640   N     0.10128   0.21257   0.56664   0.00000  Uiso   1.00
N641   N     0.95299   0.11870   0.18804   0.00000  Uiso   1.00
N642   N     0.24964   0.35582   0.19415   0.00000  Uiso   1.00
N643   N     0.17297   0.15850   0.54662   0.00000  Uiso   1.00
N644   N     0.02468   0.06464   0.16801   0.00000  Uiso   1.00
C645   C     0.92890   0.74818   0.32468   0.00000  Uiso   1.00
C646   C     0.88194   0.71783   0.28932   0.00000  Uiso   1.00
C647   C     0.88238   0.66220   0.27076   0.00000  Uiso   1.00
C648   C     0.83536   0.64229   0.23891   0.00000  Uiso   1.00
C649   C     0.76939   0.58991   0.18598   0.00000  Uiso   1.00
C650   C     0.90306   0.77221   0.38647   0.00000  Uiso   1.00
C651   C     0.92127   0.76230   0.44958   0.00000  Uiso   1.00
C652   C     0.89203   0.78817   0.49951   0.00000  Uiso   1.00
C653   C     0.85888   0.82024   0.59740   0.00000  Uiso   1.00
C654   C     0.94393   0.79807   0.28212   0.00000  Uiso   1.00
C655   C     0.99650   0.80991   0.25750   0.00000  Uiso   1.00
C656   C     0.00167   0.85757   0.21959   0.00000  Uiso   1.00
C657   C     0.03197   0.92980   0.15546   0.00000  Uiso   1.00
C658   C     0.84460   0.81176   0.30113   0.00000  Uiso   1.00
C659   C     0.83615   0.75237   0.27653   0.00000  Uiso   1.00
C660   C     0.78911   0.73254   0.24470   0.00000  Uiso   1.00
C661   C     0.78948   0.67689   0.22609   0.00000  Uiso   1.00
C662   C     0.85727   0.80674   0.37368   0.00000  Uiso   1.00
C663   C     0.82800   0.83264   0.42353   0.00000  Uiso   1.00
C664   C     0.84616   0.82277   0.48670   0.00000  Uiso   1.00
C665   C     0.89814   0.83260   0.26932   0.00000  Uiso   1.00
C666   C     0.90322   0.88026   0.23145   0.00000  Uiso   1.00
C667   C     0.95579   0.89217   0.20678   0.00000  Uiso   1.00
H668   H     0.96455   0.72129   0.33464   0.00000  Uiso   1.00
H669   H     0.91783   0.63548   0.28067   0.00000  Uiso   1.00
H670   H     0.95671   0.73557   0.45946   0.00000  Uiso   1.00
H671   H     0.03193   0.78318   0.26741   0.00000  Uiso   1.00
H672   H     0.84582   0.55557   0.21521   0.00000  Uiso   1.00
H673   H     0.92782   0.76663   0.59221   0.00000  Uiso   1.00
H674   H     0.08643   0.86702   0.18723   0.00000  Uiso   1.00
H675   H     0.80894   0.83865   0.29117   0.00000  Uiso   1.00
H676   H     0.75368   0.75928   0.23481   0.00000  Uiso   1.00
H677   H     0.79257   0.85937   0.41361   0.00000  Uiso   1.00
H678   H     0.86778   0.90697   0.22156   0.00000  Uiso   1.00
H679   H     0.71259   0.65604   0.17799   0.00000  Uiso   1.00
H680   H     0.79460   0.86711   0.55499   0.00000  Uiso   1.00
H681   H     0.95320   0.96750   0.15001   0.00000  Uiso   1.00
O682   O     0.74565   0.55147   0.16033   0.00000  Uiso   1.00
O683   O     0.85325   0.82838   0.65493   0.00000  Uiso   1.00
O684   O     0.06133   0.96009   0.12361   0.00000  Uiso   1.00
N685   N     0.82205   0.59011   0.21417   0.00000  Uiso   1.00
N686   N     0.89872   0.78743   0.56664   0.00000  Uiso   1.00
N687   N     0.04701   0.88130   0.18804   0.00000  Uiso   1.00
N688   N     0.75036   0.64418   0.19415   0.00000  Uiso   1.00
N689   N     0.82703   0.84150   0.54662   0.00000  Uiso   1.00
N690   N     0.97532   0.93536   0.16801   0.00000  Uiso   1.00
C691   C     0.42890   0.24818   0.82468   0.00000  Uiso   1.00
C692   C     0.38194   0.21783   0.78932   0.00000  Uiso   1.00
C693   C     0.38238   0.16220   0.77076   0.00000  Uiso   1.00
C694   C     0.33536   0.14229   0.73891   0.00000  Uiso   1.00
C695   C     0.26939   0.08991   0.68598   0.00000  Uiso   1.00
C696   C     0.40306   0.27221   0.88647   0.00000  Uiso   1.00
C697   C     0.42127   0.26230   0.94958   0.00000  Uiso   1.00
C698   C     0.39203   0.28817   0.99951   0.00000  Uiso   1.00
C699   C     0.35888   0.32024   0.09740   0.00000  Uiso   1.00
C700   C     0.44393   0.29807   0.78212   0.00000  Uiso   1.00
C701   C     0.49650   0.30991   0.75750   0.00000  Uiso   1.00
C702   C     0.50167   0.35757   0.71959   0.00000  Uiso   1.00
C703   C     0.53197   0.42980   0.65546   0.00000  Uiso   1.00
C704   C     0.34460   0.31176   0.80113   0.00000  Uiso   1.00
C705   C     0.33615   0.25237   0.77653   0.00000  Uiso   1.00
C706   C     0.28911   0.23254   0.74470   0.00000  Uiso   1.00
C707   C     0.28948   0.17689   0.72609   0.00000  Uiso   1.00
C708   C     0.35727   0.30674   0.87368   0.00000  Uiso   1.00
C709   C     0.32800   0.33264   0.92353   0.00000  Uiso   1.00
C710   C     0.34616   0.32277   0.98670   0.00000  Uiso   1.00
C711   C     0.39814   0.33260   0.76932   0.00000  Uiso   1.00
C712   C     0.40322   0.38026   0.73145   0.00000  Uiso   1.00
C713   C     0.45579   0.39217   0.70678   0.00000  Uiso   1.00
H714   H     0.46455   0.22129   0.83464   0.00000  Uiso   1.00
H715   H     0.41783   0.13548   0.78067   0.00000  Uiso   1.00
H716   H     0.45671   0.23557   0.95946   0.00000  Uiso   1.00
H717   H     0.53193   0.28318   0.76741   0.00000  Uiso   1.00
H718   H     0.34582   0.05557   0.71521   0.00000  Uiso   1.00
H719   H     0.42782   0.26663   0.09221   0.00000  Uiso   1.00
H720   H     0.58643   0.36702   0.68723   0.00000  Uiso   1.00
H721   H     0.30894   0.33865   0.79117   0.00000  Uiso   1.00
H722   H     0.25368   0.25928   0.73481   0.00000  Uiso   1.00
H723   H     0.29257   0.35937   0.91361   0.00000  Uiso   1.00
H724   H     0.36778   0.40697   0.72156   0.00000  Uiso   1.00
H725   H     0.21259   0.15604   0.67799   0.00000  Uiso   1.00
H726   H     0.29460   0.36711   0.05499   0.00000  Uiso   1.00
H727   H     0.45320   0.46750   0.65001   0.00000  Uiso   1.00
O728   O     0.24565   0.05147   0.66033   0.00000  Uiso   1.00
O729   O     0.35325   0.32838   0.15493   0.00000  Uiso   1.00
O730   O     0.56133   0.46009   0.62361   0.00000  Uiso   1.00
N731   N     0.32205   0.09011   0.71417   0.00000  Uiso   1.00
N732   N     0.39872   0.28743   0.06664   0.00000  Uiso   1.00
N733   N     0.54701   0.38130   0.68804   0.00000  Uiso   1.00
N734   N     0.25036   0.14418   0.69415   0.00000  Uiso   1.00
N735   N     0.32703   0.34150   0.04662   0.00000  Uiso   1.00
N736   N     0.47532   0.43536   0.66801   0.00000  Uiso   1.00
