data_job_02408
_audit_creation_date              2018-12-19
_audit_creation_method            'Materials Studio'
_symmetry_space_group_name_H-M    'P1'
_symmetry_Int_Tables_number       1
_symmetry_cell_setting            triclinic
loop_
_symmetry_equiv_pos_as_xyz
  x,y,z
_cell_length_a                    23.7031
_cell_length_b                    23.7031
_cell_length_c                    17.5985
_cell_angle_alpha                 90.0000
_cell_angle_beta                  90.0000
_cell_angle_gamma                 90.0000
loop_
_atom_site_label
_atom_site_type_symbol
_atom_site_fract_x
_atom_site_fract_y
_atom_site_fract_z
_atom_site_U_iso_or_equiv
_atom_site_adp_type
_atom_site_occupancy
C1     C     0.37320   0.40428   0.29872   0.00000  Uiso   1.00
C2     C     0.41771   0.39627   0.23708   0.00000  Uiso   1.00
C3     C     0.46431   0.43061   0.22530   0.00000  Uiso   1.00
C4     C     0.50005   0.41618   0.16590   0.00000  Uiso   1.00
C5     C     0.57075   0.41093   0.07716   0.00000  Uiso   1.00
C6     C     0.31671   0.40788   0.25752   0.00000  Uiso   1.00
C7     C     0.27840   0.45198   0.26293   0.00000  Uiso   1.00
C8     C     0.22913   0.44732   0.22073   0.00000  Uiso   1.00
C9     C     0.14302   0.46007   0.16376   0.00000  Uiso   1.00
C10    C     0.37187   0.34927   0.34361   0.00000  Uiso   1.00
C11    C     0.37993   0.34408   0.42141   0.00000  Uiso   1.00
C12    C     0.37708   0.29007   0.45170   0.00000  Uiso   1.00
C13    C     0.37662   0.21182   0.52840   0.00000  Uiso   1.00
C14    C     0.35380   0.31758   0.21418   0.00000  Uiso   1.00
C15    C     0.40717   0.34918   0.19117   0.00000  Uiso   1.00
C16    C     0.44285   0.33469   0.13177   0.00000  Uiso   1.00
C17    C     0.48950   0.36900   0.11990   0.00000  Uiso   1.00
C18    C     0.30618   0.36079   0.21160   0.00000  Uiso   1.00
C19    C     0.25694   0.35606   0.16940   0.00000  Uiso   1.00
C20    C     0.21857   0.40014   0.17473   0.00000  Uiso   1.00
C21    C     0.36134   0.30218   0.29769   0.00000  Uiso   1.00
C22    C     0.35847   0.24816   0.32787   0.00000  Uiso   1.00
C23    C     0.36653   0.24290   0.40570   0.00000  Uiso   1.00
H24    H     0.38140   0.44094   0.33446   0.00000  Uiso   1.00
H25    H     0.47245   0.46705   0.26084   0.00000  Uiso   1.00
H26    H     0.28657   0.48841   0.29847   0.00000  Uiso   1.00
H27    H     0.38808   0.38054   0.45692   0.00000  Uiso   1.00
H28    H     0.56874   0.47525   0.15895   0.00000  Uiso   1.00
H29    H     0.17679   0.52028   0.23831   0.00000  Uiso   1.00
H30    H     0.39085   0.29280   0.57244   0.00000  Uiso   1.00
H31    H     0.34559   0.28092   0.17843   0.00000  Uiso   1.00
H32    H     0.43468   0.29825   0.09625   0.00000  Uiso   1.00
H33    H     0.24880   0.31961   0.13387   0.00000  Uiso   1.00
H34    H     0.35032   0.21173   0.29233   0.00000  Uiso   1.00
H35    H     0.53808   0.33824   0.02536   0.00000  Uiso   1.00
H36    H     0.14614   0.38328   0.10472   0.00000  Uiso   1.00
H37    H     0.36020   0.15579   0.43885   0.00000  Uiso   1.00
O38    O     0.61265   0.42104   0.04089   0.00000  Uiso   1.00
O39    O     0.09843   0.48012   0.14502   0.00000  Uiso   1.00
O40    O     0.37928   0.18167   0.58339   0.00000  Uiso   1.00
N41    N     0.54930   0.44062   0.13880   0.00000  Uiso   1.00
N42    N     0.18286   0.48273   0.21299   0.00000  Uiso   1.00
N43    N     0.38298   0.27005   0.52537   0.00000  Uiso   1.00
N44    N     0.53281   0.36690   0.06691   0.00000  Uiso   1.00
N45    N     0.16637   0.40900   0.14110   0.00000  Uiso   1.00
N46    N     0.36648   0.19633   0.45349   0.00000  Uiso   1.00
C47    C     0.87320   0.90428   0.79872   0.00000  Uiso   1.00
C48    C     0.91771   0.89627   0.73708   0.00000  Uiso   1.00
C49    C     0.96431   0.93061   0.72530   0.00000  Uiso   1.00
C50    C     0.00005   0.91618   0.66590   0.00000  Uiso   1.00
C51    C     0.07075   0.91093   0.57716   0.00000  Uiso   1.00
C52    C     0.81671   0.90788   0.75752   0.00000  Uiso   1.00
C53    C     0.77840   0.95198   0.76293   0.00000  Uiso   1.00
C54    C     0.72913   0.94732   0.72073   0.00000  Uiso   1.00
C55    C     0.64302   0.96007   0.66376   0.00000  Uiso   1.00
C56    C     0.87187   0.84927   0.84361   0.00000  Uiso   1.00
C57    C     0.87993   0.84408   0.92141   0.00000  Uiso   1.00
C58    C     0.87708   0.79007   0.95170   0.00000  Uiso   1.00
C59    C     0.87662   0.71182   0.02840   0.00000  Uiso   1.00
C60    C     0.85380   0.81758   0.71418   0.00000  Uiso   1.00
C61    C     0.90717   0.84918   0.69117   0.00000  Uiso   1.00
C62    C     0.94285   0.83469   0.63177   0.00000  Uiso   1.00
C63    C     0.98950   0.86900   0.61990   0.00000  Uiso   1.00
C64    C     0.80618   0.86079   0.71160   0.00000  Uiso   1.00
C65    C     0.75694   0.85606   0.66940   0.00000  Uiso   1.00
C66    C     0.71857   0.90014   0.67473   0.00000  Uiso   1.00
C67    C     0.86134   0.80218   0.79769   0.00000  Uiso   1.00
C68    C     0.85847   0.74816   0.82787   0.00000  Uiso   1.00
C69    C     0.86653   0.74290   0.90570   0.00000  Uiso   1.00
H70    H     0.88140   0.94094   0.83446   0.00000  Uiso   1.00
H71    H     0.97245   0.96705   0.76084   0.00000  Uiso   1.00
H72    H     0.78657   0.98841   0.79847   0.00000  Uiso   1.00
H73    H     0.88808   0.88054   0.95692   0.00000  Uiso   1.00
H74    H     0.06874   0.97525   0.65895   0.00000  Uiso   1.00
H75    H     0.67679   0.02028   0.73831   0.00000  Uiso   1.00
H76    H     0.89085   0.79280   0.07244   0.00000  Uiso   1.00
H77    H     0.84559   0.78092   0.67843   0.00000  Uiso   1.00
H78    H     0.93468   0.79825   0.59625   0.00000  Uiso   1.00
H79    H     0.74880   0.81961   0.63387   0.00000  Uiso   1.00
H80    H     0.85032   0.71173   0.79233   0.00000  Uiso   1.00
H81    H     0.03808   0.83824   0.52536   0.00000  Uiso   1.00
H82    H     0.64614   0.88328   0.60472   0.00000  Uiso   1.00
H83    H     0.86020   0.65579   0.93885   0.00000  Uiso   1.00
O84    O     0.11265   0.92104   0.54089   0.00000  Uiso   1.00
O85    O     0.59843   0.98012   0.64502   0.00000  Uiso   1.00
O86    O     0.87928   0.68167   0.08339   0.00000  Uiso   1.00
N87    N     0.04930   0.94062   0.63880   0.00000  Uiso   1.00
N88    N     0.68286   0.98273   0.71299   0.00000  Uiso   1.00
N89    N     0.88298   0.77005   0.02537   0.00000  Uiso   1.00
N90    N     0.03281   0.86690   0.56691   0.00000  Uiso   1.00
N91    N     0.66637   0.90900   0.64110   0.00000  Uiso   1.00
N92    N     0.86648   0.69633   0.95349   0.00000  Uiso   1.00
C93    C     0.62680   0.59572   0.29872   0.00000  Uiso   1.00
C94    C     0.58229   0.60373   0.23708   0.00000  Uiso   1.00
C95    C     0.53569   0.56939   0.22530   0.00000  Uiso   1.00
C96    C     0.49995   0.58382   0.16590   0.00000  Uiso   1.00
C97    C     0.42925   0.58907   0.07716   0.00000  Uiso   1.00
C98    C     0.68329   0.59212   0.25752   0.00000  Uiso   1.00
C99    C     0.72160   0.54802   0.26293   0.00000  Uiso   1.00
C100   C     0.77087   0.55268   0.22073   0.00000  Uiso   1.00
C101   C     0.85698   0.53993   0.16376   0.00000  Uiso   1.00
C102   C     0.62813   0.65073   0.34361   0.00000  Uiso   1.00
C103   C     0.62007   0.65592   0.42141   0.00000  Uiso   1.00
C104   C     0.62292   0.70993   0.45170   0.00000  Uiso   1.00
C105   C     0.62338   0.78818   0.52840   0.00000  Uiso   1.00
C106   C     0.64620   0.68242   0.21418   0.00000  Uiso   1.00
C107   C     0.59283   0.65082   0.19117   0.00000  Uiso   1.00
C108   C     0.55715   0.66531   0.13177   0.00000  Uiso   1.00
C109   C     0.51050   0.63100   0.11990   0.00000  Uiso   1.00
C110   C     0.69382   0.63921   0.21160   0.00000  Uiso   1.00
C111   C     0.74306   0.64394   0.16940   0.00000  Uiso   1.00
C112   C     0.78143   0.59986   0.17473   0.00000  Uiso   1.00
C113   C     0.63866   0.69782   0.29769   0.00000  Uiso   1.00
C114   C     0.64153   0.75184   0.32787   0.00000  Uiso   1.00
C115   C     0.63347   0.75710   0.40570   0.00000  Uiso   1.00
H116   H     0.61860   0.55906   0.33446   0.00000  Uiso   1.00
H117   H     0.52755   0.53295   0.26084   0.00000  Uiso   1.00
H118   H     0.71343   0.51159   0.29847   0.00000  Uiso   1.00
H119   H     0.61192   0.61946   0.45692   0.00000  Uiso   1.00
H120   H     0.43126   0.52475   0.15895   0.00000  Uiso   1.00
H121   H     0.82321   0.47972   0.23831   0.00000  Uiso   1.00
H122   H     0.60915   0.70720   0.57244   0.00000  Uiso   1.00
H123   H     0.65441   0.71908   0.17843   0.00000  Uiso   1.00
H124   H     0.56532   0.70175   0.09625   0.00000  Uiso   1.00
H125   H     0.75120   0.68039   0.13387   0.00000  Uiso   1.00
H126   H     0.64968   0.78827   0.29233   0.00000  Uiso   1.00
H127   H     0.46192   0.66176   0.02536   0.00000  Uiso   1.00
H128   H     0.85386   0.61672   0.10472   0.00000  Uiso   1.00
H129   H     0.63980   0.84421   0.43885   0.00000  Uiso   1.00
O130   O     0.38735   0.57896   0.04089   0.00000  Uiso   1.00
O131   O     0.90157   0.51988   0.14502   0.00000  Uiso   1.00
O132   O     0.62072   0.81833   0.58339   0.00000  Uiso   1.00
N133   N     0.45070   0.55938   0.13880   0.00000  Uiso   1.00
N134   N     0.81714   0.51727   0.21299   0.00000  Uiso   1.00
N135   N     0.61702   0.72995   0.52537   0.00000  Uiso   1.00
N136   N     0.46719   0.63310   0.06691   0.00000  Uiso   1.00
N137   N     0.83363   0.59100   0.14110   0.00000  Uiso   1.00
N138   N     0.63352   0.80367   0.45349   0.00000  Uiso   1.00
C139   C     0.12680   0.09572   0.79872   0.00000  Uiso   1.00
C140   C     0.08229   0.10373   0.73708   0.00000  Uiso   1.00
C141   C     0.03569   0.06939   0.72530   0.00000  Uiso   1.00
C142   C     0.99995   0.08382   0.66590   0.00000  Uiso   1.00
C143   C     0.92925   0.08907   0.57716   0.00000  Uiso   1.00
C144   C     0.18329   0.09212   0.75752   0.00000  Uiso   1.00
C145   C     0.22160   0.04802   0.76293   0.00000  Uiso   1.00
C146   C     0.27087   0.05268   0.72073   0.00000  Uiso   1.00
C147   C     0.35698   0.03993   0.66376   0.00000  Uiso   1.00
C148   C     0.12813   0.15073   0.84361   0.00000  Uiso   1.00
C149   C     0.12007   0.15592   0.92141   0.00000  Uiso   1.00
C150   C     0.12292   0.20993   0.95170   0.00000  Uiso   1.00
C151   C     0.12338   0.28818   0.02840   0.00000  Uiso   1.00
C152   C     0.14620   0.18242   0.71418   0.00000  Uiso   1.00
C153   C     0.09283   0.15082   0.69117   0.00000  Uiso   1.00
C154   C     0.05715   0.16531   0.63177   0.00000  Uiso   1.00
C155   C     0.01050   0.13100   0.61990   0.00000  Uiso   1.00
C156   C     0.19382   0.13921   0.71160   0.00000  Uiso   1.00
C157   C     0.24306   0.14394   0.66940   0.00000  Uiso   1.00
C158   C     0.28143   0.09986   0.67473   0.00000  Uiso   1.00
C159   C     0.13866   0.19782   0.79769   0.00000  Uiso   1.00
C160   C     0.14153   0.25184   0.82787   0.00000  Uiso   1.00
C161   C     0.13347   0.25710   0.90570   0.00000  Uiso   1.00
H162   H     0.11860   0.05906   0.83446   0.00000  Uiso   1.00
H163   H     0.02755   0.03295   0.76084   0.00000  Uiso   1.00
H164   H     0.21343   0.01159   0.79847   0.00000  Uiso   1.00
H165   H     0.11192   0.11946   0.95692   0.00000  Uiso   1.00
H166   H     0.93126   0.02475   0.65895   0.00000  Uiso   1.00
H167   H     0.32321   0.97972   0.73831   0.00000  Uiso   1.00
H168   H     0.10915   0.20720   0.07244   0.00000  Uiso   1.00
H169   H     0.15441   0.21908   0.67843   0.00000  Uiso   1.00
H170   H     0.06532   0.20175   0.59625   0.00000  Uiso   1.00
H171   H     0.25120   0.18039   0.63387   0.00000  Uiso   1.00
H172   H     0.14968   0.28827   0.79233   0.00000  Uiso   1.00
H173   H     0.96192   0.16176   0.52536   0.00000  Uiso   1.00
H174   H     0.35386   0.11672   0.60472   0.00000  Uiso   1.00
H175   H     0.13980   0.34421   0.93885   0.00000  Uiso   1.00
O176   O     0.88735   0.07896   0.54089   0.00000  Uiso   1.00
O177   O     0.40157   0.01988   0.64502   0.00000  Uiso   1.00
O178   O     0.12072   0.31833   0.08339   0.00000  Uiso   1.00
N179   N     0.95070   0.05938   0.63880   0.00000  Uiso   1.00
N180   N     0.31714   0.01727   0.71299   0.00000  Uiso   1.00
N181   N     0.11702   0.22995   0.02537   0.00000  Uiso   1.00
N182   N     0.96719   0.13310   0.56691   0.00000  Uiso   1.00
N183   N     0.33363   0.09100   0.64110   0.00000  Uiso   1.00
N184   N     0.13352   0.30367   0.95349   0.00000  Uiso   1.00
C185   C     0.40428   0.62680   0.70128   0.00000  Uiso   1.00
C186   C     0.39627   0.58229   0.76292   0.00000  Uiso   1.00
C187   C     0.43061   0.53569   0.77470   0.00000  Uiso   1.00
C188   C     0.41618   0.49995   0.83410   0.00000  Uiso   1.00
C189   C     0.41093   0.42925   0.92284   0.00000  Uiso   1.00
C190   C     0.40788   0.68329   0.74248   0.00000  Uiso   1.00
C191   C     0.45198   0.72160   0.73707   0.00000  Uiso   1.00
C192   C     0.44732   0.77087   0.77927   0.00000  Uiso   1.00
C193   C     0.46007   0.85698   0.83624   0.00000  Uiso   1.00
C194   C     0.34927   0.62813   0.65639   0.00000  Uiso   1.00
C195   C     0.34408   0.62007   0.57859   0.00000  Uiso   1.00
C196   C     0.29007   0.62292   0.54830   0.00000  Uiso   1.00
C197   C     0.21182   0.62338   0.47160   0.00000  Uiso   1.00
C198   C     0.31758   0.64620   0.78582   0.00000  Uiso   1.00
C199   C     0.34918   0.59283   0.80883   0.00000  Uiso   1.00
C200   C     0.33469   0.55715   0.86823   0.00000  Uiso   1.00
C201   C     0.36900   0.51050   0.88010   0.00000  Uiso   1.00
C202   C     0.36079   0.69382   0.78840   0.00000  Uiso   1.00
C203   C     0.35606   0.74306   0.83060   0.00000  Uiso   1.00
C204   C     0.40014   0.78143   0.82527   0.00000  Uiso   1.00
C205   C     0.30218   0.63866   0.70231   0.00000  Uiso   1.00
C206   C     0.24816   0.64153   0.67213   0.00000  Uiso   1.00
C207   C     0.24290   0.63347   0.59430   0.00000  Uiso   1.00
H208   H     0.44094   0.61860   0.66554   0.00000  Uiso   1.00
H209   H     0.46705   0.52755   0.73916   0.00000  Uiso   1.00
H210   H     0.48841   0.71343   0.70153   0.00000  Uiso   1.00
H211   H     0.38054   0.61192   0.54308   0.00000  Uiso   1.00
H212   H     0.47525   0.43126   0.84105   0.00000  Uiso   1.00
H213   H     0.52028   0.82321   0.76169   0.00000  Uiso   1.00
H214   H     0.29280   0.60915   0.42756   0.00000  Uiso   1.00
H215   H     0.28092   0.65441   0.82157   0.00000  Uiso   1.00
H216   H     0.29825   0.56532   0.90375   0.00000  Uiso   1.00
H217   H     0.31961   0.75120   0.86613   0.00000  Uiso   1.00
H218   H     0.21173   0.64968   0.70767   0.00000  Uiso   1.00
H219   H     0.33824   0.46192   0.97464   0.00000  Uiso   1.00
H220   H     0.38328   0.85386   0.89528   0.00000  Uiso   1.00
H221   H     0.15579   0.63980   0.56115   0.00000  Uiso   1.00
O222   O     0.42104   0.38735   0.95911   0.00000  Uiso   1.00
O223   O     0.48012   0.90157   0.85498   0.00000  Uiso   1.00
O224   O     0.18167   0.62072   0.41661   0.00000  Uiso   1.00
N225   N     0.44062   0.45070   0.86120   0.00000  Uiso   1.00
N226   N     0.48273   0.81714   0.78701   0.00000  Uiso   1.00
N227   N     0.27005   0.61702   0.47463   0.00000  Uiso   1.00
N228   N     0.36690   0.46719   0.93309   0.00000  Uiso   1.00
N229   N     0.40900   0.83363   0.85890   0.00000  Uiso   1.00
N230   N     0.19633   0.63352   0.54651   0.00000  Uiso   1.00
C231   C     0.90428   0.12680   0.20128   0.00000  Uiso   1.00
C232   C     0.89627   0.08229   0.26292   0.00000  Uiso   1.00
C233   C     0.93061   0.03569   0.27470   0.00000  Uiso   1.00
C234   C     0.91618   0.99995   0.33410   0.00000  Uiso   1.00
C235   C     0.91093   0.92925   0.42284   0.00000  Uiso   1.00
C236   C     0.90788   0.18329   0.24248   0.00000  Uiso   1.00
C237   C     0.95198   0.22160   0.23707   0.00000  Uiso   1.00
C238   C     0.94732   0.27087   0.27927   0.00000  Uiso   1.00
C239   C     0.96007   0.35698   0.33624   0.00000  Uiso   1.00
C240   C     0.84927   0.12813   0.15639   0.00000  Uiso   1.00
C241   C     0.84408   0.12007   0.07859   0.00000  Uiso   1.00
C242   C     0.79007   0.12292   0.04830   0.00000  Uiso   1.00
C243   C     0.71182   0.12338   0.97160   0.00000  Uiso   1.00
C244   C     0.81758   0.14620   0.28582   0.00000  Uiso   1.00
C245   C     0.84918   0.09283   0.30883   0.00000  Uiso   1.00
C246   C     0.83469   0.05715   0.36823   0.00000  Uiso   1.00
C247   C     0.86900   0.01050   0.38010   0.00000  Uiso   1.00
C248   C     0.86079   0.19382   0.28840   0.00000  Uiso   1.00
C249   C     0.85606   0.24306   0.33060   0.00000  Uiso   1.00
C250   C     0.90014   0.28143   0.32527   0.00000  Uiso   1.00
C251   C     0.80218   0.13866   0.20231   0.00000  Uiso   1.00
C252   C     0.74816   0.14153   0.17213   0.00000  Uiso   1.00
C253   C     0.74290   0.13347   0.09430   0.00000  Uiso   1.00
H254   H     0.94094   0.11860   0.16554   0.00000  Uiso   1.00
H255   H     0.96705   0.02755   0.23916   0.00000  Uiso   1.00
H256   H     0.98841   0.21343   0.20153   0.00000  Uiso   1.00
H257   H     0.88054   0.11192   0.04308   0.00000  Uiso   1.00
H258   H     0.97525   0.93126   0.34105   0.00000  Uiso   1.00
H259   H     0.02028   0.32321   0.26169   0.00000  Uiso   1.00
H260   H     0.79280   0.10915   0.92756   0.00000  Uiso   1.00
H261   H     0.78092   0.15441   0.32157   0.00000  Uiso   1.00
H262   H     0.79825   0.06532   0.40375   0.00000  Uiso   1.00
H263   H     0.81961   0.25120   0.36613   0.00000  Uiso   1.00
H264   H     0.71173   0.14968   0.20767   0.00000  Uiso   1.00
H265   H     0.83824   0.96192   0.47464   0.00000  Uiso   1.00
H266   H     0.88328   0.35386   0.39528   0.00000  Uiso   1.00
H267   H     0.65579   0.13980   0.06115   0.00000  Uiso   1.00
O268   O     0.92104   0.88735   0.45911   0.00000  Uiso   1.00
O269   O     0.98012   0.40157   0.35498   0.00000  Uiso   1.00
O270   O     0.68167   0.12072   0.91661   0.00000  Uiso   1.00
N271   N     0.94062   0.95070   0.36120   0.00000  Uiso   1.00
N272   N     0.98273   0.31714   0.28701   0.00000  Uiso   1.00
N273   N     0.77005   0.11702   0.97463   0.00000  Uiso   1.00
N274   N     0.86690   0.96719   0.43309   0.00000  Uiso   1.00
N275   N     0.90900   0.33363   0.35890   0.00000  Uiso   1.00
N276   N     0.69633   0.13352   0.04651   0.00000  Uiso   1.00
C277   C     0.59572   0.37320   0.70128   0.00000  Uiso   1.00
C278   C     0.60373   0.41771   0.76292   0.00000  Uiso   1.00
C279   C     0.56939   0.46431   0.77470   0.00000  Uiso   1.00
C280   C     0.58382   0.50005   0.83410   0.00000  Uiso   1.00
C281   C     0.58907   0.57075   0.92284   0.00000  Uiso   1.00
C282   C     0.59212   0.31671   0.74248   0.00000  Uiso   1.00
C283   C     0.54802   0.27840   0.73707   0.00000  Uiso   1.00
C284   C     0.55268   0.22913   0.77927   0.00000  Uiso   1.00
C285   C     0.53993   0.14302   0.83624   0.00000  Uiso   1.00
C286   C     0.65073   0.37187   0.65639   0.00000  Uiso   1.00
C287   C     0.65592   0.37993   0.57859   0.00000  Uiso   1.00
C288   C     0.70993   0.37708   0.54830   0.00000  Uiso   1.00
C289   C     0.78818   0.37662   0.47160   0.00000  Uiso   1.00
C290   C     0.68242   0.35380   0.78582   0.00000  Uiso   1.00
C291   C     0.65082   0.40717   0.80883   0.00000  Uiso   1.00
C292   C     0.66531   0.44285   0.86823   0.00000  Uiso   1.00
C293   C     0.63100   0.48950   0.88010   0.00000  Uiso   1.00
C294   C     0.63921   0.30618   0.78840   0.00000  Uiso   1.00
C295   C     0.64394   0.25694   0.83060   0.00000  Uiso   1.00
C296   C     0.59986   0.21857   0.82527   0.00000  Uiso   1.00
C297   C     0.69782   0.36134   0.70231   0.00000  Uiso   1.00
C298   C     0.75184   0.35847   0.67213   0.00000  Uiso   1.00
C299   C     0.75710   0.36653   0.59430   0.00000  Uiso   1.00
H300   H     0.55906   0.38140   0.66554   0.00000  Uiso   1.00
H301   H     0.53295   0.47245   0.73916   0.00000  Uiso   1.00
H302   H     0.51159   0.28657   0.70153   0.00000  Uiso   1.00
H303   H     0.61946   0.38808   0.54308   0.00000  Uiso   1.00
H304   H     0.52475   0.56874   0.84105   0.00000  Uiso   1.00
H305   H     0.47972   0.17679   0.76169   0.00000  Uiso   1.00
H306   H     0.70720   0.39085   0.42756   0.00000  Uiso   1.00
H307   H     0.71908   0.34559   0.82157   0.00000  Uiso   1.00
H308   H     0.70175   0.43468   0.90375   0.00000  Uiso   1.00
H309   H     0.68039   0.24880   0.86613   0.00000  Uiso   1.00
H310   H     0.78827   0.35032   0.70767   0.00000  Uiso   1.00
H311   H     0.66176   0.53808   0.97464   0.00000  Uiso   1.00
H312   H     0.61672   0.14614   0.89528   0.00000  Uiso   1.00
H313   H     0.84421   0.36020   0.56115   0.00000  Uiso   1.00
O314   O     0.57896   0.61265   0.95911   0.00000  Uiso   1.00
O315   O     0.51988   0.09843   0.85498   0.00000  Uiso   1.00
O316   O     0.81833   0.37928   0.41661   0.00000  Uiso   1.00
N317   N     0.55938   0.54930   0.86120   0.00000  Uiso   1.00
N318   N     0.51727   0.18286   0.78701   0.00000  Uiso   1.00
N319   N     0.72995   0.38298   0.47463   0.00000  Uiso   1.00
N320   N     0.63310   0.53281   0.93309   0.00000  Uiso   1.00
N321   N     0.59100   0.16637   0.85890   0.00000  Uiso   1.00
N322   N     0.80367   0.36648   0.54651   0.00000  Uiso   1.00
C323   C     0.09572   0.87320   0.20128   0.00000  Uiso   1.00
C324   C     0.10373   0.91771   0.26292   0.00000  Uiso   1.00
C325   C     0.06939   0.96431   0.27470   0.00000  Uiso   1.00
C326   C     0.08382   0.00005   0.33410   0.00000  Uiso   1.00
C327   C     0.08907   0.07075   0.42284   0.00000  Uiso   1.00
C328   C     0.09212   0.81671   0.24248   0.00000  Uiso   1.00
C329   C     0.04802   0.77840   0.23707   0.00000  Uiso   1.00
C330   C     0.05268   0.72913   0.27927   0.00000  Uiso   1.00
C331   C     0.03993   0.64302   0.33624   0.00000  Uiso   1.00
C332   C     0.15073   0.87187   0.15639   0.00000  Uiso   1.00
C333   C     0.15592   0.87993   0.07859   0.00000  Uiso   1.00
C334   C     0.20993   0.87708   0.04830   0.00000  Uiso   1.00
C335   C     0.28818   0.87662   0.97160   0.00000  Uiso   1.00
C336   C     0.18242   0.85380   0.28582   0.00000  Uiso   1.00
C337   C     0.15082   0.90717   0.30883   0.00000  Uiso   1.00
C338   C     0.16531   0.94285   0.36823   0.00000  Uiso   1.00
C339   C     0.13100   0.98950   0.38010   0.00000  Uiso   1.00
C340   C     0.13921   0.80618   0.28840   0.00000  Uiso   1.00
C341   C     0.14394   0.75694   0.33060   0.00000  Uiso   1.00
C342   C     0.09986   0.71857   0.32527   0.00000  Uiso   1.00
C343   C     0.19782   0.86134   0.20231   0.00000  Uiso   1.00
C344   C     0.25184   0.85847   0.17213   0.00000  Uiso   1.00
C345   C     0.25710   0.86653   0.09430   0.00000  Uiso   1.00
H346   H     0.05906   0.88140   0.16554   0.00000  Uiso   1.00
H347   H     0.03295   0.97245   0.23916   0.00000  Uiso   1.00
H348   H     0.01159   0.78657   0.20153   0.00000  Uiso   1.00
H349   H     0.11946   0.88808   0.04308   0.00000  Uiso   1.00
H350   H     0.02475   0.06874   0.34105   0.00000  Uiso   1.00
H351   H     0.97972   0.67679   0.26169   0.00000  Uiso   1.00
H352   H     0.20720   0.89085   0.92756   0.00000  Uiso   1.00
H353   H     0.21908   0.84559   0.32157   0.00000  Uiso   1.00
H354   H     0.20175   0.93468   0.40375   0.00000  Uiso   1.00
H355   H     0.18039   0.74880   0.36613   0.00000  Uiso   1.00
H356   H     0.28827   0.85032   0.20767   0.00000  Uiso   1.00
H357   H     0.16176   0.03808   0.47464   0.00000  Uiso   1.00
H358   H     0.11672   0.64614   0.39528   0.00000  Uiso   1.00
H359   H     0.34421   0.86020   0.06115   0.00000  Uiso   1.00
O360   O     0.07896   0.11265   0.45911   0.00000  Uiso   1.00
O361   O     0.01988   0.59843   0.35498   0.00000  Uiso   1.00
O362   O     0.31833   0.87928   0.91661   0.00000  Uiso   1.00
N363   N     0.05938   0.04930   0.36120   0.00000  Uiso   1.00
N364   N     0.01727   0.68286   0.28701   0.00000  Uiso   1.00
N365   N     0.22995   0.88298   0.97463   0.00000  Uiso   1.00
N366   N     0.13310   0.03281   0.43309   0.00000  Uiso   1.00
N367   N     0.09100   0.66637   0.35890   0.00000  Uiso   1.00
N368   N     0.30367   0.86648   0.04651   0.00000  Uiso   1.00
C369   C     0.12680   0.40428   0.45128   0.00000  Uiso   1.00
C370   C     0.08229   0.39627   0.51292   0.00000  Uiso   1.00
C371   C     0.03569   0.43061   0.52470   0.00000  Uiso   1.00
C372   C     0.99995   0.41618   0.58410   0.00000  Uiso   1.00
C373   C     0.92925   0.41093   0.67284   0.00000  Uiso   1.00
C374   C     0.18329   0.40788   0.49248   0.00000  Uiso   1.00
C375   C     0.22160   0.45198   0.48707   0.00000  Uiso   1.00
C376   C     0.27087   0.44732   0.52927   0.00000  Uiso   1.00
C377   C     0.35698   0.46007   0.58624   0.00000  Uiso   1.00
C378   C     0.12813   0.34927   0.40639   0.00000  Uiso   1.00
C379   C     0.12007   0.34408   0.32859   0.00000  Uiso   1.00
C380   C     0.12292   0.29007   0.29830   0.00000  Uiso   1.00
C381   C     0.12338   0.21182   0.22160   0.00000  Uiso   1.00
C382   C     0.14620   0.31758   0.53582   0.00000  Uiso   1.00
C383   C     0.09283   0.34918   0.55883   0.00000  Uiso   1.00
C384   C     0.05715   0.33469   0.61823   0.00000  Uiso   1.00
C385   C     0.01050   0.36900   0.63010   0.00000  Uiso   1.00
C386   C     0.19382   0.36079   0.53840   0.00000  Uiso   1.00
C387   C     0.24306   0.35606   0.58060   0.00000  Uiso   1.00
C388   C     0.28143   0.40014   0.57527   0.00000  Uiso   1.00
C389   C     0.13866   0.30218   0.45231   0.00000  Uiso   1.00
C390   C     0.14153   0.24816   0.42213   0.00000  Uiso   1.00
C391   C     0.13347   0.24290   0.34430   0.00000  Uiso   1.00
H392   H     0.11860   0.44094   0.41554   0.00000  Uiso   1.00
H393   H     0.02755   0.46705   0.48916   0.00000  Uiso   1.00
H394   H     0.21343   0.48841   0.45153   0.00000  Uiso   1.00
H395   H     0.11192   0.38054   0.29308   0.00000  Uiso   1.00
H396   H     0.93126   0.47525   0.59105   0.00000  Uiso   1.00
H397   H     0.32321   0.52028   0.51169   0.00000  Uiso   1.00
H398   H     0.10915   0.29280   0.17756   0.00000  Uiso   1.00
H399   H     0.15441   0.28092   0.57157   0.00000  Uiso   1.00
H400   H     0.06532   0.29825   0.65375   0.00000  Uiso   1.00
H401   H     0.25120   0.31961   0.61613   0.00000  Uiso   1.00
H402   H     0.14968   0.21173   0.45767   0.00000  Uiso   1.00
H403   H     0.96192   0.33824   0.72464   0.00000  Uiso   1.00
H404   H     0.35386   0.38328   0.64528   0.00000  Uiso   1.00
H405   H     0.13980   0.15579   0.31115   0.00000  Uiso   1.00
O406   O     0.88735   0.42104   0.70911   0.00000  Uiso   1.00
O407   O     0.40157   0.48012   0.60498   0.00000  Uiso   1.00
O408   O     0.12072   0.18167   0.16661   0.00000  Uiso   1.00
N409   N     0.95070   0.44062   0.61120   0.00000  Uiso   1.00
N410   N     0.31714   0.48273   0.53701   0.00000  Uiso   1.00
N411   N     0.11702   0.27005   0.22463   0.00000  Uiso   1.00
N412   N     0.96719   0.36690   0.68309   0.00000  Uiso   1.00
N413   N     0.33363   0.40900   0.60890   0.00000  Uiso   1.00
N414   N     0.13352   0.19633   0.29651   0.00000  Uiso   1.00
C415   C     0.62680   0.90428   0.95128   0.00000  Uiso   1.00
C416   C     0.58229   0.89627   0.01292   0.00000  Uiso   1.00
C417   C     0.53569   0.93061   0.02470   0.00000  Uiso   1.00
C418   C     0.49995   0.91618   0.08410   0.00000  Uiso   1.00
C419   C     0.42925   0.91093   0.17284   0.00000  Uiso   1.00
C420   C     0.68329   0.90788   0.99248   0.00000  Uiso   1.00
C421   C     0.72160   0.95198   0.98707   0.00000  Uiso   1.00
C422   C     0.77087   0.94732   0.02927   0.00000  Uiso   1.00
C423   C     0.85698   0.96007   0.08624   0.00000  Uiso   1.00
C424   C     0.62813   0.84927   0.90639   0.00000  Uiso   1.00
C425   C     0.62007   0.84408   0.82859   0.00000  Uiso   1.00
C426   C     0.62292   0.79007   0.79830   0.00000  Uiso   1.00
C427   C     0.62338   0.71182   0.72160   0.00000  Uiso   1.00
C428   C     0.64620   0.81758   0.03582   0.00000  Uiso   1.00
C429   C     0.59283   0.84918   0.05883   0.00000  Uiso   1.00
C430   C     0.55715   0.83469   0.11823   0.00000  Uiso   1.00
C431   C     0.51050   0.86900   0.13010   0.00000  Uiso   1.00
C432   C     0.69382   0.86079   0.03840   0.00000  Uiso   1.00
C433   C     0.74306   0.85606   0.08060   0.00000  Uiso   1.00
C434   C     0.78143   0.90014   0.07527   0.00000  Uiso   1.00
C435   C     0.63866   0.80218   0.95231   0.00000  Uiso   1.00
C436   C     0.64153   0.74816   0.92213   0.00000  Uiso   1.00
C437   C     0.63347   0.74290   0.84430   0.00000  Uiso   1.00
H438   H     0.61860   0.94094   0.91554   0.00000  Uiso   1.00
H439   H     0.52755   0.96705   0.98916   0.00000  Uiso   1.00
H440   H     0.71343   0.98841   0.95153   0.00000  Uiso   1.00
H441   H     0.61192   0.88054   0.79308   0.00000  Uiso   1.00
H442   H     0.43126   0.97525   0.09105   0.00000  Uiso   1.00
H443   H     0.82321   0.02028   0.01169   0.00000  Uiso   1.00
H444   H     0.60915   0.79280   0.67756   0.00000  Uiso   1.00
H445   H     0.65441   0.78092   0.07157   0.00000  Uiso   1.00
H446   H     0.56532   0.79825   0.15375   0.00000  Uiso   1.00
H447   H     0.75120   0.81961   0.11613   0.00000  Uiso   1.00
H448   H     0.64968   0.71173   0.95767   0.00000  Uiso   1.00
H449   H     0.46192   0.83824   0.22464   0.00000  Uiso   1.00
H450   H     0.85386   0.88328   0.14528   0.00000  Uiso   1.00
H451   H     0.63980   0.65579   0.81115   0.00000  Uiso   1.00
O452   O     0.38735   0.92104   0.20911   0.00000  Uiso   1.00
O453   O     0.90157   0.98012   0.10498   0.00000  Uiso   1.00
O454   O     0.62072   0.68167   0.66661   0.00000  Uiso   1.00
N455   N     0.45070   0.94062   0.11120   0.00000  Uiso   1.00
N456   N     0.81714   0.98273   0.03701   0.00000  Uiso   1.00
N457   N     0.61702   0.77005   0.72463   0.00000  Uiso   1.00
N458   N     0.46719   0.86690   0.18309   0.00000  Uiso   1.00
N459   N     0.83363   0.90900   0.10890   0.00000  Uiso   1.00
N460   N     0.63352   0.69633   0.79651   0.00000  Uiso   1.00
C461   C     0.87320   0.59572   0.45128   0.00000  Uiso   1.00
C462   C     0.91771   0.60373   0.51292   0.00000  Uiso   1.00
C463   C     0.96431   0.56939   0.52470   0.00000  Uiso   1.00
C464   C     0.00005   0.58382   0.58410   0.00000  Uiso   1.00
C465   C     0.07075   0.58907   0.67284   0.00000  Uiso   1.00
C466   C     0.81671   0.59212   0.49248   0.00000  Uiso   1.00
C467   C     0.77840   0.54802   0.48707   0.00000  Uiso   1.00
C468   C     0.72913   0.55268   0.52927   0.00000  Uiso   1.00
C469   C     0.64302   0.53993   0.58624   0.00000  Uiso   1.00
C470   C     0.87187   0.65073   0.40639   0.00000  Uiso   1.00
C471   C     0.87993   0.65592   0.32859   0.00000  Uiso   1.00
C472   C     0.87708   0.70993   0.29830   0.00000  Uiso   1.00
C473   C     0.87662   0.78818   0.22160   0.00000  Uiso   1.00
C474   C     0.85380   0.68242   0.53582   0.00000  Uiso   1.00
C475   C     0.90717   0.65082   0.55883   0.00000  Uiso   1.00
C476   C     0.94285   0.66531   0.61823   0.00000  Uiso   1.00
C477   C     0.98950   0.63100   0.63010   0.00000  Uiso   1.00
C478   C     0.80618   0.63921   0.53840   0.00000  Uiso   1.00
C479   C     0.75694   0.64394   0.58060   0.00000  Uiso   1.00
C480   C     0.71857   0.59986   0.57527   0.00000  Uiso   1.00
C481   C     0.86134   0.69782   0.45231   0.00000  Uiso   1.00
C482   C     0.85847   0.75184   0.42213   0.00000  Uiso   1.00
C483   C     0.86653   0.75710   0.34430   0.00000  Uiso   1.00
H484   H     0.88140   0.55906   0.41554   0.00000  Uiso   1.00
H485   H     0.97245   0.53295   0.48916   0.00000  Uiso   1.00
H486   H     0.78657   0.51159   0.45153   0.00000  Uiso   1.00
H487   H     0.88808   0.61946   0.29308   0.00000  Uiso   1.00
H488   H     0.06874   0.52475   0.59105   0.00000  Uiso   1.00
H489   H     0.67679   0.47972   0.51169   0.00000  Uiso   1.00
H490   H     0.89085   0.70720   0.17756   0.00000  Uiso   1.00
H491   H     0.84559   0.71908   0.57157   0.00000  Uiso   1.00
H492   H     0.93468   0.70175   0.65375   0.00000  Uiso   1.00
H493   H     0.74880   0.68039   0.61613   0.00000  Uiso   1.00
H494   H     0.85032   0.78827   0.45767   0.00000  Uiso   1.00
H495   H     0.03808   0.66176   0.72464   0.00000  Uiso   1.00
H496   H     0.64614   0.61672   0.64528   0.00000  Uiso   1.00
H497   H     0.86020   0.84421   0.31115   0.00000  Uiso   1.00
O498   O     0.11265   0.57896   0.70911   0.00000  Uiso   1.00
O499   O     0.59843   0.51988   0.60498   0.00000  Uiso   1.00
O500   O     0.87928   0.81833   0.16661   0.00000  Uiso   1.00
N501   N     0.04930   0.55938   0.61120   0.00000  Uiso   1.00
N502   N     0.68286   0.51727   0.53701   0.00000  Uiso   1.00
N503   N     0.88298   0.72995   0.22463   0.00000  Uiso   1.00
N504   N     0.03281   0.63310   0.68309   0.00000  Uiso   1.00
N505   N     0.66637   0.59100   0.60890   0.00000  Uiso   1.00
N506   N     0.86648   0.80367   0.29651   0.00000  Uiso   1.00
C507   C     0.37320   0.09572   0.95128   0.00000  Uiso   1.00
C508   C     0.41771   0.10373   0.01292   0.00000  Uiso   1.00
C509   C     0.46431   0.06939   0.02470   0.00000  Uiso   1.00
C510   C     0.50005   0.08382   0.08410   0.00000  Uiso   1.00
C511   C     0.57075   0.08907   0.17284   0.00000  Uiso   1.00
C512   C     0.31671   0.09212   0.99248   0.00000  Uiso   1.00
C513   C     0.27840   0.04802   0.98707   0.00000  Uiso   1.00
C514   C     0.22913   0.05268   0.02927   0.00000  Uiso   1.00
C515   C     0.14302   0.03993   0.08624   0.00000  Uiso   1.00
C516   C     0.37187   0.15073   0.90639   0.00000  Uiso   1.00
C517   C     0.37993   0.15592   0.82859   0.00000  Uiso   1.00
C518   C     0.37708   0.20993   0.79830   0.00000  Uiso   1.00
C519   C     0.37662   0.28818   0.72160   0.00000  Uiso   1.00
C520   C     0.35380   0.18242   0.03582   0.00000  Uiso   1.00
C521   C     0.40717   0.15082   0.05883   0.00000  Uiso   1.00
C522   C     0.44285   0.16531   0.11823   0.00000  Uiso   1.00
C523   C     0.48950   0.13100   0.13010   0.00000  Uiso   1.00
C524   C     0.30618   0.13921   0.03840   0.00000  Uiso   1.00
C525   C     0.25694   0.14394   0.08060   0.00000  Uiso   1.00
C526   C     0.21857   0.09986   0.07527   0.00000  Uiso   1.00
C527   C     0.36134   0.19782   0.95231   0.00000  Uiso   1.00
C528   C     0.35847   0.25184   0.92213   0.00000  Uiso   1.00
C529   C     0.36653   0.25710   0.84430   0.00000  Uiso   1.00
H530   H     0.38140   0.05906   0.91554   0.00000  Uiso   1.00
H531   H     0.47245   0.03295   0.98916   0.00000  Uiso   1.00
H532   H     0.28657   0.01159   0.95153   0.00000  Uiso   1.00
H533   H     0.38808   0.11946   0.79308   0.00000  Uiso   1.00
H534   H     0.56874   0.02475   0.09105   0.00000  Uiso   1.00
H535   H     0.17679   0.97972   0.01169   0.00000  Uiso   1.00
H536   H     0.39085   0.20720   0.67756   0.00000  Uiso   1.00
H537   H     0.34559   0.21908   0.07157   0.00000  Uiso   1.00
H538   H     0.43468   0.20175   0.15375   0.00000  Uiso   1.00
H539   H     0.24880   0.18039   0.11613   0.00000  Uiso   1.00
H540   H     0.35032   0.28827   0.95767   0.00000  Uiso   1.00
H541   H     0.53808   0.16176   0.22464   0.00000  Uiso   1.00
H542   H     0.14614   0.11672   0.14528   0.00000  Uiso   1.00
H543   H     0.36020   0.34421   0.81115   0.00000  Uiso   1.00
O544   O     0.61265   0.07896   0.20911   0.00000  Uiso   1.00
O545   O     0.09843   0.01988   0.10498   0.00000  Uiso   1.00
O546   O     0.37928   0.31833   0.66661   0.00000  Uiso   1.00
N547   N     0.54930   0.05938   0.11120   0.00000  Uiso   1.00
N548   N     0.18286   0.01727   0.03701   0.00000  Uiso   1.00
N549   N     0.38298   0.22995   0.72463   0.00000  Uiso   1.00
N550   N     0.53281   0.13310   0.18309   0.00000  Uiso   1.00
N551   N     0.16637   0.09100   0.10890   0.00000  Uiso   1.00
N552   N     0.36648   0.30367   0.79651   0.00000  Uiso   1.00
C553   C     0.09572   0.62680   0.04872   0.00000  Uiso   1.00
C554   C     0.10373   0.58229   0.98708   0.00000  Uiso   1.00
C555   C     0.06939   0.53569   0.97530   0.00000  Uiso   1.00
C556   C     0.08382   0.49995   0.91590   0.00000  Uiso   1.00
C557   C     0.08907   0.42925   0.82716   0.00000  Uiso   1.00
C558   C     0.09212   0.68329   0.00752   0.00000  Uiso   1.00
C559   C     0.04802   0.72160   0.01293   0.00000  Uiso   1.00
C560   C     0.05268   0.77087   0.97073   0.00000  Uiso   1.00
C561   C     0.03993   0.85698   0.91376   0.00000  Uiso   1.00
C562   C     0.15073   0.62813   0.09361   0.00000  Uiso   1.00
C563   C     0.15592   0.62007   0.17141   0.00000  Uiso   1.00
C564   C     0.20993   0.62292   0.20170   0.00000  Uiso   1.00
C565   C     0.28818   0.62338   0.27840   0.00000  Uiso   1.00
C566   C     0.18242   0.64620   0.96418   0.00000  Uiso   1.00
C567   C     0.15082   0.59283   0.94117   0.00000  Uiso   1.00
C568   C     0.16531   0.55715   0.88177   0.00000  Uiso   1.00
C569   C     0.13100   0.51050   0.86990   0.00000  Uiso   1.00
C570   C     0.13921   0.69382   0.96160   0.00000  Uiso   1.00
C571   C     0.14394   0.74306   0.91940   0.00000  Uiso   1.00
C572   C     0.09986   0.78143   0.92473   0.00000  Uiso   1.00
C573   C     0.19782   0.63866   0.04769   0.00000  Uiso   1.00
C574   C     0.25184   0.64153   0.07787   0.00000  Uiso   1.00
C575   C     0.25710   0.63347   0.15570   0.00000  Uiso   1.00
H576   H     0.05906   0.61860   0.08446   0.00000  Uiso   1.00
H577   H     0.03295   0.52755   0.01084   0.00000  Uiso   1.00
H578   H     0.01159   0.71343   0.04847   0.00000  Uiso   1.00
H579   H     0.11946   0.61192   0.20692   0.00000  Uiso   1.00
H580   H     0.02475   0.43126   0.90895   0.00000  Uiso   1.00
H581   H     0.97972   0.82321   0.98831   0.00000  Uiso   1.00
H582   H     0.20720   0.60915   0.32244   0.00000  Uiso   1.00
H583   H     0.21908   0.65441   0.92843   0.00000  Uiso   1.00
H584   H     0.20175   0.56532   0.84625   0.00000  Uiso   1.00
H585   H     0.18039   0.75120   0.88387   0.00000  Uiso   1.00
H586   H     0.28827   0.64968   0.04233   0.00000  Uiso   1.00
H587   H     0.16176   0.46192   0.77536   0.00000  Uiso   1.00
H588   H     0.11672   0.85386   0.85472   0.00000  Uiso   1.00
H589   H     0.34421   0.63980   0.18885   0.00000  Uiso   1.00
O590   O     0.07896   0.38735   0.79089   0.00000  Uiso   1.00
O591   O     0.01988   0.90157   0.89502   0.00000  Uiso   1.00
O592   O     0.31833   0.62072   0.33339   0.00000  Uiso   1.00
N593   N     0.05938   0.45070   0.88880   0.00000  Uiso   1.00
N594   N     0.01727   0.81714   0.96299   0.00000  Uiso   1.00
N595   N     0.22995   0.61702   0.27537   0.00000  Uiso   1.00
N596   N     0.13310   0.46719   0.81691   0.00000  Uiso   1.00
N597   N     0.09100   0.83363   0.89110   0.00000  Uiso   1.00
N598   N     0.30367   0.63352   0.20349   0.00000  Uiso   1.00
C599   C     0.59572   0.12680   0.54872   0.00000  Uiso   1.00
C600   C     0.60373   0.08229   0.48708   0.00000  Uiso   1.00
C601   C     0.56939   0.03569   0.47530   0.00000  Uiso   1.00
C602   C     0.58382   0.99995   0.41590   0.00000  Uiso   1.00
C603   C     0.58907   0.92925   0.32716   0.00000  Uiso   1.00
C604   C     0.59212   0.18329   0.50752   0.00000  Uiso   1.00
C605   C     0.54802   0.22160   0.51293   0.00000  Uiso   1.00
C606   C     0.55268   0.27087   0.47073   0.00000  Uiso   1.00
C607   C     0.53993   0.35698   0.41376   0.00000  Uiso   1.00
C608   C     0.65073   0.12813   0.59361   0.00000  Uiso   1.00
C609   C     0.65592   0.12007   0.67141   0.00000  Uiso   1.00
C610   C     0.70993   0.12292   0.70170   0.00000  Uiso   1.00
C611   C     0.78818   0.12338   0.77840   0.00000  Uiso   1.00
C612   C     0.68242   0.14620   0.46418   0.00000  Uiso   1.00
C613   C     0.65082   0.09283   0.44117   0.00000  Uiso   1.00
C614   C     0.66531   0.05715   0.38177   0.00000  Uiso   1.00
C615   C     0.63100   0.01050   0.36990   0.00000  Uiso   1.00
C616   C     0.63921   0.19382   0.46160   0.00000  Uiso   1.00
C617   C     0.64394   0.24306   0.41940   0.00000  Uiso   1.00
C618   C     0.59986   0.28143   0.42473   0.00000  Uiso   1.00
C619   C     0.69782   0.13866   0.54769   0.00000  Uiso   1.00
C620   C     0.75184   0.14153   0.57787   0.00000  Uiso   1.00
C621   C     0.75710   0.13347   0.65570   0.00000  Uiso   1.00
H622   H     0.55906   0.11860   0.58446   0.00000  Uiso   1.00
H623   H     0.53295   0.02755   0.51084   0.00000  Uiso   1.00
H624   H     0.51159   0.21343   0.54847   0.00000  Uiso   1.00
H625   H     0.61946   0.11192   0.70692   0.00000  Uiso   1.00
H626   H     0.52475   0.93126   0.40895   0.00000  Uiso   1.00
H627   H     0.47972   0.32321   0.48831   0.00000  Uiso   1.00
H628   H     0.70720   0.10915   0.82244   0.00000  Uiso   1.00
H629   H     0.71908   0.15441   0.42843   0.00000  Uiso   1.00
H630   H     0.70175   0.06532   0.34625   0.00000  Uiso   1.00
H631   H     0.68039   0.25120   0.38387   0.00000  Uiso   1.00
H632   H     0.78827   0.14968   0.54233   0.00000  Uiso   1.00
H633   H     0.66176   0.96192   0.27536   0.00000  Uiso   1.00
H634   H     0.61672   0.35386   0.35472   0.00000  Uiso   1.00
H635   H     0.84421   0.13980   0.68885   0.00000  Uiso   1.00
O636   O     0.57896   0.88735   0.29089   0.00000  Uiso   1.00
O637   O     0.51988   0.40157   0.39502   0.00000  Uiso   1.00
O638   O     0.81833   0.12072   0.83339   0.00000  Uiso   1.00
N639   N     0.55938   0.95070   0.38880   0.00000  Uiso   1.00
N640   N     0.51727   0.31714   0.46299   0.00000  Uiso   1.00
N641   N     0.72995   0.11702   0.77537   0.00000  Uiso   1.00
N642   N     0.63310   0.96719   0.31691   0.00000  Uiso   1.00
N643   N     0.59100   0.33363   0.39110   0.00000  Uiso   1.00
N644   N     0.80367   0.13352   0.70349   0.00000  Uiso   1.00
C645   C     0.90428   0.37320   0.04872   0.00000  Uiso   1.00
C646   C     0.89627   0.41771   0.98708   0.00000  Uiso   1.00
C647   C     0.93061   0.46431   0.97530   0.00000  Uiso   1.00
C648   C     0.91618   0.50005   0.91590   0.00000  Uiso   1.00
C649   C     0.91093   0.57075   0.82716   0.00000  Uiso   1.00
C650   C     0.90788   0.31671   0.00752   0.00000  Uiso   1.00
C651   C     0.95198   0.27840   0.01293   0.00000  Uiso   1.00
C652   C     0.94732   0.22913   0.97073   0.00000  Uiso   1.00
C653   C     0.96007   0.14302   0.91376   0.00000  Uiso   1.00
C654   C     0.84927   0.37187   0.09361   0.00000  Uiso   1.00
C655   C     0.84408   0.37993   0.17141   0.00000  Uiso   1.00
C656   C     0.79007   0.37708   0.20170   0.00000  Uiso   1.00
C657   C     0.71182   0.37662   0.27840   0.00000  Uiso   1.00
C658   C     0.81758   0.35380   0.96418   0.00000  Uiso   1.00
C659   C     0.84918   0.40717   0.94117   0.00000  Uiso   1.00
C660   C     0.83469   0.44285   0.88177   0.00000  Uiso   1.00
C661   C     0.86900   0.48950   0.86990   0.00000  Uiso   1.00
C662   C     0.86079   0.30618   0.96160   0.00000  Uiso   1.00
C663   C     0.85606   0.25694   0.91940   0.00000  Uiso   1.00
C664   C     0.90014   0.21857   0.92473   0.00000  Uiso   1.00
C665   C     0.80218   0.36134   0.04769   0.00000  Uiso   1.00
C666   C     0.74816   0.35847   0.07787   0.00000  Uiso   1.00
C667   C     0.74290   0.36653   0.15570   0.00000  Uiso   1.00
H668   H     0.94094   0.38140   0.08446   0.00000  Uiso   1.00
H669   H     0.96705   0.47245   0.01084   0.00000  Uiso   1.00
H670   H     0.98841   0.28657   0.04847   0.00000  Uiso   1.00
H671   H     0.88054   0.38808   0.20692   0.00000  Uiso   1.00
H672   H     0.97525   0.56874   0.90895   0.00000  Uiso   1.00
H673   H     0.02028   0.17679   0.98831   0.00000  Uiso   1.00
H674   H     0.79280   0.39085   0.32244   0.00000  Uiso   1.00
H675   H     0.78092   0.34559   0.92843   0.00000  Uiso   1.00
H676   H     0.79825   0.43468   0.84625   0.00000  Uiso   1.00
H677   H     0.81961   0.24880   0.88387   0.00000  Uiso   1.00
H678   H     0.71173   0.35032   0.04233   0.00000  Uiso   1.00
H679   H     0.83824   0.53808   0.77536   0.00000  Uiso   1.00
H680   H     0.88328   0.14614   0.85472   0.00000  Uiso   1.00
H681   H     0.65579   0.36020   0.18885   0.00000  Uiso   1.00
O682   O     0.92104   0.61265   0.79089   0.00000  Uiso   1.00
O683   O     0.98012   0.09843   0.89502   0.00000  Uiso   1.00
O684   O     0.68167   0.37928   0.33339   0.00000  Uiso   1.00
N685   N     0.94062   0.54930   0.88880   0.00000  Uiso   1.00
N686   N     0.98273   0.18286   0.96299   0.00000  Uiso   1.00
N687   N     0.77005   0.38298   0.27537   0.00000  Uiso   1.00
N688   N     0.86690   0.53281   0.81691   0.00000  Uiso   1.00
N689   N     0.90900   0.16637   0.89110   0.00000  Uiso   1.00
N690   N     0.69633   0.36648   0.20349   0.00000  Uiso   1.00
C691   C     0.40428   0.87320   0.54872   0.00000  Uiso   1.00
C692   C     0.39627   0.91771   0.48708   0.00000  Uiso   1.00
C693   C     0.43061   0.96431   0.47530   0.00000  Uiso   1.00
C694   C     0.41618   0.00005   0.41590   0.00000  Uiso   1.00
C695   C     0.41093   0.07075   0.32716   0.00000  Uiso   1.00
C696   C     0.40788   0.81671   0.50752   0.00000  Uiso   1.00
C697   C     0.45198   0.77840   0.51293   0.00000  Uiso   1.00
C698   C     0.44732   0.72913   0.47073   0.00000  Uiso   1.00
C699   C     0.46007   0.64302   0.41376   0.00000  Uiso   1.00
C700   C     0.34927   0.87187   0.59361   0.00000  Uiso   1.00
C701   C     0.34408   0.87993   0.67141   0.00000  Uiso   1.00
C702   C     0.29007   0.87708   0.70170   0.00000  Uiso   1.00
C703   C     0.21182   0.87662   0.77840   0.00000  Uiso   1.00
C704   C     0.31758   0.85380   0.46418   0.00000  Uiso   1.00
C705   C     0.34918   0.90717   0.44117   0.00000  Uiso   1.00
C706   C     0.33469   0.94285   0.38177   0.00000  Uiso   1.00
C707   C     0.36900   0.98950   0.36990   0.00000  Uiso   1.00
C708   C     0.36079   0.80618   0.46160   0.00000  Uiso   1.00
C709   C     0.35606   0.75694   0.41940   0.00000  Uiso   1.00
C710   C     0.40014   0.71857   0.42473   0.00000  Uiso   1.00
C711   C     0.30218   0.86134   0.54769   0.00000  Uiso   1.00
C712   C     0.24816   0.85847   0.57787   0.00000  Uiso   1.00
C713   C     0.24290   0.86653   0.65570   0.00000  Uiso   1.00
H714   H     0.44094   0.88140   0.58446   0.00000  Uiso   1.00
H715   H     0.46705   0.97245   0.51084   0.00000  Uiso   1.00
H716   H     0.48841   0.78657   0.54847   0.00000  Uiso   1.00
H717   H     0.38054   0.88808   0.70692   0.00000  Uiso   1.00
H718   H     0.47525   0.06874   0.40895   0.00000  Uiso   1.00
H719   H     0.52028   0.67679   0.48831   0.00000  Uiso   1.00
H720   H     0.29280   0.89085   0.82244   0.00000  Uiso   1.00
H721   H     0.28092   0.84559   0.42843   0.00000  Uiso   1.00
H722   H     0.29825   0.93468   0.34625   0.00000  Uiso   1.00
H723   H     0.31961   0.74880   0.38387   0.00000  Uiso   1.00
H724   H     0.21173   0.85032   0.54233   0.00000  Uiso   1.00
H725   H     0.33824   0.03808   0.27536   0.00000  Uiso   1.00
H726   H     0.38328   0.64614   0.35472   0.00000  Uiso   1.00
H727   H     0.15579   0.86020   0.68885   0.00000  Uiso   1.00
O728   O     0.42104   0.11265   0.29089   0.00000  Uiso   1.00
O729   O     0.48012   0.59843   0.39502   0.00000  Uiso   1.00
O730   O     0.18167   0.87928   0.83339   0.00000  Uiso   1.00
N731   N     0.44062   0.04930   0.38880   0.00000  Uiso   1.00
N732   N     0.48273   0.68286   0.46299   0.00000  Uiso   1.00
N733   N     0.27005   0.88298   0.77537   0.00000  Uiso   1.00
N734   N     0.36690   0.03281   0.31691   0.00000  Uiso   1.00
N735   N     0.40900   0.66637   0.39110   0.00000  Uiso   1.00
N736   N     0.19633   0.86648   0.70349   0.00000  Uiso   1.00
