data_job_02541
_audit_creation_date              2018-12-19
_audit_creation_method            'Materials Studio'
_symmetry_space_group_name_H-M    'P1'
_symmetry_Int_Tables_number       1
_symmetry_cell_setting            triclinic
loop_
_symmetry_equiv_pos_as_xyz
  x,y,z
_cell_length_a                    28.3967
_cell_length_b                    38.9245
_cell_length_c                    9.8253
_cell_angle_alpha                 90.0000
_cell_angle_beta                  90.0000
_cell_angle_gamma                 90.0000
loop_
_atom_site_label
_atom_site_type_symbol
_atom_site_fract_x
_atom_site_fract_y
_atom_site_fract_z
_atom_site_U_iso_or_equiv
_atom_site_adp_type
_atom_site_occupancy
C1     C     0.16936   0.60129   0.01295   0.00000  Uiso   1.00
C2     C     0.13725   0.57938   0.92385   0.00000  Uiso   1.00
C3     C     0.14209   0.54439   0.90066   0.00000  Uiso   1.00
C4     C     0.10909   0.52904   0.81594   0.00000  Uiso   1.00
C5     C     0.06480   0.49213   0.68656   0.00000  Uiso   1.00
C6     C     0.18731   0.63020   0.92197   0.00000  Uiso   1.00
C7     C     0.23424   0.63795   0.89722   0.00000  Uiso   1.00
C8     C     0.24339   0.66540   0.81092   0.00000  Uiso   1.00
C9     C     0.27682   0.70741   0.67871   0.00000  Uiso   1.00
C10    C     0.13747   0.61826   0.11816   0.00000  Uiso   1.00
C11    C     0.14250   0.61598   0.25837   0.00000  Uiso   1.00
C12    C     0.10968   0.63338   0.33725   0.00000  Uiso   1.00
C13    C     0.06572   0.65685   0.50965   0.00000  Uiso   1.00
C14    C     0.10215   0.63627   0.90372   0.00000  Uiso   1.00
C15    C     0.10074   0.59838   0.86452   0.00000  Uiso   1.00
C16    C     0.06773   0.58308   0.77982   0.00000  Uiso   1.00
C17    C     0.07252   0.54808   0.75651   0.00000  Uiso   1.00
C18    C     0.15081   0.64920   0.86264   0.00000  Uiso   1.00
C19    C     0.15988   0.67665   0.77637   0.00000  Uiso   1.00
C20    C     0.20682   0.68443   0.75149   0.00000  Uiso   1.00
C21    C     0.10096   0.63726   0.05884   0.00000  Uiso   1.00
C22    C     0.06813   0.65467   0.13752   0.00000  Uiso   1.00
C23    C     0.07311   0.65241   0.27782   0.00000  Uiso   1.00
H24    H     0.19778   0.58650   0.05913   0.00000  Uiso   1.00
H25    H     0.17035   0.52969   0.94658   0.00000  Uiso   1.00
H26    H     0.26249   0.62325   0.94315   0.00000  Uiso   1.00
H27    H     0.17075   0.60127   0.30424   0.00000  Uiso   1.00
H28    H     0.12384   0.47509   0.79560   0.00000  Uiso   1.00
H29    H     0.31812   0.67236   0.78840   0.00000  Uiso   1.00
H30    H     0.12468   0.62603   0.54983   0.00000  Uiso   1.00
H31    H     0.07373   0.65106   0.85753   0.00000  Uiso   1.00
H32    H     0.03948   0.59779   0.73392   0.00000  Uiso   1.00
H33    H     0.13163   0.69134   0.73049   0.00000  Uiso   1.00
H34    H     0.03989   0.66937   0.09158   0.00000  Uiso   1.00
H35    H     0.01763   0.53036   0.62299   0.00000  Uiso   1.00
H36    H     0.21191   0.72763   0.61579   0.00000  Uiso   1.00
H37    H     0.01847   0.68130   0.37722   0.00000  Uiso   1.00
O38    O     0.05045   0.46652   0.63158   0.00000  Uiso   1.00
O39    O     0.30534   0.72533   0.62216   0.00000  Uiso   1.00
O40    O     0.05155   0.66454   0.62113   0.00000  Uiso   1.00
N41    N     0.10354   0.49541   0.77196   0.00000  Uiso   1.00
N42    N     0.28518   0.67984   0.76521   0.00000  Uiso   1.00
N43    N     0.10433   0.63653   0.47709   0.00000  Uiso   1.00
N44    N     0.04638   0.52515   0.67908   0.00000  Uiso   1.00
N45    N     0.22803   0.70958   0.67233   0.00000  Uiso   1.00
N46    N     0.04718   0.66627   0.38421   0.00000  Uiso   1.00
C47    C     0.66936   0.10129   0.01295   0.00000  Uiso   1.00
C48    C     0.63725   0.07938   0.92385   0.00000  Uiso   1.00
C49    C     0.64209   0.04439   0.90066   0.00000  Uiso   1.00
C50    C     0.60909   0.02904   0.81594   0.00000  Uiso   1.00
C51    C     0.56480   0.99213   0.68656   0.00000  Uiso   1.00
C52    C     0.68731   0.13020   0.92197   0.00000  Uiso   1.00
C53    C     0.73424   0.13795   0.89722   0.00000  Uiso   1.00
C54    C     0.74339   0.16540   0.81092   0.00000  Uiso   1.00
C55    C     0.77682   0.20741   0.67871   0.00000  Uiso   1.00
C56    C     0.63747   0.11826   0.11816   0.00000  Uiso   1.00
C57    C     0.64250   0.11598   0.25837   0.00000  Uiso   1.00
C58    C     0.60968   0.13338   0.33725   0.00000  Uiso   1.00
C59    C     0.56572   0.15685   0.50965   0.00000  Uiso   1.00
C60    C     0.60215   0.13627   0.90372   0.00000  Uiso   1.00
C61    C     0.60074   0.09838   0.86452   0.00000  Uiso   1.00
C62    C     0.56773   0.08308   0.77982   0.00000  Uiso   1.00
C63    C     0.57252   0.04808   0.75651   0.00000  Uiso   1.00
C64    C     0.65081   0.14920   0.86264   0.00000  Uiso   1.00
C65    C     0.65988   0.17665   0.77637   0.00000  Uiso   1.00
C66    C     0.70682   0.18443   0.75149   0.00000  Uiso   1.00
C67    C     0.60096   0.13726   0.05884   0.00000  Uiso   1.00
C68    C     0.56813   0.15467   0.13752   0.00000  Uiso   1.00
C69    C     0.57311   0.15241   0.27782   0.00000  Uiso   1.00
H70    H     0.69778   0.08650   0.05913   0.00000  Uiso   1.00
H71    H     0.67035   0.02969   0.94658   0.00000  Uiso   1.00
H72    H     0.76249   0.12325   0.94315   0.00000  Uiso   1.00
H73    H     0.67075   0.10127   0.30424   0.00000  Uiso   1.00
H74    H     0.62384   0.97509   0.79560   0.00000  Uiso   1.00
H75    H     0.81812   0.17236   0.78840   0.00000  Uiso   1.00
H76    H     0.62468   0.12603   0.54983   0.00000  Uiso   1.00
H77    H     0.57373   0.15106   0.85753   0.00000  Uiso   1.00
H78    H     0.53948   0.09779   0.73392   0.00000  Uiso   1.00
H79    H     0.63163   0.19134   0.73049   0.00000  Uiso   1.00
H80    H     0.53989   0.16937   0.09158   0.00000  Uiso   1.00
H81    H     0.51763   0.03036   0.62299   0.00000  Uiso   1.00
H82    H     0.71191   0.22763   0.61579   0.00000  Uiso   1.00
H83    H     0.51847   0.18130   0.37722   0.00000  Uiso   1.00
O84    O     0.55045   0.96652   0.63158   0.00000  Uiso   1.00
O85    O     0.80534   0.22533   0.62216   0.00000  Uiso   1.00
O86    O     0.55155   0.16454   0.62113   0.00000  Uiso   1.00
N87    N     0.60354   0.99541   0.77196   0.00000  Uiso   1.00
N88    N     0.78518   0.17984   0.76521   0.00000  Uiso   1.00
N89    N     0.60433   0.13653   0.47709   0.00000  Uiso   1.00
N90    N     0.54638   0.02515   0.67908   0.00000  Uiso   1.00
N91    N     0.72803   0.20958   0.67233   0.00000  Uiso   1.00
N92    N     0.54718   0.16627   0.38421   0.00000  Uiso   1.00
C93    C     0.33064   0.89871   0.01295   0.00000  Uiso   1.00
C94    C     0.36275   0.92062   0.92385   0.00000  Uiso   1.00
C95    C     0.35791   0.95561   0.90066   0.00000  Uiso   1.00
C96    C     0.39091   0.97096   0.81594   0.00000  Uiso   1.00
C97    C     0.43520   0.00787   0.68656   0.00000  Uiso   1.00
C98    C     0.31269   0.86980   0.92197   0.00000  Uiso   1.00
C99    C     0.26576   0.86205   0.89722   0.00000  Uiso   1.00
C100   C     0.25661   0.83460   0.81092   0.00000  Uiso   1.00
C101   C     0.22318   0.79259   0.67871   0.00000  Uiso   1.00
C102   C     0.36253   0.88174   0.11816   0.00000  Uiso   1.00
C103   C     0.35750   0.88402   0.25837   0.00000  Uiso   1.00
C104   C     0.39032   0.86662   0.33725   0.00000  Uiso   1.00
C105   C     0.43428   0.84315   0.50965   0.00000  Uiso   1.00
C106   C     0.39785   0.86373   0.90372   0.00000  Uiso   1.00
C107   C     0.39926   0.90162   0.86452   0.00000  Uiso   1.00
C108   C     0.43227   0.91692   0.77982   0.00000  Uiso   1.00
C109   C     0.42748   0.95192   0.75651   0.00000  Uiso   1.00
C110   C     0.34919   0.85080   0.86264   0.00000  Uiso   1.00
C111   C     0.34012   0.82335   0.77637   0.00000  Uiso   1.00
C112   C     0.29318   0.81557   0.75149   0.00000  Uiso   1.00
C113   C     0.39904   0.86274   0.05884   0.00000  Uiso   1.00
C114   C     0.43187   0.84533   0.13752   0.00000  Uiso   1.00
C115   C     0.42689   0.84759   0.27782   0.00000  Uiso   1.00
H116   H     0.30222   0.91350   0.05913   0.00000  Uiso   1.00
H117   H     0.32965   0.97031   0.94658   0.00000  Uiso   1.00
H118   H     0.23751   0.87675   0.94315   0.00000  Uiso   1.00
H119   H     0.32925   0.89873   0.30424   0.00000  Uiso   1.00
H120   H     0.37616   0.02491   0.79560   0.00000  Uiso   1.00
H121   H     0.18188   0.82764   0.78840   0.00000  Uiso   1.00
H122   H     0.37532   0.87397   0.54983   0.00000  Uiso   1.00
H123   H     0.42627   0.84894   0.85753   0.00000  Uiso   1.00
H124   H     0.46052   0.90221   0.73392   0.00000  Uiso   1.00
H125   H     0.36837   0.80866   0.73049   0.00000  Uiso   1.00
H126   H     0.46011   0.83063   0.09158   0.00000  Uiso   1.00
H127   H     0.48237   0.96964   0.62299   0.00000  Uiso   1.00
H128   H     0.28809   0.77237   0.61579   0.00000  Uiso   1.00
H129   H     0.48153   0.81870   0.37722   0.00000  Uiso   1.00
O130   O     0.44955   0.03348   0.63158   0.00000  Uiso   1.00
O131   O     0.19466   0.77467   0.62216   0.00000  Uiso   1.00
O132   O     0.44845   0.83546   0.62113   0.00000  Uiso   1.00
N133   N     0.39646   0.00459   0.77196   0.00000  Uiso   1.00
N134   N     0.21482   0.82016   0.76521   0.00000  Uiso   1.00
N135   N     0.39567   0.86347   0.47709   0.00000  Uiso   1.00
N136   N     0.45362   0.97485   0.67908   0.00000  Uiso   1.00
N137   N     0.27197   0.79042   0.67233   0.00000  Uiso   1.00
N138   N     0.45282   0.83373   0.38421   0.00000  Uiso   1.00
C139   C     0.83064   0.39871   0.01295   0.00000  Uiso   1.00
C140   C     0.86275   0.42062   0.92385   0.00000  Uiso   1.00
C141   C     0.85791   0.45561   0.90066   0.00000  Uiso   1.00
C142   C     0.89091   0.47096   0.81594   0.00000  Uiso   1.00
C143   C     0.93520   0.50787   0.68656   0.00000  Uiso   1.00
C144   C     0.81269   0.36980   0.92197   0.00000  Uiso   1.00
C145   C     0.76576   0.36205   0.89722   0.00000  Uiso   1.00
C146   C     0.75661   0.33460   0.81092   0.00000  Uiso   1.00
C147   C     0.72318   0.29259   0.67871   0.00000  Uiso   1.00
C148   C     0.86253   0.38174   0.11816   0.00000  Uiso   1.00
C149   C     0.85750   0.38402   0.25837   0.00000  Uiso   1.00
C150   C     0.89032   0.36662   0.33725   0.00000  Uiso   1.00
C151   C     0.93428   0.34315   0.50965   0.00000  Uiso   1.00
C152   C     0.89785   0.36373   0.90372   0.00000  Uiso   1.00
C153   C     0.89926   0.40162   0.86452   0.00000  Uiso   1.00
C154   C     0.93227   0.41692   0.77982   0.00000  Uiso   1.00
C155   C     0.92748   0.45192   0.75651   0.00000  Uiso   1.00
C156   C     0.84919   0.35080   0.86264   0.00000  Uiso   1.00
C157   C     0.84012   0.32335   0.77637   0.00000  Uiso   1.00
C158   C     0.79318   0.31557   0.75149   0.00000  Uiso   1.00
C159   C     0.89904   0.36274   0.05884   0.00000  Uiso   1.00
C160   C     0.93187   0.34533   0.13752   0.00000  Uiso   1.00
C161   C     0.92689   0.34759   0.27782   0.00000  Uiso   1.00
H162   H     0.80222   0.41350   0.05913   0.00000  Uiso   1.00
H163   H     0.82965   0.47031   0.94658   0.00000  Uiso   1.00
H164   H     0.73751   0.37675   0.94315   0.00000  Uiso   1.00
H165   H     0.82925   0.39873   0.30424   0.00000  Uiso   1.00
H166   H     0.87616   0.52491   0.79560   0.00000  Uiso   1.00
H167   H     0.68188   0.32764   0.78840   0.00000  Uiso   1.00
H168   H     0.87532   0.37397   0.54983   0.00000  Uiso   1.00
H169   H     0.92627   0.34894   0.85753   0.00000  Uiso   1.00
H170   H     0.96052   0.40221   0.73392   0.00000  Uiso   1.00
H171   H     0.86837   0.30866   0.73049   0.00000  Uiso   1.00
H172   H     0.96011   0.33063   0.09158   0.00000  Uiso   1.00
H173   H     0.98237   0.46964   0.62299   0.00000  Uiso   1.00
H174   H     0.78809   0.27237   0.61579   0.00000  Uiso   1.00
H175   H     0.98153   0.31870   0.37722   0.00000  Uiso   1.00
O176   O     0.94955   0.53348   0.63158   0.00000  Uiso   1.00
O177   O     0.69466   0.27467   0.62216   0.00000  Uiso   1.00
O178   O     0.94845   0.33546   0.62113   0.00000  Uiso   1.00
N179   N     0.89646   0.50459   0.77196   0.00000  Uiso   1.00
N180   N     0.71482   0.32016   0.76521   0.00000  Uiso   1.00
N181   N     0.89567   0.36347   0.47709   0.00000  Uiso   1.00
N182   N     0.95362   0.47485   0.67908   0.00000  Uiso   1.00
N183   N     0.77197   0.29042   0.67233   0.00000  Uiso   1.00
N184   N     0.95282   0.33373   0.38421   0.00000  Uiso   1.00
C185   C     0.83064   0.60129   0.98705   0.00000  Uiso   1.00
C186   C     0.86275   0.57938   0.07615   0.00000  Uiso   1.00
C187   C     0.85791   0.54439   0.09934   0.00000  Uiso   1.00
C188   C     0.89091   0.52904   0.18406   0.00000  Uiso   1.00
C189   C     0.93520   0.49213   0.31344   0.00000  Uiso   1.00
C190   C     0.81269   0.63020   0.07803   0.00000  Uiso   1.00
C191   C     0.76576   0.63795   0.10278   0.00000  Uiso   1.00
C192   C     0.75661   0.66540   0.18908   0.00000  Uiso   1.00
C193   C     0.72318   0.70741   0.32129   0.00000  Uiso   1.00
C194   C     0.86253   0.61826   0.88184   0.00000  Uiso   1.00
C195   C     0.85750   0.61598   0.74163   0.00000  Uiso   1.00
C196   C     0.89032   0.63338   0.66275   0.00000  Uiso   1.00
C197   C     0.93428   0.65685   0.49035   0.00000  Uiso   1.00
C198   C     0.89785   0.63627   0.09628   0.00000  Uiso   1.00
C199   C     0.89926   0.59838   0.13548   0.00000  Uiso   1.00
C200   C     0.93227   0.58308   0.22018   0.00000  Uiso   1.00
C201   C     0.92748   0.54808   0.24349   0.00000  Uiso   1.00
C202   C     0.84919   0.64920   0.13736   0.00000  Uiso   1.00
C203   C     0.84012   0.67665   0.22363   0.00000  Uiso   1.00
C204   C     0.79318   0.68443   0.24851   0.00000  Uiso   1.00
C205   C     0.89904   0.63726   0.94116   0.00000  Uiso   1.00
C206   C     0.93187   0.65467   0.86248   0.00000  Uiso   1.00
C207   C     0.92689   0.65241   0.72218   0.00000  Uiso   1.00
H208   H     0.80222   0.58650   0.94087   0.00000  Uiso   1.00
H209   H     0.82965   0.52969   0.05342   0.00000  Uiso   1.00
H210   H     0.73751   0.62325   0.05685   0.00000  Uiso   1.00
H211   H     0.82925   0.60127   0.69576   0.00000  Uiso   1.00
H212   H     0.87616   0.47509   0.20440   0.00000  Uiso   1.00
H213   H     0.68188   0.67236   0.21160   0.00000  Uiso   1.00
H214   H     0.87532   0.62603   0.45017   0.00000  Uiso   1.00
H215   H     0.92627   0.65106   0.14247   0.00000  Uiso   1.00
H216   H     0.96052   0.59779   0.26608   0.00000  Uiso   1.00
H217   H     0.86837   0.69134   0.26951   0.00000  Uiso   1.00
H218   H     0.96011   0.66937   0.90842   0.00000  Uiso   1.00
H219   H     0.98237   0.53036   0.37701   0.00000  Uiso   1.00
H220   H     0.78809   0.72763   0.38421   0.00000  Uiso   1.00
H221   H     0.98153   0.68130   0.62278   0.00000  Uiso   1.00
O222   O     0.94955   0.46652   0.36842   0.00000  Uiso   1.00
O223   O     0.69466   0.72533   0.37784   0.00000  Uiso   1.00
O224   O     0.94845   0.66454   0.37887   0.00000  Uiso   1.00
N225   N     0.89646   0.49541   0.22804   0.00000  Uiso   1.00
N226   N     0.71482   0.67984   0.23479   0.00000  Uiso   1.00
N227   N     0.89567   0.63653   0.52291   0.00000  Uiso   1.00
N228   N     0.95362   0.52515   0.32092   0.00000  Uiso   1.00
N229   N     0.77197   0.70958   0.32767   0.00000  Uiso   1.00
N230   N     0.95282   0.66627   0.61579   0.00000  Uiso   1.00
C231   C     0.33064   0.10129   0.98705   0.00000  Uiso   1.00
C232   C     0.36275   0.07938   0.07615   0.00000  Uiso   1.00
C233   C     0.35791   0.04439   0.09934   0.00000  Uiso   1.00
C234   C     0.39091   0.02904   0.18406   0.00000  Uiso   1.00
C235   C     0.43520   0.99213   0.31344   0.00000  Uiso   1.00
C236   C     0.31269   0.13020   0.07803   0.00000  Uiso   1.00
C237   C     0.26576   0.13795   0.10278   0.00000  Uiso   1.00
C238   C     0.25661   0.16540   0.18908   0.00000  Uiso   1.00
C239   C     0.22318   0.20741   0.32129   0.00000  Uiso   1.00
C240   C     0.36253   0.11826   0.88184   0.00000  Uiso   1.00
C241   C     0.35750   0.11598   0.74163   0.00000  Uiso   1.00
C242   C     0.39032   0.13338   0.66275   0.00000  Uiso   1.00
C243   C     0.43428   0.15685   0.49035   0.00000  Uiso   1.00
C244   C     0.39785   0.13627   0.09628   0.00000  Uiso   1.00
C245   C     0.39926   0.09838   0.13548   0.00000  Uiso   1.00
C246   C     0.43227   0.08308   0.22018   0.00000  Uiso   1.00
C247   C     0.42748   0.04808   0.24349   0.00000  Uiso   1.00
C248   C     0.34919   0.14920   0.13736   0.00000  Uiso   1.00
C249   C     0.34012   0.17665   0.22363   0.00000  Uiso   1.00
C250   C     0.29318   0.18443   0.24851   0.00000  Uiso   1.00
C251   C     0.39904   0.13726   0.94116   0.00000  Uiso   1.00
C252   C     0.43187   0.15467   0.86248   0.00000  Uiso   1.00
C253   C     0.42689   0.15241   0.72218   0.00000  Uiso   1.00
H254   H     0.30222   0.08650   0.94087   0.00000  Uiso   1.00
H255   H     0.32965   0.02969   0.05342   0.00000  Uiso   1.00
H256   H     0.23751   0.12325   0.05685   0.00000  Uiso   1.00
H257   H     0.32925   0.10127   0.69576   0.00000  Uiso   1.00
H258   H     0.37616   0.97509   0.20440   0.00000  Uiso   1.00
H259   H     0.18188   0.17236   0.21160   0.00000  Uiso   1.00
H260   H     0.37532   0.12603   0.45017   0.00000  Uiso   1.00
H261   H     0.42627   0.15106   0.14247   0.00000  Uiso   1.00
H262   H     0.46052   0.09779   0.26608   0.00000  Uiso   1.00
H263   H     0.36837   0.19134   0.26951   0.00000  Uiso   1.00
H264   H     0.46011   0.16937   0.90842   0.00000  Uiso   1.00
H265   H     0.48237   0.03036   0.37701   0.00000  Uiso   1.00
H266   H     0.28809   0.22763   0.38421   0.00000  Uiso   1.00
H267   H     0.48153   0.18130   0.62278   0.00000  Uiso   1.00
O268   O     0.44955   0.96652   0.36842   0.00000  Uiso   1.00
O269   O     0.19466   0.22533   0.37784   0.00000  Uiso   1.00
O270   O     0.44845   0.16454   0.37887   0.00000  Uiso   1.00
N271   N     0.39646   0.99541   0.22804   0.00000  Uiso   1.00
N272   N     0.21482   0.17984   0.23479   0.00000  Uiso   1.00
N273   N     0.39567   0.13653   0.52291   0.00000  Uiso   1.00
N274   N     0.45362   0.02515   0.32092   0.00000  Uiso   1.00
N275   N     0.27197   0.20958   0.32767   0.00000  Uiso   1.00
N276   N     0.45282   0.16627   0.61579   0.00000  Uiso   1.00
C277   C     0.66936   0.89871   0.98705   0.00000  Uiso   1.00
C278   C     0.63725   0.92062   0.07615   0.00000  Uiso   1.00
C279   C     0.64209   0.95561   0.09934   0.00000  Uiso   1.00
C280   C     0.60909   0.97096   0.18406   0.00000  Uiso   1.00
C281   C     0.56480   0.00787   0.31344   0.00000  Uiso   1.00
C282   C     0.68731   0.86980   0.07803   0.00000  Uiso   1.00
C283   C     0.73424   0.86205   0.10278   0.00000  Uiso   1.00
C284   C     0.74339   0.83460   0.18908   0.00000  Uiso   1.00
C285   C     0.77682   0.79259   0.32129   0.00000  Uiso   1.00
C286   C     0.63747   0.88174   0.88184   0.00000  Uiso   1.00
C287   C     0.64250   0.88402   0.74163   0.00000  Uiso   1.00
C288   C     0.60968   0.86662   0.66275   0.00000  Uiso   1.00
C289   C     0.56572   0.84315   0.49035   0.00000  Uiso   1.00
C290   C     0.60215   0.86373   0.09628   0.00000  Uiso   1.00
C291   C     0.60074   0.90162   0.13548   0.00000  Uiso   1.00
C292   C     0.56773   0.91692   0.22018   0.00000  Uiso   1.00
C293   C     0.57252   0.95192   0.24349   0.00000  Uiso   1.00
C294   C     0.65081   0.85080   0.13736   0.00000  Uiso   1.00
C295   C     0.65988   0.82335   0.22363   0.00000  Uiso   1.00
C296   C     0.70682   0.81557   0.24851   0.00000  Uiso   1.00
C297   C     0.60096   0.86274   0.94116   0.00000  Uiso   1.00
C298   C     0.56813   0.84533   0.86248   0.00000  Uiso   1.00
C299   C     0.57311   0.84759   0.72218   0.00000  Uiso   1.00
H300   H     0.69778   0.91350   0.94087   0.00000  Uiso   1.00
H301   H     0.67035   0.97031   0.05342   0.00000  Uiso   1.00
H302   H     0.76249   0.87675   0.05685   0.00000  Uiso   1.00
H303   H     0.67075   0.89873   0.69576   0.00000  Uiso   1.00
H304   H     0.62384   0.02491   0.20440   0.00000  Uiso   1.00
H305   H     0.81812   0.82764   0.21160   0.00000  Uiso   1.00
H306   H     0.62468   0.87397   0.45017   0.00000  Uiso   1.00
H307   H     0.57373   0.84894   0.14247   0.00000  Uiso   1.00
H308   H     0.53948   0.90221   0.26608   0.00000  Uiso   1.00
H309   H     0.63163   0.80866   0.26951   0.00000  Uiso   1.00
H310   H     0.53989   0.83063   0.90842   0.00000  Uiso   1.00
H311   H     0.51763   0.96964   0.37701   0.00000  Uiso   1.00
H312   H     0.71191   0.77237   0.38421   0.00000  Uiso   1.00
H313   H     0.51847   0.81870   0.62278   0.00000  Uiso   1.00
O314   O     0.55045   0.03348   0.36842   0.00000  Uiso   1.00
O315   O     0.80534   0.77467   0.37784   0.00000  Uiso   1.00
O316   O     0.55155   0.83546   0.37887   0.00000  Uiso   1.00
N317   N     0.60354   0.00459   0.22804   0.00000  Uiso   1.00
N318   N     0.78518   0.82016   0.23479   0.00000  Uiso   1.00
N319   N     0.60433   0.86347   0.52291   0.00000  Uiso   1.00
N320   N     0.54638   0.97485   0.32092   0.00000  Uiso   1.00
N321   N     0.72803   0.79042   0.32767   0.00000  Uiso   1.00
N322   N     0.54718   0.83373   0.61579   0.00000  Uiso   1.00
C323   C     0.16936   0.39871   0.98705   0.00000  Uiso   1.00
C324   C     0.13725   0.42062   0.07615   0.00000  Uiso   1.00
C325   C     0.14209   0.45561   0.09934   0.00000  Uiso   1.00
C326   C     0.10909   0.47096   0.18406   0.00000  Uiso   1.00
C327   C     0.06480   0.50787   0.31344   0.00000  Uiso   1.00
C328   C     0.18731   0.36980   0.07803   0.00000  Uiso   1.00
C329   C     0.23424   0.36205   0.10278   0.00000  Uiso   1.00
C330   C     0.24339   0.33460   0.18908   0.00000  Uiso   1.00
C331   C     0.27682   0.29259   0.32129   0.00000  Uiso   1.00
C332   C     0.13747   0.38174   0.88184   0.00000  Uiso   1.00
C333   C     0.14250   0.38402   0.74163   0.00000  Uiso   1.00
C334   C     0.10968   0.36662   0.66275   0.00000  Uiso   1.00
C335   C     0.06572   0.34315   0.49035   0.00000  Uiso   1.00
C336   C     0.10215   0.36373   0.09628   0.00000  Uiso   1.00
C337   C     0.10074   0.40162   0.13548   0.00000  Uiso   1.00
C338   C     0.06773   0.41692   0.22018   0.00000  Uiso   1.00
C339   C     0.07252   0.45192   0.24349   0.00000  Uiso   1.00
C340   C     0.15081   0.35080   0.13736   0.00000  Uiso   1.00
C341   C     0.15988   0.32335   0.22363   0.00000  Uiso   1.00
C342   C     0.20682   0.31557   0.24851   0.00000  Uiso   1.00
C343   C     0.10096   0.36274   0.94116   0.00000  Uiso   1.00
C344   C     0.06813   0.34533   0.86248   0.00000  Uiso   1.00
C345   C     0.07311   0.34759   0.72218   0.00000  Uiso   1.00
H346   H     0.19778   0.41350   0.94087   0.00000  Uiso   1.00
H347   H     0.17035   0.47031   0.05342   0.00000  Uiso   1.00
H348   H     0.26249   0.37675   0.05685   0.00000  Uiso   1.00
H349   H     0.17075   0.39873   0.69576   0.00000  Uiso   1.00
H350   H     0.12384   0.52491   0.20440   0.00000  Uiso   1.00
H351   H     0.31812   0.32764   0.21160   0.00000  Uiso   1.00
H352   H     0.12468   0.37397   0.45017   0.00000  Uiso   1.00
H353   H     0.07373   0.34894   0.14247   0.00000  Uiso   1.00
H354   H     0.03948   0.40221   0.26608   0.00000  Uiso   1.00
H355   H     0.13163   0.30866   0.26951   0.00000  Uiso   1.00
H356   H     0.03989   0.33063   0.90842   0.00000  Uiso   1.00
H357   H     0.01763   0.46964   0.37701   0.00000  Uiso   1.00
H358   H     0.21191   0.27237   0.38421   0.00000  Uiso   1.00
H359   H     0.01847   0.31870   0.62278   0.00000  Uiso   1.00
O360   O     0.05045   0.53348   0.36842   0.00000  Uiso   1.00
O361   O     0.30534   0.27467   0.37784   0.00000  Uiso   1.00
O362   O     0.05155   0.33546   0.37887   0.00000  Uiso   1.00
N363   N     0.10354   0.50459   0.22804   0.00000  Uiso   1.00
N364   N     0.28518   0.32016   0.23479   0.00000  Uiso   1.00
N365   N     0.10433   0.36347   0.52291   0.00000  Uiso   1.00
N366   N     0.04638   0.47485   0.32092   0.00000  Uiso   1.00
N367   N     0.22803   0.29042   0.32767   0.00000  Uiso   1.00
N368   N     0.04718   0.33373   0.61579   0.00000  Uiso   1.00
C369   C     0.83064   0.89871   0.48705   0.00000  Uiso   1.00
C370   C     0.86275   0.92062   0.57615   0.00000  Uiso   1.00
C371   C     0.85791   0.95561   0.59934   0.00000  Uiso   1.00
C372   C     0.89091   0.97096   0.68406   0.00000  Uiso   1.00
C373   C     0.93520   0.00787   0.81344   0.00000  Uiso   1.00
C374   C     0.81269   0.86980   0.57803   0.00000  Uiso   1.00
C375   C     0.76576   0.86205   0.60278   0.00000  Uiso   1.00
C376   C     0.75661   0.83460   0.68908   0.00000  Uiso   1.00
C377   C     0.72318   0.79259   0.82129   0.00000  Uiso   1.00
C378   C     0.86253   0.88174   0.38184   0.00000  Uiso   1.00
C379   C     0.85750   0.88402   0.24163   0.00000  Uiso   1.00
C380   C     0.89032   0.86662   0.16275   0.00000  Uiso   1.00
C381   C     0.93428   0.84315   0.99035   0.00000  Uiso   1.00
C382   C     0.89785   0.86373   0.59628   0.00000  Uiso   1.00
C383   C     0.89926   0.90162   0.63548   0.00000  Uiso   1.00
C384   C     0.93227   0.91692   0.72018   0.00000  Uiso   1.00
C385   C     0.92748   0.95192   0.74349   0.00000  Uiso   1.00
C386   C     0.84919   0.85080   0.63736   0.00000  Uiso   1.00
C387   C     0.84012   0.82335   0.72363   0.00000  Uiso   1.00
C388   C     0.79318   0.81557   0.74851   0.00000  Uiso   1.00
C389   C     0.89904   0.86274   0.44116   0.00000  Uiso   1.00
C390   C     0.93187   0.84533   0.36248   0.00000  Uiso   1.00
C391   C     0.92689   0.84759   0.22218   0.00000  Uiso   1.00
H392   H     0.80222   0.91350   0.44087   0.00000  Uiso   1.00
H393   H     0.82965   0.97031   0.55342   0.00000  Uiso   1.00
H394   H     0.73751   0.87675   0.55685   0.00000  Uiso   1.00
H395   H     0.82925   0.89873   0.19576   0.00000  Uiso   1.00
H396   H     0.87616   0.02491   0.70440   0.00000  Uiso   1.00
H397   H     0.68188   0.82764   0.71160   0.00000  Uiso   1.00
H398   H     0.87532   0.87397   0.95017   0.00000  Uiso   1.00
H399   H     0.92627   0.84894   0.64247   0.00000  Uiso   1.00
H400   H     0.96052   0.90221   0.76608   0.00000  Uiso   1.00
H401   H     0.86837   0.80866   0.76951   0.00000  Uiso   1.00
H402   H     0.96011   0.83063   0.40842   0.00000  Uiso   1.00
H403   H     0.98237   0.96964   0.87701   0.00000  Uiso   1.00
H404   H     0.78809   0.77237   0.88421   0.00000  Uiso   1.00
H405   H     0.98153   0.81870   0.12278   0.00000  Uiso   1.00
O406   O     0.94955   0.03348   0.86842   0.00000  Uiso   1.00
O407   O     0.69466   0.77467   0.87784   0.00000  Uiso   1.00
O408   O     0.94845   0.83546   0.87887   0.00000  Uiso   1.00
N409   N     0.89646   0.00459   0.72804   0.00000  Uiso   1.00
N410   N     0.71482   0.82016   0.73479   0.00000  Uiso   1.00
N411   N     0.89567   0.86347   0.02291   0.00000  Uiso   1.00
N412   N     0.95362   0.97485   0.82092   0.00000  Uiso   1.00
N413   N     0.77197   0.79042   0.82767   0.00000  Uiso   1.00
N414   N     0.95282   0.83373   0.11579   0.00000  Uiso   1.00
C415   C     0.33064   0.39871   0.48705   0.00000  Uiso   1.00
C416   C     0.36275   0.42062   0.57615   0.00000  Uiso   1.00
C417   C     0.35791   0.45561   0.59934   0.00000  Uiso   1.00
C418   C     0.39091   0.47096   0.68406   0.00000  Uiso   1.00
C419   C     0.43520   0.50787   0.81344   0.00000  Uiso   1.00
C420   C     0.31269   0.36980   0.57803   0.00000  Uiso   1.00
C421   C     0.26576   0.36205   0.60278   0.00000  Uiso   1.00
C422   C     0.25661   0.33460   0.68908   0.00000  Uiso   1.00
C423   C     0.22318   0.29259   0.82129   0.00000  Uiso   1.00
C424   C     0.36253   0.38174   0.38184   0.00000  Uiso   1.00
C425   C     0.35750   0.38402   0.24163   0.00000  Uiso   1.00
C426   C     0.39032   0.36662   0.16275   0.00000  Uiso   1.00
C427   C     0.43428   0.34315   0.99035   0.00000  Uiso   1.00
C428   C     0.39785   0.36373   0.59628   0.00000  Uiso   1.00
C429   C     0.39926   0.40162   0.63548   0.00000  Uiso   1.00
C430   C     0.43227   0.41692   0.72018   0.00000  Uiso   1.00
C431   C     0.42748   0.45192   0.74349   0.00000  Uiso   1.00
C432   C     0.34919   0.35080   0.63736   0.00000  Uiso   1.00
C433   C     0.34012   0.32335   0.72363   0.00000  Uiso   1.00
C434   C     0.29318   0.31557   0.74851   0.00000  Uiso   1.00
C435   C     0.39904   0.36274   0.44116   0.00000  Uiso   1.00
C436   C     0.43187   0.34533   0.36248   0.00000  Uiso   1.00
C437   C     0.42689   0.34759   0.22218   0.00000  Uiso   1.00
H438   H     0.30222   0.41350   0.44087   0.00000  Uiso   1.00
H439   H     0.32965   0.47031   0.55342   0.00000  Uiso   1.00
H440   H     0.23751   0.37675   0.55685   0.00000  Uiso   1.00
H441   H     0.32925   0.39873   0.19576   0.00000  Uiso   1.00
H442   H     0.37616   0.52491   0.70440   0.00000  Uiso   1.00
H443   H     0.18188   0.32764   0.71160   0.00000  Uiso   1.00
H444   H     0.37532   0.37397   0.95017   0.00000  Uiso   1.00
H445   H     0.42627   0.34894   0.64247   0.00000  Uiso   1.00
H446   H     0.46052   0.40221   0.76608   0.00000  Uiso   1.00
H447   H     0.36837   0.30866   0.76951   0.00000  Uiso   1.00
H448   H     0.46011   0.33063   0.40842   0.00000  Uiso   1.00
H449   H     0.48237   0.46964   0.87701   0.00000  Uiso   1.00
H450   H     0.28809   0.27237   0.88421   0.00000  Uiso   1.00
H451   H     0.48153   0.31870   0.12278   0.00000  Uiso   1.00
O452   O     0.44955   0.53348   0.86842   0.00000  Uiso   1.00
O453   O     0.19466   0.27467   0.87784   0.00000  Uiso   1.00
O454   O     0.44845   0.33546   0.87887   0.00000  Uiso   1.00
N455   N     0.39646   0.50459   0.72804   0.00000  Uiso   1.00
N456   N     0.21482   0.32016   0.73479   0.00000  Uiso   1.00
N457   N     0.39567   0.36347   0.02291   0.00000  Uiso   1.00
N458   N     0.45362   0.47485   0.82092   0.00000  Uiso   1.00
N459   N     0.27197   0.29042   0.82767   0.00000  Uiso   1.00
N460   N     0.45282   0.33373   0.11579   0.00000  Uiso   1.00
C461   C     0.66936   0.60129   0.48705   0.00000  Uiso   1.00
C462   C     0.63725   0.57938   0.57615   0.00000  Uiso   1.00
C463   C     0.64209   0.54439   0.59934   0.00000  Uiso   1.00
C464   C     0.60909   0.52904   0.68406   0.00000  Uiso   1.00
C465   C     0.56480   0.49213   0.81344   0.00000  Uiso   1.00
C466   C     0.68731   0.63020   0.57803   0.00000  Uiso   1.00
C467   C     0.73424   0.63795   0.60278   0.00000  Uiso   1.00
C468   C     0.74339   0.66540   0.68908   0.00000  Uiso   1.00
C469   C     0.77682   0.70741   0.82129   0.00000  Uiso   1.00
C470   C     0.63747   0.61826   0.38184   0.00000  Uiso   1.00
C471   C     0.64250   0.61598   0.24163   0.00000  Uiso   1.00
C472   C     0.60968   0.63338   0.16275   0.00000  Uiso   1.00
C473   C     0.56572   0.65685   0.99035   0.00000  Uiso   1.00
C474   C     0.60215   0.63627   0.59628   0.00000  Uiso   1.00
C475   C     0.60074   0.59838   0.63548   0.00000  Uiso   1.00
C476   C     0.56773   0.58308   0.72018   0.00000  Uiso   1.00
C477   C     0.57252   0.54808   0.74349   0.00000  Uiso   1.00
C478   C     0.65081   0.64920   0.63736   0.00000  Uiso   1.00
C479   C     0.65988   0.67665   0.72363   0.00000  Uiso   1.00
C480   C     0.70682   0.68443   0.74851   0.00000  Uiso   1.00
C481   C     0.60096   0.63726   0.44116   0.00000  Uiso   1.00
C482   C     0.56813   0.65467   0.36248   0.00000  Uiso   1.00
C483   C     0.57311   0.65241   0.22218   0.00000  Uiso   1.00
H484   H     0.69778   0.58650   0.44087   0.00000  Uiso   1.00
H485   H     0.67035   0.52969   0.55342   0.00000  Uiso   1.00
H486   H     0.76249   0.62325   0.55685   0.00000  Uiso   1.00
H487   H     0.67075   0.60127   0.19576   0.00000  Uiso   1.00
H488   H     0.62384   0.47509   0.70440   0.00000  Uiso   1.00
H489   H     0.81812   0.67236   0.71160   0.00000  Uiso   1.00
H490   H     0.62468   0.62603   0.95017   0.00000  Uiso   1.00
H491   H     0.57373   0.65106   0.64247   0.00000  Uiso   1.00
H492   H     0.53948   0.59779   0.76608   0.00000  Uiso   1.00
H493   H     0.63163   0.69134   0.76951   0.00000  Uiso   1.00
H494   H     0.53989   0.66937   0.40842   0.00000  Uiso   1.00
H495   H     0.51763   0.53036   0.87701   0.00000  Uiso   1.00
H496   H     0.71191   0.72763   0.88421   0.00000  Uiso   1.00
H497   H     0.51847   0.68130   0.12278   0.00000  Uiso   1.00
O498   O     0.55045   0.46652   0.86842   0.00000  Uiso   1.00
O499   O     0.80534   0.72533   0.87784   0.00000  Uiso   1.00
O500   O     0.55155   0.66454   0.87887   0.00000  Uiso   1.00
N501   N     0.60354   0.49541   0.72804   0.00000  Uiso   1.00
N502   N     0.78518   0.67984   0.73479   0.00000  Uiso   1.00
N503   N     0.60433   0.63653   0.02291   0.00000  Uiso   1.00
N504   N     0.54638   0.52515   0.82092   0.00000  Uiso   1.00
N505   N     0.72803   0.70958   0.82767   0.00000  Uiso   1.00
N506   N     0.54718   0.66627   0.11579   0.00000  Uiso   1.00
C507   C     0.16936   0.10129   0.48705   0.00000  Uiso   1.00
C508   C     0.13725   0.07938   0.57615   0.00000  Uiso   1.00
C509   C     0.14209   0.04439   0.59934   0.00000  Uiso   1.00
C510   C     0.10909   0.02904   0.68406   0.00000  Uiso   1.00
C511   C     0.06480   0.99213   0.81344   0.00000  Uiso   1.00
C512   C     0.18731   0.13020   0.57803   0.00000  Uiso   1.00
C513   C     0.23424   0.13795   0.60278   0.00000  Uiso   1.00
C514   C     0.24339   0.16540   0.68908   0.00000  Uiso   1.00
C515   C     0.27682   0.20741   0.82129   0.00000  Uiso   1.00
C516   C     0.13747   0.11826   0.38184   0.00000  Uiso   1.00
C517   C     0.14250   0.11598   0.24163   0.00000  Uiso   1.00
C518   C     0.10968   0.13338   0.16275   0.00000  Uiso   1.00
C519   C     0.06572   0.15685   0.99035   0.00000  Uiso   1.00
C520   C     0.10215   0.13627   0.59628   0.00000  Uiso   1.00
C521   C     0.10074   0.09838   0.63548   0.00000  Uiso   1.00
C522   C     0.06773   0.08308   0.72018   0.00000  Uiso   1.00
C523   C     0.07252   0.04808   0.74349   0.00000  Uiso   1.00
C524   C     0.15081   0.14920   0.63736   0.00000  Uiso   1.00
C525   C     0.15988   0.17665   0.72363   0.00000  Uiso   1.00
C526   C     0.20682   0.18443   0.74851   0.00000  Uiso   1.00
C527   C     0.10096   0.13726   0.44116   0.00000  Uiso   1.00
C528   C     0.06813   0.15467   0.36248   0.00000  Uiso   1.00
C529   C     0.07311   0.15241   0.22218   0.00000  Uiso   1.00
H530   H     0.19778   0.08650   0.44087   0.00000  Uiso   1.00
H531   H     0.17035   0.02969   0.55342   0.00000  Uiso   1.00
H532   H     0.26249   0.12325   0.55685   0.00000  Uiso   1.00
H533   H     0.17075   0.10127   0.19576   0.00000  Uiso   1.00
H534   H     0.12384   0.97509   0.70440   0.00000  Uiso   1.00
H535   H     0.31812   0.17236   0.71160   0.00000  Uiso   1.00
H536   H     0.12468   0.12603   0.95017   0.00000  Uiso   1.00
H537   H     0.07373   0.15106   0.64247   0.00000  Uiso   1.00
H538   H     0.03948   0.09779   0.76608   0.00000  Uiso   1.00
H539   H     0.13163   0.19134   0.76951   0.00000  Uiso   1.00
H540   H     0.03989   0.16937   0.40842   0.00000  Uiso   1.00
H541   H     0.01763   0.03036   0.87701   0.00000  Uiso   1.00
H542   H     0.21191   0.22763   0.88421   0.00000  Uiso   1.00
H543   H     0.01847   0.18130   0.12278   0.00000  Uiso   1.00
O544   O     0.05045   0.96652   0.86842   0.00000  Uiso   1.00
O545   O     0.30534   0.22533   0.87784   0.00000  Uiso   1.00
O546   O     0.05155   0.16454   0.87887   0.00000  Uiso   1.00
N547   N     0.10354   0.99541   0.72804   0.00000  Uiso   1.00
N548   N     0.28518   0.17984   0.73479   0.00000  Uiso   1.00
N549   N     0.10433   0.13653   0.02291   0.00000  Uiso   1.00
N550   N     0.04638   0.02515   0.82092   0.00000  Uiso   1.00
N551   N     0.22803   0.20958   0.82767   0.00000  Uiso   1.00
N552   N     0.04718   0.16627   0.11579   0.00000  Uiso   1.00
C553   C     0.16936   0.89871   0.51295   0.00000  Uiso   1.00
C554   C     0.13725   0.92062   0.42385   0.00000  Uiso   1.00
C555   C     0.14209   0.95561   0.40066   0.00000  Uiso   1.00
C556   C     0.10909   0.97096   0.31594   0.00000  Uiso   1.00
C557   C     0.06480   0.00787   0.18656   0.00000  Uiso   1.00
C558   C     0.18731   0.86980   0.42197   0.00000  Uiso   1.00
C559   C     0.23424   0.86205   0.39722   0.00000  Uiso   1.00
C560   C     0.24339   0.83460   0.31092   0.00000  Uiso   1.00
C561   C     0.27682   0.79259   0.17871   0.00000  Uiso   1.00
C562   C     0.13747   0.88174   0.61816   0.00000  Uiso   1.00
C563   C     0.14250   0.88402   0.75837   0.00000  Uiso   1.00
C564   C     0.10968   0.86662   0.83725   0.00000  Uiso   1.00
C565   C     0.06572   0.84315   0.00965   0.00000  Uiso   1.00
C566   C     0.10215   0.86373   0.40372   0.00000  Uiso   1.00
C567   C     0.10074   0.90162   0.36452   0.00000  Uiso   1.00
C568   C     0.06773   0.91692   0.27982   0.00000  Uiso   1.00
C569   C     0.07252   0.95192   0.25651   0.00000  Uiso   1.00
C570   C     0.15081   0.85080   0.36264   0.00000  Uiso   1.00
C571   C     0.15988   0.82335   0.27637   0.00000  Uiso   1.00
C572   C     0.20682   0.81557   0.25149   0.00000  Uiso   1.00
C573   C     0.10096   0.86274   0.55884   0.00000  Uiso   1.00
C574   C     0.06813   0.84533   0.63752   0.00000  Uiso   1.00
C575   C     0.07311   0.84759   0.77782   0.00000  Uiso   1.00
H576   H     0.19778   0.91350   0.55913   0.00000  Uiso   1.00
H577   H     0.17035   0.97031   0.44658   0.00000  Uiso   1.00
H578   H     0.26249   0.87675   0.44315   0.00000  Uiso   1.00
H579   H     0.17075   0.89873   0.80424   0.00000  Uiso   1.00
H580   H     0.12384   0.02491   0.29560   0.00000  Uiso   1.00
H581   H     0.31812   0.82764   0.28840   0.00000  Uiso   1.00
H582   H     0.12468   0.87397   0.04983   0.00000  Uiso   1.00
H583   H     0.07373   0.84894   0.35753   0.00000  Uiso   1.00
H584   H     0.03948   0.90221   0.23392   0.00000  Uiso   1.00
H585   H     0.13163   0.80866   0.23049   0.00000  Uiso   1.00
H586   H     0.03989   0.83063   0.59158   0.00000  Uiso   1.00
H587   H     0.01763   0.96964   0.12299   0.00000  Uiso   1.00
H588   H     0.21191   0.77237   0.11579   0.00000  Uiso   1.00
H589   H     0.01847   0.81870   0.87722   0.00000  Uiso   1.00
O590   O     0.05045   0.03348   0.13158   0.00000  Uiso   1.00
O591   O     0.30534   0.77467   0.12216   0.00000  Uiso   1.00
O592   O     0.05155   0.83546   0.12113   0.00000  Uiso   1.00
N593   N     0.10354   0.00459   0.27196   0.00000  Uiso   1.00
N594   N     0.28518   0.82016   0.26521   0.00000  Uiso   1.00
N595   N     0.10433   0.86347   0.97709   0.00000  Uiso   1.00
N596   N     0.04638   0.97485   0.17908   0.00000  Uiso   1.00
N597   N     0.22803   0.79042   0.17233   0.00000  Uiso   1.00
N598   N     0.04718   0.83373   0.88421   0.00000  Uiso   1.00
C599   C     0.66936   0.39871   0.51295   0.00000  Uiso   1.00
C600   C     0.63725   0.42062   0.42385   0.00000  Uiso   1.00
C601   C     0.64209   0.45561   0.40066   0.00000  Uiso   1.00
C602   C     0.60909   0.47096   0.31594   0.00000  Uiso   1.00
C603   C     0.56480   0.50787   0.18656   0.00000  Uiso   1.00
C604   C     0.68731   0.36980   0.42197   0.00000  Uiso   1.00
C605   C     0.73424   0.36205   0.39722   0.00000  Uiso   1.00
C606   C     0.74339   0.33460   0.31092   0.00000  Uiso   1.00
C607   C     0.77682   0.29259   0.17871   0.00000  Uiso   1.00
C608   C     0.63747   0.38174   0.61816   0.00000  Uiso   1.00
C609   C     0.64250   0.38402   0.75837   0.00000  Uiso   1.00
C610   C     0.60968   0.36662   0.83725   0.00000  Uiso   1.00
C611   C     0.56572   0.34315   0.00965   0.00000  Uiso   1.00
C612   C     0.60215   0.36373   0.40372   0.00000  Uiso   1.00
C613   C     0.60074   0.40162   0.36452   0.00000  Uiso   1.00
C614   C     0.56773   0.41692   0.27982   0.00000  Uiso   1.00
C615   C     0.57252   0.45192   0.25651   0.00000  Uiso   1.00
C616   C     0.65081   0.35080   0.36264   0.00000  Uiso   1.00
C617   C     0.65988   0.32335   0.27637   0.00000  Uiso   1.00
C618   C     0.70682   0.31557   0.25149   0.00000  Uiso   1.00
C619   C     0.60096   0.36274   0.55884   0.00000  Uiso   1.00
C620   C     0.56813   0.34533   0.63752   0.00000  Uiso   1.00
C621   C     0.57311   0.34759   0.77782   0.00000  Uiso   1.00
H622   H     0.69778   0.41350   0.55913   0.00000  Uiso   1.00
H623   H     0.67035   0.47031   0.44658   0.00000  Uiso   1.00
H624   H     0.76249   0.37675   0.44315   0.00000  Uiso   1.00
H625   H     0.67075   0.39873   0.80424   0.00000  Uiso   1.00
H626   H     0.62384   0.52491   0.29560   0.00000  Uiso   1.00
H627   H     0.81812   0.32764   0.28840   0.00000  Uiso   1.00
H628   H     0.62468   0.37397   0.04983   0.00000  Uiso   1.00
H629   H     0.57373   0.34894   0.35753   0.00000  Uiso   1.00
H630   H     0.53948   0.40221   0.23392   0.00000  Uiso   1.00
H631   H     0.63163   0.30866   0.23049   0.00000  Uiso   1.00
H632   H     0.53989   0.33063   0.59158   0.00000  Uiso   1.00
H633   H     0.51763   0.46964   0.12299   0.00000  Uiso   1.00
H634   H     0.71191   0.27237   0.11579   0.00000  Uiso   1.00
H635   H     0.51847   0.31870   0.87722   0.00000  Uiso   1.00
O636   O     0.55045   0.53348   0.13158   0.00000  Uiso   1.00
O637   O     0.80534   0.27467   0.12216   0.00000  Uiso   1.00
O638   O     0.55155   0.33546   0.12113   0.00000  Uiso   1.00
N639   N     0.60354   0.50459   0.27196   0.00000  Uiso   1.00
N640   N     0.78518   0.32016   0.26521   0.00000  Uiso   1.00
N641   N     0.60433   0.36347   0.97709   0.00000  Uiso   1.00
N642   N     0.54638   0.47485   0.17908   0.00000  Uiso   1.00
N643   N     0.72803   0.29042   0.17233   0.00000  Uiso   1.00
N644   N     0.54718   0.33373   0.88421   0.00000  Uiso   1.00
C645   C     0.33064   0.60129   0.51295   0.00000  Uiso   1.00
C646   C     0.36275   0.57938   0.42385   0.00000  Uiso   1.00
C647   C     0.35791   0.54439   0.40066   0.00000  Uiso   1.00
C648   C     0.39091   0.52904   0.31594   0.00000  Uiso   1.00
C649   C     0.43520   0.49213   0.18656   0.00000  Uiso   1.00
C650   C     0.31269   0.63020   0.42197   0.00000  Uiso   1.00
C651   C     0.26576   0.63795   0.39722   0.00000  Uiso   1.00
C652   C     0.25661   0.66540   0.31092   0.00000  Uiso   1.00
C653   C     0.22318   0.70741   0.17871   0.00000  Uiso   1.00
C654   C     0.36253   0.61826   0.61816   0.00000  Uiso   1.00
C655   C     0.35750   0.61598   0.75837   0.00000  Uiso   1.00
C656   C     0.39032   0.63338   0.83725   0.00000  Uiso   1.00
C657   C     0.43428   0.65685   0.00965   0.00000  Uiso   1.00
C658   C     0.39785   0.63627   0.40372   0.00000  Uiso   1.00
C659   C     0.39926   0.59838   0.36452   0.00000  Uiso   1.00
C660   C     0.43227   0.58308   0.27982   0.00000  Uiso   1.00
C661   C     0.42748   0.54808   0.25651   0.00000  Uiso   1.00
C662   C     0.34919   0.64920   0.36264   0.00000  Uiso   1.00
C663   C     0.34012   0.67665   0.27637   0.00000  Uiso   1.00
C664   C     0.29318   0.68443   0.25149   0.00000  Uiso   1.00
C665   C     0.39904   0.63726   0.55884   0.00000  Uiso   1.00
C666   C     0.43187   0.65467   0.63752   0.00000  Uiso   1.00
C667   C     0.42689   0.65241   0.77782   0.00000  Uiso   1.00
H668   H     0.30222   0.58650   0.55913   0.00000  Uiso   1.00
H669   H     0.32965   0.52969   0.44658   0.00000  Uiso   1.00
H670   H     0.23751   0.62325   0.44315   0.00000  Uiso   1.00
H671   H     0.32925   0.60127   0.80424   0.00000  Uiso   1.00
H672   H     0.37616   0.47509   0.29560   0.00000  Uiso   1.00
H673   H     0.18188   0.67236   0.28840   0.00000  Uiso   1.00
H674   H     0.37532   0.62603   0.04983   0.00000  Uiso   1.00
H675   H     0.42627   0.65106   0.35753   0.00000  Uiso   1.00
H676   H     0.46052   0.59779   0.23392   0.00000  Uiso   1.00
H677   H     0.36837   0.69134   0.23049   0.00000  Uiso   1.00
H678   H     0.46011   0.66937   0.59158   0.00000  Uiso   1.00
H679   H     0.48237   0.53036   0.12299   0.00000  Uiso   1.00
H680   H     0.28809   0.72763   0.11579   0.00000  Uiso   1.00
H681   H     0.48153   0.68130   0.87722   0.00000  Uiso   1.00
O682   O     0.44955   0.46652   0.13158   0.00000  Uiso   1.00
O683   O     0.19466   0.72533   0.12216   0.00000  Uiso   1.00
O684   O     0.44845   0.66454   0.12113   0.00000  Uiso   1.00
N685   N     0.39646   0.49541   0.27196   0.00000  Uiso   1.00
N686   N     0.21482   0.67984   0.26521   0.00000  Uiso   1.00
N687   N     0.39567   0.63653   0.97709   0.00000  Uiso   1.00
N688   N     0.45362   0.52515   0.17908   0.00000  Uiso   1.00
N689   N     0.27197   0.70958   0.17233   0.00000  Uiso   1.00
N690   N     0.45282   0.66627   0.88421   0.00000  Uiso   1.00
C691   C     0.83064   0.10129   0.51295   0.00000  Uiso   1.00
C692   C     0.86275   0.07938   0.42385   0.00000  Uiso   1.00
C693   C     0.85791   0.04439   0.40066   0.00000  Uiso   1.00
C694   C     0.89091   0.02904   0.31594   0.00000  Uiso   1.00
C695   C     0.93520   0.99213   0.18656   0.00000  Uiso   1.00
C696   C     0.81269   0.13020   0.42197   0.00000  Uiso   1.00
C697   C     0.76576   0.13795   0.39722   0.00000  Uiso   1.00
C698   C     0.75661   0.16540   0.31092   0.00000  Uiso   1.00
C699   C     0.72318   0.20741   0.17871   0.00000  Uiso   1.00
C700   C     0.86253   0.11826   0.61816   0.00000  Uiso   1.00
C701   C     0.85750   0.11598   0.75837   0.00000  Uiso   1.00
C702   C     0.89032   0.13338   0.83725   0.00000  Uiso   1.00
C703   C     0.93428   0.15685   0.00965   0.00000  Uiso   1.00
C704   C     0.89785   0.13627   0.40372   0.00000  Uiso   1.00
C705   C     0.89926   0.09838   0.36452   0.00000  Uiso   1.00
C706   C     0.93227   0.08308   0.27982   0.00000  Uiso   1.00
C707   C     0.92748   0.04808   0.25651   0.00000  Uiso   1.00
C708   C     0.84919   0.14920   0.36264   0.00000  Uiso   1.00
C709   C     0.84012   0.17665   0.27637   0.00000  Uiso   1.00
C710   C     0.79318   0.18443   0.25149   0.00000  Uiso   1.00
C711   C     0.89904   0.13726   0.55884   0.00000  Uiso   1.00
C712   C     0.93187   0.15467   0.63752   0.00000  Uiso   1.00
C713   C     0.92689   0.15241   0.77782   0.00000  Uiso   1.00
H714   H     0.80222   0.08650   0.55913   0.00000  Uiso   1.00
H715   H     0.82965   0.02969   0.44658   0.00000  Uiso   1.00
H716   H     0.73751   0.12325   0.44315   0.00000  Uiso   1.00
H717   H     0.82925   0.10127   0.80424   0.00000  Uiso   1.00
H718   H     0.87616   0.97509   0.29560   0.00000  Uiso   1.00
H719   H     0.68188   0.17236   0.28840   0.00000  Uiso   1.00
H720   H     0.87532   0.12603   0.04983   0.00000  Uiso   1.00
H721   H     0.92627   0.15106   0.35753   0.00000  Uiso   1.00
H722   H     0.96052   0.09779   0.23392   0.00000  Uiso   1.00
H723   H     0.86837   0.19134   0.23049   0.00000  Uiso   1.00
H724   H     0.96011   0.16937   0.59158   0.00000  Uiso   1.00
H725   H     0.98237   0.03036   0.12299   0.00000  Uiso   1.00
H726   H     0.78809   0.22763   0.11579   0.00000  Uiso   1.00
H727   H     0.98153   0.18130   0.87722   0.00000  Uiso   1.00
O728   O     0.94955   0.96652   0.13158   0.00000  Uiso   1.00
O729   O     0.69466   0.22533   0.12216   0.00000  Uiso   1.00
O730   O     0.94845   0.16454   0.12113   0.00000  Uiso   1.00
N731   N     0.89646   0.99541   0.27196   0.00000  Uiso   1.00
N732   N     0.71482   0.17984   0.26521   0.00000  Uiso   1.00
N733   N     0.89567   0.13653   0.97709   0.00000  Uiso   1.00
N734   N     0.95362   0.02515   0.17908   0.00000  Uiso   1.00
N735   N     0.77197   0.20958   0.17233   0.00000  Uiso   1.00
N736   N     0.95282   0.16627   0.88421   0.00000  Uiso   1.00
