data_job_06775
_audit_creation_date              2018-12-19
_audit_creation_method            'Materials Studio'
_symmetry_space_group_name_H-M    'P1'
_symmetry_Int_Tables_number       1
_symmetry_cell_setting            triclinic
loop_
_symmetry_equiv_pos_as_xyz
  x,y,z
_cell_length_a                    39.1555
_cell_length_b                    26.7807
_cell_length_c                    20.8473
_cell_angle_alpha                 90.0000
_cell_angle_beta                  58.0900
_cell_angle_gamma                 90.0000
loop_
_atom_site_label
_atom_site_type_symbol
_atom_site_fract_x
_atom_site_fract_y
_atom_site_fract_z
_atom_site_U_iso_or_equiv
_atom_site_adp_type
_atom_site_occupancy
C1     C     0.62897   0.86731   0.49301   0.00000  Uiso   1.00
C2     C     0.62690   0.82543   0.44563   0.00000  Uiso   1.00
C3     C     0.64810   0.82366   0.36728   0.00000  Uiso   1.00
C4     C     0.64205   0.78214   0.33460   0.00000  Uiso   1.00
C5     C     0.64281   0.72296   0.25430   0.00000  Uiso   1.00
C6     C     0.58587   0.88549   0.54489   0.00000  Uiso   1.00
C7     C     0.57259   0.93422   0.55000   0.00000  Uiso   1.00
C8     C     0.53200   0.94326   0.60088   0.00000  Uiso   1.00
C9     C     0.46907   0.97733   0.67473   0.00000  Uiso   1.00
C10    C     0.64093   0.84264   0.54424   0.00000  Uiso   1.00
C11    C     0.67394   0.85534   0.54883   0.00000  Uiso   1.00
C12    C     0.67970   0.82831   0.59920   0.00000  Uiso   1.00
C13    C     0.70227   0.79584   0.67205   0.00000  Uiso   1.00
C14    C     0.58050   0.79673   0.57431   0.00000  Uiso   1.00
C15    C     0.60057   0.78709   0.48979   0.00000  Uiso   1.00
C16    C     0.59448   0.74556   0.45722   0.00000  Uiso   1.00
C17    C     0.61567   0.74373   0.37884   0.00000  Uiso   1.00
C18    C     0.55954   0.84716   0.58904   0.00000  Uiso   1.00
C19    C     0.51896   0.85612   0.63994   0.00000  Uiso   1.00
C20    C     0.50562   0.90485   0.64512   0.00000  Uiso   1.00
C21    C     0.61461   0.80430   0.58840   0.00000  Uiso   1.00
C22    C     0.62031   0.77724   0.63878   0.00000  Uiso   1.00
C23    C     0.65333   0.78990   0.64344   0.00000  Uiso   1.00
H24    H     0.64947   0.89716   0.45864   0.00000  Uiso   1.00
H25    H     0.66847   0.85334   0.33312   0.00000  Uiso   1.00
H26    H     0.59297   0.96388   0.51582   0.00000  Uiso   1.00
H27    H     0.69431   0.88501   0.51465   0.00000  Uiso   1.00
H28    H     0.67792   0.78786   0.21344   0.00000  Uiso   1.00
H29    H     0.51872   0.02095   0.59868   0.00000  Uiso   1.00
H30    H     0.73241   0.85464   0.59623   0.00000  Uiso   1.00
H31    H     0.56000   0.76688   0.60870   0.00000  Uiso   1.00
H32    H     0.57410   0.71590   0.49141   0.00000  Uiso   1.00
H33    H     0.49860   0.82645   0.67411   0.00000  Uiso   1.00
H34    H     0.59993   0.74758   0.67294   0.00000  Uiso   1.00
H35    H     0.60132   0.67630   0.34191   0.00000  Uiso   1.00
H36    H     0.44213   0.90940   0.72716   0.00000  Uiso   1.00
H37    H     0.65581   0.74308   0.72470   0.00000  Uiso   1.00
O38    O     0.65050   0.70091   0.19781   0.00000  Uiso   1.00
O39    O     0.44164   0.00671   0.70325   0.00000  Uiso   1.00
O40    O     0.72200   0.78852   0.70002   0.00000  Uiso   1.00
N41    N     0.65797   0.76859   0.25977   0.00000  Uiso   1.00
N42    N     0.50912   0.98652   0.61994   0.00000  Uiso   1.00
N43    N     0.70890   0.83104   0.61766   0.00000  Uiso   1.00
N44    N     0.61675   0.70857   0.32890   0.00000  Uiso   1.00
N45    N     0.46791   0.92649   0.68907   0.00000  Uiso   1.00
N46    N     0.66768   0.77102   0.68679   0.00000  Uiso   1.00
C47    C     0.72471   0.07375   0.53111   0.00000  Uiso   1.00
C48    C     0.71522   0.12364   0.50867   0.00000  Uiso   1.00
C49    C     0.67830   0.14781   0.54647   0.00000  Uiso   1.00
C50    C     0.67574   0.19313   0.51694   0.00000  Uiso   1.00
C51    C     0.65595   0.26748   0.49197   0.00000  Uiso   1.00
C52    C     0.74054   0.03988   0.46228   0.00000  Uiso   1.00
C53    C     0.72490   0.99363   0.46109   0.00000  Uiso   1.00
C54    C     0.74365   0.96845   0.39252   0.00000  Uiso   1.00
C55    C     0.76318   0.91275   0.29554   0.00000  Uiso   1.00
C56    C     0.76025   0.08344   0.54037   0.00000  Uiso   1.00
C57    C     0.76119   0.07380   0.60483   0.00000  Uiso   1.00
C58    C     0.79654   0.08528   0.60200   0.00000  Uiso   1.00
C59    C     0.84668   0.09721   0.62626   0.00000  Uiso   1.00
C60    C     0.78583   0.11127   0.41145   0.00000  Uiso   1.00
C61    C     0.74842   0.14401   0.44367   0.00000  Uiso   1.00
C62    C     0.74592   0.18932   0.41409   0.00000  Uiso   1.00
C63    C     0.70899   0.21355   0.45184   0.00000  Uiso   1.00
C64    C     0.77373   0.06026   0.39729   0.00000  Uiso   1.00
C65    C     0.79251   0.03514   0.32871   0.00000  Uiso   1.00
C66    C     0.77690   0.98886   0.32741   0.00000  Uiso   1.00
C67    C     0.79345   0.10382   0.47538   0.00000  Uiso   1.00
C68    C     0.82881   0.11531   0.47245   0.00000  Uiso   1.00
C69    C     0.82980   0.10569   0.53689   0.00000  Uiso   1.00
H70    H     0.69887   0.05788   0.58170   0.00000  Uiso   1.00
H71    H     0.65262   0.13202   0.59676   0.00000  Uiso   1.00
H72    H     0.69921   0.97787   0.51139   0.00000  Uiso   1.00
H73    H     0.73550   0.05803   0.65511   0.00000  Uiso   1.00
H74    H     0.61597   0.22320   0.58477   0.00000  Uiso   1.00
H75    H     0.71423   0.89815   0.40478   0.00000  Uiso   1.00
H76    H     0.79074   0.06717   0.70784   0.00000  Uiso   1.00
H77    H     0.81167   0.12713   0.36085   0.00000  Uiso   1.00
H78    H     0.77161   0.20508   0.36379   0.00000  Uiso   1.00
H79    H     0.81820   0.05092   0.27843   0.00000  Uiso   1.00
H80    H     0.85449   0.13108   0.42215   0.00000  Uiso   1.00
H81    H     0.71255   0.28249   0.39569   0.00000  Uiso   1.00
H82    H     0.81081   0.95743   0.21570   0.00000  Uiso   1.00
H83    H     0.88732   0.12647   0.51876   0.00000  Uiso   1.00
O84    O     0.63587   0.30286   0.49613   0.00000  Uiso   1.00
O85    O     0.76478   0.87640   0.26000   0.00000  Uiso   1.00
O86    O     0.86517   0.09816   0.65760   0.00000  Uiso   1.00
N87    N     0.64420   0.22646   0.53988   0.00000  Uiso   1.00
N88    N     0.73606   0.92256   0.37159   0.00000  Uiso   1.00
N89    N     0.80760   0.08057   0.65492   0.00000  Uiso   1.00
N90    N     0.69617   0.25837   0.43813   0.00000  Uiso   1.00
N91    N     0.78803   0.95446   0.26985   0.00000  Uiso   1.00
N92    N     0.85957   0.11248   0.55318   0.00000  Uiso   1.00
C93    C     0.59536   0.93177   0.74477   0.00000  Uiso   1.00
C94    C     0.55616   0.90369   0.79567   0.00000  Uiso   1.00
C95    C     0.54349   0.86121   0.77592   0.00000  Uiso   1.00
C96    C     0.50669   0.84111   0.83049   0.00000  Uiso   1.00
C97    C     0.44935   0.79422   0.89861   0.00000  Uiso   1.00
C98    C     0.58340   0.98550   0.74167   0.00000  Uiso   1.00
C99    C     0.59363   0.01180   0.67652   0.00000  Uiso   1.00
C100   C     0.57976   0.06057   0.68564   0.00000  Uiso   1.00
C101   C     0.56474   0.14070   0.66991   0.00000  Uiso   1.00
C102   C     0.61716   0.93344   0.78745   0.00000  Uiso   1.00
C103   C     0.65578   0.91599   0.76079   0.00000  Uiso   1.00
C104   C     0.67034   0.92094   0.80844   0.00000  Uiso   1.00
C105   C     0.70773   0.92025   0.86379   0.00000  Uiso   1.00
C106   C     0.55253   0.97162   0.87681   0.00000  Uiso   1.00
C107   C     0.53290   0.92533   0.86739   0.00000  Uiso   1.00
C108   C     0.49610   0.90529   0.92201   0.00000  Uiso   1.00
C109   C     0.48338   0.86278   0.90234   0.00000  Uiso   1.00
C110   C     0.56014   0.00714   0.81339   0.00000  Uiso   1.00
C111   C     0.54625   0.05588   0.82260   0.00000  Uiso   1.00
C112   C     0.55646   0.08225   0.75749   0.00000  Uiso   1.00
C113   C     0.59389   0.95508   0.85917   0.00000  Uiso   1.00
C114   C     0.60839   0.96007   0.90687   0.00000  Uiso   1.00
C115   C     0.64703   0.94262   0.88028   0.00000  Uiso   1.00
H116   H     0.61347   0.91493   0.68894   0.00000  Uiso   1.00
H117   H     0.56150   0.84447   0.72041   0.00000  Uiso   1.00
H118   H     0.61164   0.99504   0.62103   0.00000  Uiso   1.00
H119   H     0.67378   0.89924   0.70529   0.00000  Uiso   1.00
H120   H     0.49362   0.77592   0.78693   0.00000  Uiso   1.00
H121   H     0.59935   0.09341   0.57737   0.00000  Uiso   1.00
H122   H     0.73038   0.89140   0.75504   0.00000  Uiso   1.00
H123   H     0.53441   0.98847   0.93265   0.00000  Uiso   1.00
H124   H     0.47811   0.92204   0.97750   0.00000  Uiso   1.00
H125   H     0.52825   0.07262   0.87811   0.00000  Uiso   1.00
H126   H     0.59038   0.97682   0.96237   0.00000  Uiso   1.00
H127   H     0.42593   0.83888   0.99559   0.00000  Uiso   1.00
H128   H     0.53167   0.15637   0.78603   0.00000  Uiso   1.00
H129   H     0.66269   0.95436   0.96369   0.00000  Uiso   1.00
O130   O     0.92416   0.26238   0.91636   0.00000  Uiso   1.00
O131   O     0.56288   0.17892   0.64143   0.00000  Uiso   1.00
O132   O     0.73478   0.91389   0.87452   0.00000  Uiso   1.00
N133   N     0.48542   0.79984   0.82989   0.00000  Uiso   1.00
N134   N     0.58427   0.09668   0.63396   0.00000  Uiso   1.00
N135   N     0.70677   0.90783   0.80006   0.00000  Uiso   1.00
N136   N     0.44900   0.83372   0.94217   0.00000  Uiso   1.00
N137   N     0.54785   0.13055   0.74624   0.00000  Uiso   1.00
N138   N     0.67035   0.94170   0.91233   0.00000  Uiso   1.00
C139   C     0.69328   0.24009   0.09766   0.00000  Uiso   1.00
C140   C     0.69168   0.18797   0.06990   0.00000  Uiso   1.00
C141   C     0.66358   0.15132   0.11221   0.00000  Uiso   1.00
C142   C     0.66724   0.10610   0.07653   0.00000  Uiso   1.00
C143   C     0.66007   0.02643   0.04488   0.00000  Uiso   1.00
C144   C     0.69168   0.27651   0.04308   0.00000  Uiso   1.00
C145   C     0.66358   0.31431   0.06283   0.00000  Uiso   1.00
C146   C     0.66724   0.34363   0.00457   0.00000  Uiso   1.00
C147   C     0.66009   0.40145   0.93128   0.00000  Uiso   1.00
C148   C     0.73519   0.24542   0.08502   0.00000  Uiso   1.00
C149   C     0.74367   0.25709   0.14003   0.00000  Uiso   1.00
C150   C     0.78397   0.26023   0.11708   0.00000  Uiso   1.00
C151   C     0.84438   0.26977   0.10890   0.00000  Uiso   1.00
C152   C     0.74976   0.22495   0.95907   0.00000  Uiso   1.00
C153   C     0.72236   0.17975   0.99463   0.00000  Uiso   1.00
C154   C     0.72606   0.13457   0.95888   0.00000  Uiso   1.00
C155   C     0.69797   0.09786   0.00113   0.00000  Uiso   1.00
C156   C     0.72235   0.26829   0.96781   0.00000  Uiso   1.00
C157   C     0.72607   0.29756   0.90950   0.00000  Uiso   1.00
C158   C     0.69798   0.33539   0.92916   0.00000  Uiso   1.00
C159   C     0.76587   0.23719   0.00974   0.00000  Uiso   1.00
C160   C     0.80616   0.24033   0.98670   0.00000  Uiso   1.00
C161   C     0.81471   0.25199   0.04167   0.00000  Uiso   1.00
H162   H     0.66939   0.24650   0.15626   0.00000  Uiso   1.00
H163   H     0.63984   0.15771   0.17046   0.00000  Uiso   1.00
H164   H     0.63984   0.32067   0.12109   0.00000  Uiso   1.00
H165   H     0.71992   0.26345   0.19827   0.00000  Uiso   1.00
H166   H     0.62058   0.05564   0.15299   0.00000  Uiso   1.00
H167   H     0.62060   0.39928   0.04890   0.00000  Uiso   1.00
H168   H     0.78947   0.27861   0.21166   0.00000  Uiso   1.00
H169   H     0.77365   0.21854   0.90047   0.00000  Uiso   1.00
H170   H     0.74981   0.12821   0.90063   0.00000  Uiso   1.00
H171   H     0.74981   0.29118   0.85126   0.00000  Uiso   1.00
H172   H     0.82989   0.23396   0.92845   0.00000  Uiso   1.00
H173   H     0.70984   0.03170   0.93399   0.00000  Uiso   1.00
H174   H     0.70986   0.37534   0.82990   0.00000  Uiso   1.00
H175   H     0.87873   0.25467   0.99266   0.00000  Uiso   1.00
O176   O     0.64764   0.98476   0.04821   0.00000  Uiso   1.00
O177   O     0.14767   0.93561   0.91164   0.00000  Uiso   1.00
O178   O     0.86922   0.27729   0.12518   0.00000  Uiso   1.00
N179   N     0.64487   0.06240   0.10143   0.00000  Uiso   1.00
N180   N     0.64488   0.38368   0.00411   0.00000  Uiso   1.00
N181   N     0.80276   0.27088   0.15627   0.00000  Uiso   1.00
N182   N     0.69290   0.04952   0.98359   0.00000  Uiso   1.00
N183   N     0.69291   0.37080   0.88627   0.00000  Uiso   1.00
N184   N     0.85079   0.25800   0.03843   0.00000  Uiso   1.00
C185   C     0.06990   0.92238   0.24773   0.00000  Uiso   1.00
C186   C     0.03816   0.95801   0.30562   0.00000  Uiso   1.00
C187   C     0.03148   0.00654   0.29148   0.00000  Uiso   1.00
C188   C     0.00100   0.03304   0.35199   0.00000  Uiso   1.00
C189   C     0.95520   0.09158   0.43091   0.00000  Uiso   1.00
C190   C     0.04723   0.87581   0.24866   0.00000  Uiso   1.00
C191   C     0.04819   0.85524   0.18663   0.00000  Uiso   1.00
C192   C     0.02536   0.81254   0.19918   0.00000  Uiso   1.00
C193   C     0.49366   0.24346   0.18966   0.00000  Uiso   1.00
C194   C     0.09535   0.90644   0.27978   0.00000  Uiso   1.00
C195   C     0.63676   0.41161   0.24391   0.00000  Uiso   1.00
C196   C     0.65443   0.39470   0.28266   0.00000  Uiso   1.00
C197   C     0.69744   0.37317   0.32146   0.00000  Uiso   1.00
C198   C     0.02764   0.88315   0.38033   0.00000  Uiso   1.00
C199   C     0.01521   0.93669   0.37764   0.00000  Uiso   1.00
C200   C     0.98473   0.96313   0.43818   0.00000  Uiso   1.00
C201   C     0.97801   0.01169   0.42414   0.00000  Uiso   1.00
C202   C     0.02428   0.85450   0.32068   0.00000  Uiso   1.00
C203   C     0.00144   0.81183   0.33333   0.00000  Uiso   1.00
C204   C     0.00236   0.79119   0.27133   0.00000  Uiso   1.00
C205   C     0.07240   0.88513   0.35180   0.00000  Uiso   1.00
C206   C     0.59001   0.36820   0.39061   0.00000  Uiso   1.00
C207   C     0.63144   0.37334   0.35481   0.00000  Uiso   1.00
H208   H     0.08777   0.93897   0.19166   0.00000  Uiso   1.00
H209   H     0.04925   0.02301   0.23574   0.00000  Uiso   1.00
H210   H     0.06596   0.87173   0.13090   0.00000  Uiso   1.00
H211   H     0.65451   0.42810   0.18818   0.00000  Uiso   1.00
H212   H     0.99641   0.10678   0.31636   0.00000  Uiso   1.00
H213   H     0.53166   0.28779   0.09530   0.00000  Uiso   1.00
H214   H     0.71839   0.40665   0.21607   0.00000  Uiso   1.00
H215   H     0.00978   0.86656   0.43640   0.00000  Uiso   1.00
H216   H     0.96698   0.94663   0.49391   0.00000  Uiso   1.00
H217   H     0.98369   0.79535   0.38907   0.00000  Uiso   1.00
H218   H     0.57224   0.35171   0.44635   0.00000  Uiso   1.00
H219   H     0.92963   0.04479   0.52590   0.00000  Uiso   1.00
H220   H     0.46488   0.22579   0.30484   0.00000  Uiso   1.00
H221   H     0.65162   0.34466   0.42562   0.00000  Uiso   1.00
O222   O     0.93627   0.12976   0.45454   0.00000  Uiso   1.00
O223   O     0.48252   0.21125   0.16451   0.00000  Uiso   1.00
O224   O     0.72750   0.36720   0.32297   0.00000  Uiso   1.00
N225   N     0.98657   0.08121   0.35779   0.00000  Uiso   1.00
N226   N     0.51952   0.28297   0.15111   0.00000  Uiso   1.00
N227   N     0.69410   0.39409   0.26402   0.00000  Uiso   1.00
N228   N     0.95064   0.04785   0.47054   0.00000  Uiso   1.00
N229   N     0.48359   0.24961   0.26386   0.00000  Uiso   1.00
N230   N     0.65817   0.36073   0.37677   0.00000  Uiso   1.00
C231   C     0.07807   0.02589   0.04931   0.00000  Uiso   1.00
C232   C     0.08361   0.06639   0.99316   0.00000  Uiso   1.00
C233   C     0.09720   0.05893   0.91746   0.00000  Uiso   1.00
C234   C     0.10018   0.10081   0.87553   0.00000  Uiso   1.00
C235   C     0.61032   0.65645   0.78338   0.00000  Uiso   1.00
C236   C     0.03433   0.02936   0.11433   0.00000  Uiso   1.00
C237   C     0.00648   0.99076   0.14052   0.00000  Uiso   1.00
C238   C     0.96798   0.00147   0.20061   0.00000  Uiso   1.00
C239   C     0.90161   0.99961   0.29662   0.00000  Uiso   1.00
C240   C     0.10335   0.04198   0.08166   0.00000  Uiso   1.00
C241   C     0.13352   0.01398   0.08039   0.00000  Uiso   1.00
C242   C     0.15312   0.03530   0.11298   0.00000  Uiso   1.00
C243   C     0.69392   0.55303   0.15826   0.00000  Uiso   1.00
C244   C     0.05921   0.11353   0.10946   0.00000  Uiso   1.00
C245   C     0.07336   0.11399   0.02583   0.00000  Uiso   1.00
C246   C     0.57633   0.65590   0.98401   0.00000  Uiso   1.00
C247   C     0.58992   0.64850   0.90826   0.00000  Uiso   1.00
C248   C     0.02408   0.07696   0.14701   0.00000  Uiso   1.00
C249   C     0.98561   0.08773   0.20707   0.00000  Uiso   1.00
C250   C     0.95771   0.04916   0.23334   0.00000  Uiso   1.00
C251   C     0.09310   0.08958   0.11433   0.00000  Uiso   1.00
C252   C     0.61265   0.61095   0.14694   0.00000  Uiso   1.00
C253   C     0.64286   0.58299   0.14572   0.00000  Uiso   1.00
H254   H     0.08605   0.98883   0.02388   0.00000  Uiso   1.00
H255   H     0.10512   0.02209   0.89220   0.00000  Uiso   1.00
H256   H     0.01442   0.95393   0.11523   0.00000  Uiso   1.00
H257   H     0.14144   0.97715   0.05510   0.00000  Uiso   1.00
H258   H     0.12174   0.07995   0.76062   0.00000  Uiso   1.00
H259   H     0.93049   0.93623   0.23092   0.00000  Uiso   1.00
H260   H     0.19834   0.98518   0.10413   0.00000  Uiso   1.00
H261   H     0.05123   0.15059   0.13490   0.00000  Uiso   1.00
H262   H     0.56840   0.69273   0.00931   0.00000  Uiso   1.00
H263   H     0.97769   0.12457   0.23234   0.00000  Uiso   1.00
H264   H     0.60472   0.64779   0.17222   0.00000  Uiso   1.00
H265   H     0.59193   0.71845   0.85567   0.00000  Uiso   1.00
H266   H     0.90068   0.07473   0.32597   0.00000  Uiso   1.00
H267   H     0.66853   0.62368   0.19918   0.00000  Uiso   1.00
O268   O     0.61874   0.67399   0.72353   0.00000  Uiso   1.00
O269   O     0.86784   0.98544   0.34055   0.00000  Uiso   1.00
O270   O     0.71925   0.54966   0.17421   0.00000  Uiso   1.00
N271   N     0.61237   0.60676   0.80022   0.00000  Uiso   1.00
N272   N     0.93357   0.97240   0.23991   0.00000  Uiso   1.00
N273   N     0.18398   0.01816   0.12140   0.00000  Uiso   1.00
N274   N     0.59633   0.68129   0.85137   0.00000  Uiso   1.00
N275   N     0.91753   0.04692   0.29106   0.00000  Uiso   1.00
N276   N     0.66794   0.59268   0.17254   0.00000  Uiso   1.00
C277   C     0.12897   0.36731   0.49301   0.00000  Uiso   1.00
C278   C     0.12690   0.32543   0.44563   0.00000  Uiso   1.00
C279   C     0.14810   0.32366   0.36728   0.00000  Uiso   1.00
C280   C     0.14205   0.28214   0.33460   0.00000  Uiso   1.00
C281   C     0.14281   0.22296   0.25430   0.00000  Uiso   1.00
C282   C     0.08587   0.38549   0.54489   0.00000  Uiso   1.00
C283   C     0.07259   0.43422   0.55000   0.00000  Uiso   1.00
C284   C     0.03200   0.44326   0.60088   0.00000  Uiso   1.00
C285   C     0.96907   0.47733   0.67473   0.00000  Uiso   1.00
C286   C     0.14093   0.34264   0.54424   0.00000  Uiso   1.00
C287   C     0.17394   0.35534   0.54883   0.00000  Uiso   1.00
C288   C     0.17970   0.32831   0.59920   0.00000  Uiso   1.00
C289   C     0.20227   0.29584   0.67205   0.00000  Uiso   1.00
C290   C     0.08050   0.29673   0.57431   0.00000  Uiso   1.00
C291   C     0.10057   0.28709   0.48979   0.00000  Uiso   1.00
C292   C     0.09448   0.24556   0.45722   0.00000  Uiso   1.00
C293   C     0.11567   0.24373   0.37884   0.00000  Uiso   1.00
C294   C     0.05954   0.34716   0.58904   0.00000  Uiso   1.00
C295   C     0.01896   0.35612   0.63994   0.00000  Uiso   1.00
C296   C     0.00562   0.40485   0.64512   0.00000  Uiso   1.00
C297   C     0.11461   0.30430   0.58840   0.00000  Uiso   1.00
C298   C     0.12031   0.27724   0.63878   0.00000  Uiso   1.00
C299   C     0.15333   0.28990   0.64344   0.00000  Uiso   1.00
H300   H     0.14947   0.39716   0.45864   0.00000  Uiso   1.00
H301   H     0.16847   0.35334   0.33312   0.00000  Uiso   1.00
H302   H     0.09297   0.46388   0.51582   0.00000  Uiso   1.00
H303   H     0.19431   0.38501   0.51465   0.00000  Uiso   1.00
H304   H     0.17792   0.28786   0.21344   0.00000  Uiso   1.00
H305   H     0.01872   0.52095   0.59868   0.00000  Uiso   1.00
H306   H     0.23241   0.35464   0.59623   0.00000  Uiso   1.00
H307   H     0.06000   0.26688   0.60870   0.00000  Uiso   1.00
H308   H     0.07410   0.21590   0.49141   0.00000  Uiso   1.00
H309   H     0.99860   0.32645   0.67411   0.00000  Uiso   1.00
H310   H     0.09993   0.24758   0.67294   0.00000  Uiso   1.00
H311   H     0.10132   0.17630   0.34191   0.00000  Uiso   1.00
H312   H     0.94213   0.40940   0.72716   0.00000  Uiso   1.00
H313   H     0.15581   0.24308   0.72470   0.00000  Uiso   1.00
O314   O     0.15050   0.20091   0.19781   0.00000  Uiso   1.00
O315   O     0.94164   0.50671   0.70325   0.00000  Uiso   1.00
O316   O     0.22200   0.28852   0.70002   0.00000  Uiso   1.00
N317   N     0.15797   0.26859   0.25977   0.00000  Uiso   1.00
N318   N     0.00912   0.48652   0.61994   0.00000  Uiso   1.00
N319   N     0.20890   0.33104   0.61766   0.00000  Uiso   1.00
N320   N     0.11675   0.20857   0.32890   0.00000  Uiso   1.00
N321   N     0.96791   0.42649   0.68907   0.00000  Uiso   1.00
N322   N     0.16768   0.27102   0.68679   0.00000  Uiso   1.00
C323   C     0.22471   0.57375   0.53111   0.00000  Uiso   1.00
C324   C     0.21522   0.62364   0.50867   0.00000  Uiso   1.00
C325   C     0.17830   0.64781   0.54647   0.00000  Uiso   1.00
C326   C     0.17574   0.69313   0.51694   0.00000  Uiso   1.00
C327   C     0.15595   0.76748   0.49197   0.00000  Uiso   1.00
C328   C     0.24054   0.53988   0.46228   0.00000  Uiso   1.00
C329   C     0.22490   0.49363   0.46109   0.00000  Uiso   1.00
C330   C     0.24365   0.46845   0.39252   0.00000  Uiso   1.00
C331   C     0.26318   0.41275   0.29554   0.00000  Uiso   1.00
C332   C     0.26025   0.58344   0.54037   0.00000  Uiso   1.00
C333   C     0.26119   0.57380   0.60483   0.00000  Uiso   1.00
C334   C     0.29654   0.58528   0.60200   0.00000  Uiso   1.00
C335   C     0.34668   0.59721   0.62626   0.00000  Uiso   1.00
C336   C     0.28583   0.61127   0.41145   0.00000  Uiso   1.00
C337   C     0.24842   0.64401   0.44367   0.00000  Uiso   1.00
C338   C     0.24592   0.68932   0.41409   0.00000  Uiso   1.00
C339   C     0.20899   0.71355   0.45184   0.00000  Uiso   1.00
C340   C     0.27373   0.56026   0.39729   0.00000  Uiso   1.00
C341   C     0.29251   0.53514   0.32871   0.00000  Uiso   1.00
C342   C     0.27690   0.48886   0.32741   0.00000  Uiso   1.00
C343   C     0.29345   0.60382   0.47538   0.00000  Uiso   1.00
C344   C     0.32881   0.61531   0.47245   0.00000  Uiso   1.00
C345   C     0.32980   0.60569   0.53689   0.00000  Uiso   1.00
H346   H     0.19887   0.55788   0.58170   0.00000  Uiso   1.00
H347   H     0.15262   0.63202   0.59676   0.00000  Uiso   1.00
H348   H     0.19921   0.47787   0.51139   0.00000  Uiso   1.00
H349   H     0.23550   0.55803   0.65511   0.00000  Uiso   1.00
H350   H     0.11597   0.72320   0.58477   0.00000  Uiso   1.00
H351   H     0.21423   0.39815   0.40478   0.00000  Uiso   1.00
H352   H     0.29074   0.56717   0.70784   0.00000  Uiso   1.00
H353   H     0.31167   0.62713   0.36085   0.00000  Uiso   1.00
H354   H     0.27161   0.70508   0.36379   0.00000  Uiso   1.00
H355   H     0.31820   0.55092   0.27843   0.00000  Uiso   1.00
H356   H     0.35449   0.63108   0.42215   0.00000  Uiso   1.00
H357   H     0.21255   0.78249   0.39569   0.00000  Uiso   1.00
H358   H     0.31081   0.45743   0.21570   0.00000  Uiso   1.00
H359   H     0.38732   0.62647   0.51876   0.00000  Uiso   1.00
O360   O     0.13587   0.80286   0.49613   0.00000  Uiso   1.00
O361   O     0.26478   0.37640   0.26000   0.00000  Uiso   1.00
O362   O     0.36517   0.59816   0.65760   0.00000  Uiso   1.00
N363   N     0.14420   0.72646   0.53988   0.00000  Uiso   1.00
N364   N     0.23606   0.42256   0.37159   0.00000  Uiso   1.00
N365   N     0.30760   0.58057   0.65492   0.00000  Uiso   1.00
N366   N     0.19617   0.75837   0.43813   0.00000  Uiso   1.00
N367   N     0.28803   0.45446   0.26985   0.00000  Uiso   1.00
N368   N     0.35957   0.61248   0.55318   0.00000  Uiso   1.00
C369   C     0.09536   0.43177   0.74477   0.00000  Uiso   1.00
C370   C     0.05616   0.40369   0.79567   0.00000  Uiso   1.00
C371   C     0.04349   0.36121   0.77592   0.00000  Uiso   1.00
C372   C     0.00669   0.34111   0.83049   0.00000  Uiso   1.00
C373   C     0.94935   0.29422   0.89861   0.00000  Uiso   1.00
C374   C     0.08340   0.48550   0.74167   0.00000  Uiso   1.00
C375   C     0.09363   0.51180   0.67652   0.00000  Uiso   1.00
C376   C     0.07976   0.56057   0.68564   0.00000  Uiso   1.00
C377   C     0.06474   0.64070   0.66991   0.00000  Uiso   1.00
C378   C     0.11716   0.43344   0.78745   0.00000  Uiso   1.00
C379   C     0.15578   0.41599   0.76079   0.00000  Uiso   1.00
C380   C     0.17034   0.42094   0.80844   0.00000  Uiso   1.00
C381   C     0.20773   0.42025   0.86379   0.00000  Uiso   1.00
C382   C     0.05253   0.47162   0.87681   0.00000  Uiso   1.00
C383   C     0.03290   0.42533   0.86739   0.00000  Uiso   1.00
C384   C     0.99610   0.40529   0.92201   0.00000  Uiso   1.00
C385   C     0.98338   0.36278   0.90234   0.00000  Uiso   1.00
C386   C     0.06014   0.50714   0.81339   0.00000  Uiso   1.00
C387   C     0.04625   0.55588   0.82260   0.00000  Uiso   1.00
C388   C     0.05646   0.58225   0.75749   0.00000  Uiso   1.00
C389   C     0.09389   0.45508   0.85917   0.00000  Uiso   1.00
C390   C     0.10839   0.46007   0.90687   0.00000  Uiso   1.00
C391   C     0.14703   0.44262   0.88028   0.00000  Uiso   1.00
H392   H     0.11347   0.41493   0.68894   0.00000  Uiso   1.00
H393   H     0.06150   0.34447   0.72041   0.00000  Uiso   1.00
H394   H     0.11164   0.49504   0.62103   0.00000  Uiso   1.00
H395   H     0.17378   0.39924   0.70529   0.00000  Uiso   1.00
H396   H     0.99362   0.27592   0.78693   0.00000  Uiso   1.00
H397   H     0.09935   0.59341   0.57737   0.00000  Uiso   1.00
H398   H     0.23038   0.39140   0.75504   0.00000  Uiso   1.00
H399   H     0.03441   0.48847   0.93265   0.00000  Uiso   1.00
H400   H     0.97811   0.42204   0.97750   0.00000  Uiso   1.00
H401   H     0.02825   0.57262   0.87811   0.00000  Uiso   1.00
H402   H     0.09038   0.47682   0.96237   0.00000  Uiso   1.00
H403   H     0.92593   0.33888   0.99559   0.00000  Uiso   1.00
H404   H     0.03167   0.65637   0.78603   0.00000  Uiso   1.00
H405   H     0.16269   0.45436   0.96369   0.00000  Uiso   1.00
O406   O     0.42416   0.76238   0.91636   0.00000  Uiso   1.00
O407   O     0.06288   0.67892   0.64143   0.00000  Uiso   1.00
O408   O     0.23478   0.41389   0.87452   0.00000  Uiso   1.00
N409   N     0.98542   0.29984   0.82989   0.00000  Uiso   1.00
N410   N     0.08427   0.59668   0.63396   0.00000  Uiso   1.00
N411   N     0.20677   0.40783   0.80006   0.00000  Uiso   1.00
N412   N     0.94900   0.33372   0.94217   0.00000  Uiso   1.00
N413   N     0.04785   0.63055   0.74624   0.00000  Uiso   1.00
N414   N     0.17035   0.44170   0.91233   0.00000  Uiso   1.00
C415   C     0.19328   0.74009   0.09766   0.00000  Uiso   1.00
C416   C     0.19168   0.68797   0.06990   0.00000  Uiso   1.00
C417   C     0.16358   0.65132   0.11221   0.00000  Uiso   1.00
C418   C     0.16724   0.60610   0.07653   0.00000  Uiso   1.00
C419   C     0.16007   0.52643   0.04488   0.00000  Uiso   1.00
C420   C     0.19168   0.77651   0.04308   0.00000  Uiso   1.00
C421   C     0.16358   0.81431   0.06283   0.00000  Uiso   1.00
C422   C     0.16724   0.84363   0.00457   0.00000  Uiso   1.00
C423   C     0.16009   0.90145   0.93128   0.00000  Uiso   1.00
C424   C     0.23519   0.74542   0.08502   0.00000  Uiso   1.00
C425   C     0.24367   0.75709   0.14003   0.00000  Uiso   1.00
C426   C     0.28397   0.76023   0.11708   0.00000  Uiso   1.00
C427   C     0.34438   0.76977   0.10890   0.00000  Uiso   1.00
C428   C     0.24976   0.72495   0.95907   0.00000  Uiso   1.00
C429   C     0.22236   0.67975   0.99463   0.00000  Uiso   1.00
C430   C     0.22606   0.63457   0.95888   0.00000  Uiso   1.00
C431   C     0.19797   0.59786   0.00113   0.00000  Uiso   1.00
C432   C     0.22235   0.76829   0.96781   0.00000  Uiso   1.00
C433   C     0.22607   0.79756   0.90950   0.00000  Uiso   1.00
C434   C     0.19798   0.83539   0.92916   0.00000  Uiso   1.00
C435   C     0.26587   0.73719   0.00974   0.00000  Uiso   1.00
C436   C     0.30616   0.74033   0.98670   0.00000  Uiso   1.00
C437   C     0.31471   0.75199   0.04167   0.00000  Uiso   1.00
H438   H     0.16939   0.74650   0.15626   0.00000  Uiso   1.00
H439   H     0.13984   0.65771   0.17046   0.00000  Uiso   1.00
H440   H     0.13984   0.82067   0.12109   0.00000  Uiso   1.00
H441   H     0.21992   0.76345   0.19827   0.00000  Uiso   1.00
H442   H     0.12058   0.55564   0.15299   0.00000  Uiso   1.00
H443   H     0.12060   0.89928   0.04890   0.00000  Uiso   1.00
H444   H     0.28947   0.77861   0.21166   0.00000  Uiso   1.00
H445   H     0.27365   0.71854   0.90047   0.00000  Uiso   1.00
H446   H     0.24981   0.62821   0.90063   0.00000  Uiso   1.00
H447   H     0.24981   0.79118   0.85126   0.00000  Uiso   1.00
H448   H     0.32989   0.73396   0.92845   0.00000  Uiso   1.00
H449   H     0.20984   0.53170   0.93399   0.00000  Uiso   1.00
H450   H     0.20986   0.87534   0.82990   0.00000  Uiso   1.00
H451   H     0.37873   0.75467   0.99266   0.00000  Uiso   1.00
O452   O     0.14764   0.48476   0.04821   0.00000  Uiso   1.00
O453   O     0.64767   0.43561   0.91164   0.00000  Uiso   1.00
O454   O     0.36922   0.77729   0.12518   0.00000  Uiso   1.00
N455   N     0.14487   0.56240   0.10143   0.00000  Uiso   1.00
N456   N     0.14488   0.88368   0.00411   0.00000  Uiso   1.00
N457   N     0.30276   0.77088   0.15627   0.00000  Uiso   1.00
N458   N     0.19290   0.54952   0.98359   0.00000  Uiso   1.00
N459   N     0.19291   0.87080   0.88627   0.00000  Uiso   1.00
N460   N     0.35079   0.75800   0.03843   0.00000  Uiso   1.00
C461   C     0.56990   0.42238   0.24773   0.00000  Uiso   1.00
C462   C     0.53816   0.45801   0.30562   0.00000  Uiso   1.00
C463   C     0.53148   0.50654   0.29148   0.00000  Uiso   1.00
C464   C     0.50100   0.53304   0.35199   0.00000  Uiso   1.00
C465   C     0.45520   0.59158   0.43091   0.00000  Uiso   1.00
C466   C     0.54723   0.37581   0.24866   0.00000  Uiso   1.00
C467   C     0.54819   0.35524   0.18663   0.00000  Uiso   1.00
C468   C     0.52536   0.31254   0.19918   0.00000  Uiso   1.00
C469   C     0.99366   0.74346   0.18966   0.00000  Uiso   1.00
C470   C     0.59535   0.40644   0.27978   0.00000  Uiso   1.00
C471   C     0.13676   0.91161   0.24391   0.00000  Uiso   1.00
C472   C     0.15443   0.89470   0.28266   0.00000  Uiso   1.00
C473   C     0.19744   0.87317   0.32146   0.00000  Uiso   1.00
C474   C     0.52764   0.38315   0.38033   0.00000  Uiso   1.00
C475   C     0.51521   0.43669   0.37764   0.00000  Uiso   1.00
C476   C     0.48473   0.46313   0.43818   0.00000  Uiso   1.00
C477   C     0.47801   0.51169   0.42414   0.00000  Uiso   1.00
C478   C     0.52428   0.35450   0.32068   0.00000  Uiso   1.00
C479   C     0.50144   0.31183   0.33333   0.00000  Uiso   1.00
C480   C     0.50236   0.29119   0.27133   0.00000  Uiso   1.00
C481   C     0.57240   0.38513   0.35180   0.00000  Uiso   1.00
C482   C     0.09001   0.86820   0.39061   0.00000  Uiso   1.00
C483   C     0.13144   0.87334   0.35481   0.00000  Uiso   1.00
H484   H     0.58777   0.43897   0.19166   0.00000  Uiso   1.00
H485   H     0.54925   0.52301   0.23574   0.00000  Uiso   1.00
H486   H     0.56596   0.37173   0.13090   0.00000  Uiso   1.00
H487   H     0.15451   0.92810   0.18818   0.00000  Uiso   1.00
H488   H     0.49641   0.60678   0.31636   0.00000  Uiso   1.00
H489   H     0.03166   0.78779   0.09530   0.00000  Uiso   1.00
H490   H     0.21839   0.90665   0.21607   0.00000  Uiso   1.00
H491   H     0.50978   0.36656   0.43640   0.00000  Uiso   1.00
H492   H     0.46698   0.44663   0.49391   0.00000  Uiso   1.00
H493   H     0.48369   0.29535   0.38907   0.00000  Uiso   1.00
H494   H     0.07224   0.85171   0.44635   0.00000  Uiso   1.00
H495   H     0.42963   0.54479   0.52590   0.00000  Uiso   1.00
H496   H     0.96488   0.72579   0.30484   0.00000  Uiso   1.00
H497   H     0.15162   0.84466   0.42562   0.00000  Uiso   1.00
O498   O     0.43627   0.62976   0.45454   0.00000  Uiso   1.00
O499   O     0.98252   0.71125   0.16451   0.00000  Uiso   1.00
O500   O     0.22750   0.86720   0.32297   0.00000  Uiso   1.00
N501   N     0.48657   0.58121   0.35779   0.00000  Uiso   1.00
N502   N     0.01952   0.78297   0.15111   0.00000  Uiso   1.00
N503   N     0.19410   0.89409   0.26402   0.00000  Uiso   1.00
N504   N     0.45064   0.54785   0.47054   0.00000  Uiso   1.00
N505   N     0.98359   0.74961   0.26386   0.00000  Uiso   1.00
N506   N     0.15817   0.86073   0.37677   0.00000  Uiso   1.00
C507   C     0.57807   0.52589   0.04931   0.00000  Uiso   1.00
C508   C     0.58361   0.56639   0.99316   0.00000  Uiso   1.00
C509   C     0.59720   0.55893   0.91746   0.00000  Uiso   1.00
C510   C     0.60018   0.60081   0.87553   0.00000  Uiso   1.00
C511   C     0.11032   0.15645   0.78338   0.00000  Uiso   1.00
C512   C     0.53433   0.52936   0.11433   0.00000  Uiso   1.00
C513   C     0.50648   0.49076   0.14052   0.00000  Uiso   1.00
C514   C     0.46798   0.50147   0.20061   0.00000  Uiso   1.00
C515   C     0.40161   0.49961   0.29662   0.00000  Uiso   1.00
C516   C     0.60335   0.54198   0.08166   0.00000  Uiso   1.00
C517   C     0.63352   0.51398   0.08039   0.00000  Uiso   1.00
C518   C     0.65312   0.53530   0.11298   0.00000  Uiso   1.00
C519   C     0.19392   0.05303   0.15826   0.00000  Uiso   1.00
C520   C     0.55921   0.61353   0.10946   0.00000  Uiso   1.00
C521   C     0.57336   0.61399   0.02583   0.00000  Uiso   1.00
C522   C     0.07633   0.15590   0.98401   0.00000  Uiso   1.00
C523   C     0.08992   0.14850   0.90826   0.00000  Uiso   1.00
C524   C     0.52408   0.57696   0.14701   0.00000  Uiso   1.00
C525   C     0.48561   0.58773   0.20707   0.00000  Uiso   1.00
C526   C     0.45771   0.54916   0.23334   0.00000  Uiso   1.00
C527   C     0.59310   0.58958   0.11433   0.00000  Uiso   1.00
C528   C     0.11265   0.11095   0.14694   0.00000  Uiso   1.00
C529   C     0.14286   0.08299   0.14572   0.00000  Uiso   1.00
H530   H     0.58605   0.48883   0.02388   0.00000  Uiso   1.00
H531   H     0.60512   0.52209   0.89220   0.00000  Uiso   1.00
H532   H     0.51442   0.45393   0.11523   0.00000  Uiso   1.00
H533   H     0.64144   0.47715   0.05510   0.00000  Uiso   1.00
H534   H     0.62174   0.57995   0.76062   0.00000  Uiso   1.00
H535   H     0.43049   0.43623   0.23092   0.00000  Uiso   1.00
H536   H     0.69834   0.48518   0.10413   0.00000  Uiso   1.00
H537   H     0.55123   0.65059   0.13490   0.00000  Uiso   1.00
H538   H     0.06840   0.19273   0.00931   0.00000  Uiso   1.00
H539   H     0.47769   0.62457   0.23234   0.00000  Uiso   1.00
H540   H     0.10472   0.14779   0.17222   0.00000  Uiso   1.00
H541   H     0.09193   0.21845   0.85567   0.00000  Uiso   1.00
H542   H     0.40068   0.57473   0.32597   0.00000  Uiso   1.00
H543   H     0.16853   0.12368   0.19918   0.00000  Uiso   1.00
O544   O     0.11874   0.17399   0.72353   0.00000  Uiso   1.00
O545   O     0.36784   0.48544   0.34055   0.00000  Uiso   1.00
O546   O     0.21925   0.04966   0.17421   0.00000  Uiso   1.00
N547   N     0.11237   0.10676   0.80022   0.00000  Uiso   1.00
N548   N     0.43357   0.47240   0.23991   0.00000  Uiso   1.00
N549   N     0.68398   0.51816   0.12140   0.00000  Uiso   1.00
N550   N     0.09633   0.18129   0.85137   0.00000  Uiso   1.00
N551   N     0.41753   0.54692   0.29106   0.00000  Uiso   1.00
N552   N     0.16794   0.09268   0.17254   0.00000  Uiso   1.00
C553   C     0.37103   0.86731   0.50699   0.00000  Uiso   1.00
C554   C     0.37310   0.82543   0.55437   0.00000  Uiso   1.00
C555   C     0.35190   0.82366   0.63272   0.00000  Uiso   1.00
C556   C     0.35795   0.78214   0.66540   0.00000  Uiso   1.00
C557   C     0.35719   0.72296   0.74570   0.00000  Uiso   1.00
C558   C     0.41413   0.88549   0.45511   0.00000  Uiso   1.00
C559   C     0.42741   0.93422   0.45000   0.00000  Uiso   1.00
C560   C     0.46800   0.94326   0.39912   0.00000  Uiso   1.00
C561   C     0.53093   0.97733   0.32527   0.00000  Uiso   1.00
C562   C     0.35907   0.84264   0.45576   0.00000  Uiso   1.00
C563   C     0.32606   0.85534   0.45117   0.00000  Uiso   1.00
C564   C     0.32030   0.82831   0.40080   0.00000  Uiso   1.00
C565   C     0.29773   0.79584   0.32795   0.00000  Uiso   1.00
C566   C     0.41950   0.79673   0.42569   0.00000  Uiso   1.00
C567   C     0.39943   0.78709   0.51021   0.00000  Uiso   1.00
C568   C     0.40552   0.74556   0.54278   0.00000  Uiso   1.00
C569   C     0.38433   0.74373   0.62116   0.00000  Uiso   1.00
C570   C     0.44046   0.84716   0.41096   0.00000  Uiso   1.00
C571   C     0.48104   0.85612   0.36006   0.00000  Uiso   1.00
C572   C     0.49438   0.90485   0.35488   0.00000  Uiso   1.00
C573   C     0.38539   0.80430   0.41160   0.00000  Uiso   1.00
C574   C     0.37969   0.77724   0.36122   0.00000  Uiso   1.00
C575   C     0.34667   0.78990   0.35656   0.00000  Uiso   1.00
H576   H     0.35053   0.89716   0.54136   0.00000  Uiso   1.00
H577   H     0.33153   0.85334   0.66688   0.00000  Uiso   1.00
H578   H     0.40703   0.96388   0.48418   0.00000  Uiso   1.00
H579   H     0.30569   0.88501   0.48535   0.00000  Uiso   1.00
H580   H     0.32208   0.78786   0.78656   0.00000  Uiso   1.00
H581   H     0.48128   0.02095   0.40132   0.00000  Uiso   1.00
H582   H     0.26759   0.85464   0.40377   0.00000  Uiso   1.00
H583   H     0.44000   0.76688   0.39130   0.00000  Uiso   1.00
H584   H     0.42590   0.71590   0.50859   0.00000  Uiso   1.00
H585   H     0.50140   0.82645   0.32589   0.00000  Uiso   1.00
H586   H     0.40007   0.74758   0.32706   0.00000  Uiso   1.00
H587   H     0.39868   0.67630   0.65809   0.00000  Uiso   1.00
H588   H     0.55787   0.90940   0.27284   0.00000  Uiso   1.00
H589   H     0.34419   0.74308   0.27530   0.00000  Uiso   1.00
O590   O     0.34950   0.70091   0.80219   0.00000  Uiso   1.00
O591   O     0.55836   0.00671   0.29675   0.00000  Uiso   1.00
O592   O     0.27800   0.78852   0.29998   0.00000  Uiso   1.00
N593   N     0.34203   0.76859   0.74023   0.00000  Uiso   1.00
N594   N     0.49088   0.98652   0.38006   0.00000  Uiso   1.00
N595   N     0.29110   0.83104   0.38234   0.00000  Uiso   1.00
N596   N     0.38325   0.70857   0.67110   0.00000  Uiso   1.00
N597   N     0.53209   0.92649   0.31093   0.00000  Uiso   1.00
N598   N     0.33232   0.77102   0.31321   0.00000  Uiso   1.00
C599   C     0.27529   0.07375   0.46889   0.00000  Uiso   1.00
C600   C     0.28478   0.12364   0.49133   0.00000  Uiso   1.00
C601   C     0.32170   0.14781   0.45353   0.00000  Uiso   1.00
C602   C     0.32426   0.19313   0.48306   0.00000  Uiso   1.00
C603   C     0.34405   0.26748   0.50803   0.00000  Uiso   1.00
C604   C     0.25946   0.03988   0.53772   0.00000  Uiso   1.00
C605   C     0.27510   0.99363   0.53891   0.00000  Uiso   1.00
C606   C     0.25635   0.96845   0.60748   0.00000  Uiso   1.00
C607   C     0.23682   0.91275   0.70446   0.00000  Uiso   1.00
C608   C     0.23975   0.08344   0.45963   0.00000  Uiso   1.00
C609   C     0.23881   0.07380   0.39517   0.00000  Uiso   1.00
C610   C     0.20346   0.08528   0.39800   0.00000  Uiso   1.00
C611   C     0.15332   0.09721   0.37374   0.00000  Uiso   1.00
C612   C     0.21417   0.11127   0.58855   0.00000  Uiso   1.00
C613   C     0.25158   0.14401   0.55633   0.00000  Uiso   1.00
C614   C     0.25408   0.18932   0.58591   0.00000  Uiso   1.00
C615   C     0.29101   0.21355   0.54816   0.00000  Uiso   1.00
C616   C     0.22627   0.06026   0.60271   0.00000  Uiso   1.00
C617   C     0.20749   0.03514   0.67129   0.00000  Uiso   1.00
C618   C     0.22310   0.98886   0.67259   0.00000  Uiso   1.00
C619   C     0.20655   0.10382   0.52462   0.00000  Uiso   1.00
C620   C     0.17119   0.11531   0.52755   0.00000  Uiso   1.00
C621   C     0.17020   0.10569   0.46311   0.00000  Uiso   1.00
H622   H     0.30113   0.05788   0.41830   0.00000  Uiso   1.00
H623   H     0.34738   0.13202   0.40324   0.00000  Uiso   1.00
H624   H     0.30079   0.97787   0.48861   0.00000  Uiso   1.00
H625   H     0.26450   0.05803   0.34489   0.00000  Uiso   1.00
H626   H     0.38403   0.22320   0.41523   0.00000  Uiso   1.00
H627   H     0.28577   0.89815   0.59522   0.00000  Uiso   1.00
H628   H     0.20926   0.06717   0.29216   0.00000  Uiso   1.00
H629   H     0.18833   0.12713   0.63915   0.00000  Uiso   1.00
H630   H     0.22839   0.20508   0.63621   0.00000  Uiso   1.00
H631   H     0.18180   0.05092   0.72157   0.00000  Uiso   1.00
H632   H     0.14551   0.13108   0.57785   0.00000  Uiso   1.00
H633   H     0.28745   0.28249   0.60431   0.00000  Uiso   1.00
H634   H     0.18919   0.95743   0.78430   0.00000  Uiso   1.00
H635   H     0.11268   0.12647   0.48124   0.00000  Uiso   1.00
O636   O     0.36413   0.30286   0.50387   0.00000  Uiso   1.00
O637   O     0.23522   0.87640   0.74000   0.00000  Uiso   1.00
O638   O     0.13483   0.09816   0.34240   0.00000  Uiso   1.00
N639   N     0.35580   0.22646   0.46012   0.00000  Uiso   1.00
N640   N     0.26394   0.92256   0.62841   0.00000  Uiso   1.00
N641   N     0.19240   0.08057   0.34508   0.00000  Uiso   1.00
N642   N     0.30383   0.25837   0.56187   0.00000  Uiso   1.00
N643   N     0.21197   0.95446   0.73015   0.00000  Uiso   1.00
N644   N     0.14043   0.11248   0.44682   0.00000  Uiso   1.00
C645   C     0.40464   0.93177   0.25523   0.00000  Uiso   1.00
C646   C     0.44384   0.90369   0.20433   0.00000  Uiso   1.00
C647   C     0.45651   0.86121   0.22408   0.00000  Uiso   1.00
C648   C     0.49331   0.84111   0.16951   0.00000  Uiso   1.00
C649   C     0.55065   0.79422   0.10139   0.00000  Uiso   1.00
C650   C     0.41660   0.98550   0.25833   0.00000  Uiso   1.00
C651   C     0.40637   0.01180   0.32348   0.00000  Uiso   1.00
C652   C     0.42024   0.06057   0.31436   0.00000  Uiso   1.00
C653   C     0.43526   0.14070   0.33009   0.00000  Uiso   1.00
C654   C     0.38284   0.93344   0.21255   0.00000  Uiso   1.00
C655   C     0.34422   0.91599   0.23921   0.00000  Uiso   1.00
C656   C     0.32966   0.92094   0.19156   0.00000  Uiso   1.00
C657   C     0.29227   0.92025   0.13621   0.00000  Uiso   1.00
C658   C     0.44747   0.97162   0.12319   0.00000  Uiso   1.00
C659   C     0.46710   0.92533   0.13261   0.00000  Uiso   1.00
C660   C     0.50390   0.90529   0.07799   0.00000  Uiso   1.00
C661   C     0.51662   0.86278   0.09766   0.00000  Uiso   1.00
C662   C     0.43986   0.00714   0.18661   0.00000  Uiso   1.00
C663   C     0.45375   0.05588   0.17740   0.00000  Uiso   1.00
C664   C     0.44354   0.08225   0.24251   0.00000  Uiso   1.00
C665   C     0.40611   0.95508   0.14083   0.00000  Uiso   1.00
C666   C     0.39161   0.96007   0.09313   0.00000  Uiso   1.00
C667   C     0.35297   0.94262   0.11972   0.00000  Uiso   1.00
H668   H     0.38653   0.91493   0.31106   0.00000  Uiso   1.00
H669   H     0.43850   0.84447   0.27959   0.00000  Uiso   1.00
H670   H     0.38836   0.99504   0.37897   0.00000  Uiso   1.00
H671   H     0.32622   0.89924   0.29471   0.00000  Uiso   1.00
H672   H     0.50638   0.77592   0.21307   0.00000  Uiso   1.00
H673   H     0.40065   0.09341   0.42263   0.00000  Uiso   1.00
H674   H     0.26962   0.89140   0.24496   0.00000  Uiso   1.00
H675   H     0.46559   0.98847   0.06735   0.00000  Uiso   1.00
H676   H     0.52189   0.92204   0.02250   0.00000  Uiso   1.00
H677   H     0.47175   0.07262   0.12189   0.00000  Uiso   1.00
H678   H     0.40962   0.97682   0.03763   0.00000  Uiso   1.00
H679   H     0.57407   0.83888   0.00441   0.00000  Uiso   1.00
H680   H     0.46833   0.15637   0.21397   0.00000  Uiso   1.00
H681   H     0.33731   0.95436   0.03631   0.00000  Uiso   1.00
O682   O     0.07584   0.26238   0.08364   0.00000  Uiso   1.00
O683   O     0.43712   0.17892   0.35857   0.00000  Uiso   1.00
O684   O     0.26522   0.91389   0.12548   0.00000  Uiso   1.00
N685   N     0.51458   0.79984   0.17011   0.00000  Uiso   1.00
N686   N     0.41573   0.09668   0.36604   0.00000  Uiso   1.00
N687   N     0.29323   0.90783   0.19994   0.00000  Uiso   1.00
N688   N     0.55100   0.83372   0.05783   0.00000  Uiso   1.00
N689   N     0.45215   0.13055   0.25376   0.00000  Uiso   1.00
N690   N     0.32965   0.94170   0.08767   0.00000  Uiso   1.00
C691   C     0.30672   0.24009   0.90234   0.00000  Uiso   1.00
C692   C     0.30832   0.18797   0.93010   0.00000  Uiso   1.00
C693   C     0.33642   0.15132   0.88779   0.00000  Uiso   1.00
C694   C     0.33276   0.10610   0.92347   0.00000  Uiso   1.00
C695   C     0.33993   0.02643   0.95512   0.00000  Uiso   1.00
C696   C     0.30832   0.27651   0.95692   0.00000  Uiso   1.00
C697   C     0.33642   0.31431   0.93717   0.00000  Uiso   1.00
C698   C     0.33276   0.34363   0.99543   0.00000  Uiso   1.00
C699   C     0.33991   0.40145   0.06872   0.00000  Uiso   1.00
C700   C     0.26481   0.24542   0.91498   0.00000  Uiso   1.00
C701   C     0.25633   0.25709   0.85997   0.00000  Uiso   1.00
C702   C     0.21603   0.26023   0.88292   0.00000  Uiso   1.00
C703   C     0.15562   0.26977   0.89110   0.00000  Uiso   1.00
C704   C     0.25024   0.22495   0.04093   0.00000  Uiso   1.00
C705   C     0.27764   0.17975   0.00537   0.00000  Uiso   1.00
C706   C     0.27394   0.13457   0.04112   0.00000  Uiso   1.00
C707   C     0.30203   0.09786   0.99887   0.00000  Uiso   1.00
C708   C     0.27765   0.26829   0.03219   0.00000  Uiso   1.00
C709   C     0.27393   0.29756   0.09050   0.00000  Uiso   1.00
C710   C     0.30202   0.33539   0.07084   0.00000  Uiso   1.00
C711   C     0.23413   0.23719   0.99026   0.00000  Uiso   1.00
C712   C     0.19384   0.24033   0.01330   0.00000  Uiso   1.00
C713   C     0.18529   0.25199   0.95833   0.00000  Uiso   1.00
H714   H     0.33061   0.24650   0.84374   0.00000  Uiso   1.00
H715   H     0.36016   0.15771   0.82954   0.00000  Uiso   1.00
H716   H     0.36016   0.32067   0.87891   0.00000  Uiso   1.00
H717   H     0.28008   0.26345   0.80173   0.00000  Uiso   1.00
H718   H     0.37942   0.05564   0.84701   0.00000  Uiso   1.00
H719   H     0.37940   0.39928   0.95110   0.00000  Uiso   1.00
H720   H     0.21053   0.27861   0.78834   0.00000  Uiso   1.00
H721   H     0.22635   0.21854   0.09953   0.00000  Uiso   1.00
H722   H     0.25019   0.12821   0.09937   0.00000  Uiso   1.00
H723   H     0.25019   0.29118   0.14874   0.00000  Uiso   1.00
H724   H     0.17011   0.23396   0.07155   0.00000  Uiso   1.00
H725   H     0.29016   0.03170   0.06601   0.00000  Uiso   1.00
H726   H     0.29014   0.37534   0.17010   0.00000  Uiso   1.00
H727   H     0.12127   0.25467   0.00734   0.00000  Uiso   1.00
O728   O     0.35236   0.98476   0.95179   0.00000  Uiso   1.00
O729   O     0.85233   0.93561   0.08836   0.00000  Uiso   1.00
O730   O     0.13078   0.27729   0.87482   0.00000  Uiso   1.00
N731   N     0.35513   0.06240   0.89857   0.00000  Uiso   1.00
N732   N     0.35512   0.38368   0.99589   0.00000  Uiso   1.00
N733   N     0.19724   0.27088   0.84373   0.00000  Uiso   1.00
N734   N     0.30710   0.04952   0.01641   0.00000  Uiso   1.00
N735   N     0.30709   0.37080   0.11373   0.00000  Uiso   1.00
N736   N     0.14921   0.25800   0.96157   0.00000  Uiso   1.00
C737   C     0.93010   0.92238   0.75227   0.00000  Uiso   1.00
C738   C     0.96184   0.95801   0.69438   0.00000  Uiso   1.00
C739   C     0.96852   0.00654   0.70852   0.00000  Uiso   1.00
C740   C     0.99900   0.03304   0.64801   0.00000  Uiso   1.00
C741   C     0.04480   0.09158   0.56909   0.00000  Uiso   1.00
C742   C     0.95277   0.87581   0.75134   0.00000  Uiso   1.00
C743   C     0.95181   0.85524   0.81337   0.00000  Uiso   1.00
C744   C     0.97464   0.81254   0.80082   0.00000  Uiso   1.00
C745   C     0.50634   0.24346   0.81034   0.00000  Uiso   1.00
C746   C     0.90465   0.90644   0.72022   0.00000  Uiso   1.00
C747   C     0.36324   0.41161   0.75609   0.00000  Uiso   1.00
C748   C     0.34557   0.39470   0.71734   0.00000  Uiso   1.00
C749   C     0.30256   0.37317   0.67854   0.00000  Uiso   1.00
C750   C     0.97236   0.88315   0.61967   0.00000  Uiso   1.00
C751   C     0.98479   0.93669   0.62236   0.00000  Uiso   1.00
C752   C     0.01527   0.96313   0.56182   0.00000  Uiso   1.00
C753   C     0.02199   0.01169   0.57586   0.00000  Uiso   1.00
C754   C     0.97572   0.85450   0.67932   0.00000  Uiso   1.00
C755   C     0.99856   0.81183   0.66667   0.00000  Uiso   1.00
C756   C     0.99764   0.79119   0.72867   0.00000  Uiso   1.00
C757   C     0.92760   0.88513   0.64820   0.00000  Uiso   1.00
C758   C     0.40999   0.36820   0.60939   0.00000  Uiso   1.00
C759   C     0.36856   0.37334   0.64519   0.00000  Uiso   1.00
H760   H     0.91223   0.93897   0.80834   0.00000  Uiso   1.00
H761   H     0.95075   0.02301   0.76426   0.00000  Uiso   1.00
H762   H     0.93404   0.87173   0.86910   0.00000  Uiso   1.00
H763   H     0.34549   0.42810   0.81182   0.00000  Uiso   1.00
H764   H     0.00359   0.10678   0.68364   0.00000  Uiso   1.00
H765   H     0.46834   0.28779   0.90470   0.00000  Uiso   1.00
H766   H     0.28161   0.40665   0.78393   0.00000  Uiso   1.00
H767   H     0.99022   0.86656   0.56360   0.00000  Uiso   1.00
H768   H     0.03302   0.94663   0.50609   0.00000  Uiso   1.00
H769   H     0.01631   0.79535   0.61093   0.00000  Uiso   1.00
H770   H     0.42776   0.35171   0.55365   0.00000  Uiso   1.00
H771   H     0.07037   0.04479   0.47410   0.00000  Uiso   1.00
H772   H     0.53512   0.22579   0.69516   0.00000  Uiso   1.00
H773   H     0.34838   0.34466   0.57438   0.00000  Uiso   1.00
O774   O     0.06373   0.12976   0.54546   0.00000  Uiso   1.00
O775   O     0.51748   0.21125   0.83549   0.00000  Uiso   1.00
O776   O     0.27250   0.36720   0.67703   0.00000  Uiso   1.00
N777   N     0.01343   0.08121   0.64221   0.00000  Uiso   1.00
N778   N     0.48048   0.28297   0.84889   0.00000  Uiso   1.00
N779   N     0.30590   0.39409   0.73598   0.00000  Uiso   1.00
N780   N     0.04936   0.04785   0.52946   0.00000  Uiso   1.00
N781   N     0.51641   0.24961   0.73614   0.00000  Uiso   1.00
N782   N     0.34183   0.36073   0.62323   0.00000  Uiso   1.00
C783   C     0.92193   0.02589   0.95069   0.00000  Uiso   1.00
C784   C     0.91639   0.06639   0.00684   0.00000  Uiso   1.00
C785   C     0.90280   0.05893   0.08254   0.00000  Uiso   1.00
C786   C     0.89982   0.10081   0.12447   0.00000  Uiso   1.00
C787   C     0.38968   0.65645   0.21662   0.00000  Uiso   1.00
C788   C     0.96567   0.02936   0.88567   0.00000  Uiso   1.00
C789   C     0.99352   0.99076   0.85948   0.00000  Uiso   1.00
C790   C     0.03202   0.00147   0.79939   0.00000  Uiso   1.00
C791   C     0.09839   0.99961   0.70338   0.00000  Uiso   1.00
C792   C     0.89665   0.04198   0.91834   0.00000  Uiso   1.00
C793   C     0.86648   0.01398   0.91961   0.00000  Uiso   1.00
C794   C     0.84688   0.03530   0.88702   0.00000  Uiso   1.00
C795   C     0.30608   0.55303   0.84174   0.00000  Uiso   1.00
C796   C     0.94079   0.11353   0.89054   0.00000  Uiso   1.00
C797   C     0.92664   0.11399   0.97417   0.00000  Uiso   1.00
C798   C     0.42367   0.65590   0.01599   0.00000  Uiso   1.00
C799   C     0.41008   0.64850   0.09174   0.00000  Uiso   1.00
C800   C     0.97592   0.07696   0.85299   0.00000  Uiso   1.00
C801   C     0.01439   0.08773   0.79293   0.00000  Uiso   1.00
C802   C     0.04229   0.04916   0.76666   0.00000  Uiso   1.00
C803   C     0.90690   0.08958   0.88567   0.00000  Uiso   1.00
C804   C     0.38735   0.61095   0.85306   0.00000  Uiso   1.00
C805   C     0.35714   0.58299   0.85428   0.00000  Uiso   1.00
H806   H     0.91395   0.98883   0.97612   0.00000  Uiso   1.00
H807   H     0.89488   0.02209   0.10780   0.00000  Uiso   1.00
H808   H     0.98558   0.95393   0.88477   0.00000  Uiso   1.00
H809   H     0.85856   0.97715   0.94490   0.00000  Uiso   1.00
H810   H     0.87826   0.07995   0.23938   0.00000  Uiso   1.00
H811   H     0.06951   0.93623   0.76908   0.00000  Uiso   1.00
H812   H     0.80166   0.98518   0.89587   0.00000  Uiso   1.00
H813   H     0.94877   0.15059   0.86510   0.00000  Uiso   1.00
H814   H     0.43160   0.69273   0.99069   0.00000  Uiso   1.00
H815   H     0.02231   0.12457   0.76766   0.00000  Uiso   1.00
H816   H     0.39528   0.64779   0.82778   0.00000  Uiso   1.00
H817   H     0.40807   0.71845   0.14433   0.00000  Uiso   1.00
H818   H     0.09932   0.07473   0.67403   0.00000  Uiso   1.00
H819   H     0.33147   0.62368   0.80082   0.00000  Uiso   1.00
O820   O     0.38126   0.67399   0.27647   0.00000  Uiso   1.00
O821   O     0.13216   0.98544   0.65945   0.00000  Uiso   1.00
O822   O     0.28075   0.54966   0.82579   0.00000  Uiso   1.00
N823   N     0.38763   0.60676   0.19978   0.00000  Uiso   1.00
N824   N     0.06643   0.97240   0.76009   0.00000  Uiso   1.00
N825   N     0.81602   0.01816   0.87860   0.00000  Uiso   1.00
N826   N     0.40367   0.68129   0.14863   0.00000  Uiso   1.00
N827   N     0.08247   0.04692   0.70894   0.00000  Uiso   1.00
N828   N     0.33206   0.59268   0.82746   0.00000  Uiso   1.00
C829   C     0.87103   0.36731   0.50699   0.00000  Uiso   1.00
C830   C     0.87310   0.32543   0.55437   0.00000  Uiso   1.00
C831   C     0.85190   0.32366   0.63272   0.00000  Uiso   1.00
C832   C     0.85795   0.28214   0.66540   0.00000  Uiso   1.00
C833   C     0.85719   0.22296   0.74570   0.00000  Uiso   1.00
C834   C     0.91413   0.38549   0.45511   0.00000  Uiso   1.00
C835   C     0.92741   0.43422   0.45000   0.00000  Uiso   1.00
C836   C     0.96800   0.44326   0.39912   0.00000  Uiso   1.00
C837   C     0.03093   0.47733   0.32527   0.00000  Uiso   1.00
C838   C     0.85907   0.34264   0.45576   0.00000  Uiso   1.00
C839   C     0.82606   0.35534   0.45117   0.00000  Uiso   1.00
C840   C     0.82030   0.32831   0.40080   0.00000  Uiso   1.00
C841   C     0.79773   0.29584   0.32795   0.00000  Uiso   1.00
C842   C     0.91950   0.29673   0.42569   0.00000  Uiso   1.00
C843   C     0.89943   0.28709   0.51021   0.00000  Uiso   1.00
C844   C     0.90552   0.24556   0.54278   0.00000  Uiso   1.00
C845   C     0.88433   0.24373   0.62116   0.00000  Uiso   1.00
C846   C     0.94046   0.34716   0.41096   0.00000  Uiso   1.00
C847   C     0.98104   0.35612   0.36006   0.00000  Uiso   1.00
C848   C     0.99438   0.40485   0.35488   0.00000  Uiso   1.00
C849   C     0.88539   0.30430   0.41160   0.00000  Uiso   1.00
C850   C     0.87969   0.27724   0.36122   0.00000  Uiso   1.00
C851   C     0.84667   0.28990   0.35656   0.00000  Uiso   1.00
H852   H     0.85053   0.39716   0.54136   0.00000  Uiso   1.00
H853   H     0.83153   0.35334   0.66688   0.00000  Uiso   1.00
H854   H     0.90703   0.46388   0.48418   0.00000  Uiso   1.00
H855   H     0.80569   0.38501   0.48535   0.00000  Uiso   1.00
H856   H     0.82208   0.28786   0.78656   0.00000  Uiso   1.00
H857   H     0.98128   0.52095   0.40132   0.00000  Uiso   1.00
H858   H     0.76759   0.35464   0.40377   0.00000  Uiso   1.00
H859   H     0.94000   0.26688   0.39130   0.00000  Uiso   1.00
H860   H     0.92590   0.21590   0.50859   0.00000  Uiso   1.00
H861   H     0.00140   0.32645   0.32589   0.00000  Uiso   1.00
H862   H     0.90007   0.24758   0.32706   0.00000  Uiso   1.00
H863   H     0.89868   0.17630   0.65809   0.00000  Uiso   1.00
H864   H     0.05787   0.40940   0.27284   0.00000  Uiso   1.00
H865   H     0.84419   0.24308   0.27530   0.00000  Uiso   1.00
O866   O     0.84950   0.20091   0.80219   0.00000  Uiso   1.00
O867   O     0.05836   0.50671   0.29675   0.00000  Uiso   1.00
O868   O     0.77800   0.28852   0.29998   0.00000  Uiso   1.00
N869   N     0.84203   0.26859   0.74023   0.00000  Uiso   1.00
N870   N     0.99088   0.48652   0.38006   0.00000  Uiso   1.00
N871   N     0.79110   0.33104   0.38234   0.00000  Uiso   1.00
N872   N     0.88325   0.20857   0.67110   0.00000  Uiso   1.00
N873   N     0.03209   0.42649   0.31093   0.00000  Uiso   1.00
N874   N     0.83232   0.27102   0.31321   0.00000  Uiso   1.00
C875   C     0.77529   0.57375   0.46889   0.00000  Uiso   1.00
C876   C     0.78478   0.62364   0.49133   0.00000  Uiso   1.00
C877   C     0.82170   0.64781   0.45353   0.00000  Uiso   1.00
C878   C     0.82426   0.69313   0.48306   0.00000  Uiso   1.00
C879   C     0.84405   0.76748   0.50803   0.00000  Uiso   1.00
C880   C     0.75946   0.53988   0.53772   0.00000  Uiso   1.00
C881   C     0.77510   0.49363   0.53891   0.00000  Uiso   1.00
C882   C     0.75635   0.46845   0.60748   0.00000  Uiso   1.00
C883   C     0.73682   0.41275   0.70446   0.00000  Uiso   1.00
C884   C     0.73975   0.58344   0.45963   0.00000  Uiso   1.00
C885   C     0.73881   0.57380   0.39517   0.00000  Uiso   1.00
C886   C     0.70346   0.58528   0.39800   0.00000  Uiso   1.00
C887   C     0.65332   0.59721   0.37374   0.00000  Uiso   1.00
C888   C     0.71417   0.61127   0.58855   0.00000  Uiso   1.00
C889   C     0.75158   0.64401   0.55633   0.00000  Uiso   1.00
C890   C     0.75408   0.68932   0.58591   0.00000  Uiso   1.00
C891   C     0.79101   0.71355   0.54816   0.00000  Uiso   1.00
C892   C     0.72627   0.56026   0.60271   0.00000  Uiso   1.00
C893   C     0.70749   0.53514   0.67129   0.00000  Uiso   1.00
C894   C     0.72310   0.48886   0.67259   0.00000  Uiso   1.00
C895   C     0.70655   0.60382   0.52462   0.00000  Uiso   1.00
C896   C     0.67119   0.61531   0.52755   0.00000  Uiso   1.00
C897   C     0.67020   0.60569   0.46311   0.00000  Uiso   1.00
H898   H     0.80113   0.55788   0.41830   0.00000  Uiso   1.00
H899   H     0.84738   0.63202   0.40324   0.00000  Uiso   1.00
H900   H     0.80079   0.47787   0.48861   0.00000  Uiso   1.00
H901   H     0.76450   0.55803   0.34489   0.00000  Uiso   1.00
H902   H     0.88403   0.72320   0.41523   0.00000  Uiso   1.00
H903   H     0.78577   0.39815   0.59522   0.00000  Uiso   1.00
H904   H     0.70926   0.56717   0.29216   0.00000  Uiso   1.00
H905   H     0.68833   0.62713   0.63915   0.00000  Uiso   1.00
H906   H     0.72839   0.70508   0.63621   0.00000  Uiso   1.00
H907   H     0.68180   0.55092   0.72157   0.00000  Uiso   1.00
H908   H     0.64551   0.63108   0.57785   0.00000  Uiso   1.00
H909   H     0.78745   0.78249   0.60431   0.00000  Uiso   1.00
H910   H     0.68919   0.45743   0.78430   0.00000  Uiso   1.00
H911   H     0.61268   0.62647   0.48124   0.00000  Uiso   1.00
O912   O     0.86413   0.80286   0.50387   0.00000  Uiso   1.00
O913   O     0.73522   0.37640   0.74000   0.00000  Uiso   1.00
O914   O     0.63483   0.59816   0.34240   0.00000  Uiso   1.00
N915   N     0.85580   0.72646   0.46012   0.00000  Uiso   1.00
N916   N     0.76394   0.42256   0.62841   0.00000  Uiso   1.00
N917   N     0.69240   0.58057   0.34508   0.00000  Uiso   1.00
N918   N     0.80383   0.75837   0.56187   0.00000  Uiso   1.00
N919   N     0.71197   0.45446   0.73015   0.00000  Uiso   1.00
N920   N     0.64043   0.61248   0.44682   0.00000  Uiso   1.00
C921   C     0.90464   0.43177   0.25523   0.00000  Uiso   1.00
C922   C     0.94384   0.40369   0.20433   0.00000  Uiso   1.00
C923   C     0.95651   0.36121   0.22408   0.00000  Uiso   1.00
C924   C     0.99331   0.34111   0.16951   0.00000  Uiso   1.00
C925   C     0.05065   0.29422   0.10139   0.00000  Uiso   1.00
C926   C     0.91660   0.48550   0.25833   0.00000  Uiso   1.00
C927   C     0.90637   0.51180   0.32348   0.00000  Uiso   1.00
C928   C     0.92024   0.56057   0.31436   0.00000  Uiso   1.00
C929   C     0.93526   0.64070   0.33009   0.00000  Uiso   1.00
C930   C     0.88284   0.43344   0.21255   0.00000  Uiso   1.00
C931   C     0.84422   0.41599   0.23921   0.00000  Uiso   1.00
C932   C     0.82966   0.42094   0.19156   0.00000  Uiso   1.00
C933   C     0.79227   0.42025   0.13621   0.00000  Uiso   1.00
C934   C     0.94747   0.47162   0.12319   0.00000  Uiso   1.00
C935   C     0.96710   0.42533   0.13261   0.00000  Uiso   1.00
C936   C     0.00390   0.40529   0.07799   0.00000  Uiso   1.00
C937   C     0.01662   0.36278   0.09766   0.00000  Uiso   1.00
C938   C     0.93986   0.50714   0.18661   0.00000  Uiso   1.00
C939   C     0.95375   0.55588   0.17740   0.00000  Uiso   1.00
C940   C     0.94354   0.58225   0.24251   0.00000  Uiso   1.00
C941   C     0.90611   0.45508   0.14083   0.00000  Uiso   1.00
C942   C     0.89161   0.46007   0.09313   0.00000  Uiso   1.00
C943   C     0.85297   0.44262   0.11972   0.00000  Uiso   1.00
H944   H     0.88653   0.41493   0.31106   0.00000  Uiso   1.00
H945   H     0.93850   0.34447   0.27959   0.00000  Uiso   1.00
H946   H     0.88836   0.49504   0.37897   0.00000  Uiso   1.00
H947   H     0.82622   0.39924   0.29471   0.00000  Uiso   1.00
H948   H     0.00638   0.27592   0.21307   0.00000  Uiso   1.00
H949   H     0.90065   0.59341   0.42263   0.00000  Uiso   1.00
H950   H     0.76962   0.39140   0.24496   0.00000  Uiso   1.00
H951   H     0.96559   0.48847   0.06735   0.00000  Uiso   1.00
H952   H     0.02189   0.42204   0.02250   0.00000  Uiso   1.00
H953   H     0.97175   0.57262   0.12189   0.00000  Uiso   1.00
H954   H     0.90962   0.47682   0.03763   0.00000  Uiso   1.00
H955   H     0.07407   0.33888   0.00441   0.00000  Uiso   1.00
H956   H     0.96833   0.65637   0.21397   0.00000  Uiso   1.00
H957   H     0.83731   0.45436   0.03631   0.00000  Uiso   1.00
O958   O     0.57584   0.76238   0.08364   0.00000  Uiso   1.00
O959   O     0.93712   0.67892   0.35857   0.00000  Uiso   1.00
O960   O     0.76522   0.41389   0.12548   0.00000  Uiso   1.00
N961   N     0.01458   0.29984   0.17011   0.00000  Uiso   1.00
N962   N     0.91573   0.59668   0.36604   0.00000  Uiso   1.00
N963   N     0.79323   0.40783   0.19994   0.00000  Uiso   1.00
N964   N     0.05100   0.33372   0.05783   0.00000  Uiso   1.00
N965   N     0.95215   0.63055   0.25376   0.00000  Uiso   1.00
N966   N     0.82965   0.44170   0.08767   0.00000  Uiso   1.00
C967   C     0.80672   0.74009   0.90234   0.00000  Uiso   1.00
C968   C     0.80832   0.68797   0.93010   0.00000  Uiso   1.00
C969   C     0.83642   0.65132   0.88779   0.00000  Uiso   1.00
C970   C     0.83276   0.60610   0.92347   0.00000  Uiso   1.00
C971   C     0.83993   0.52643   0.95512   0.00000  Uiso   1.00
C972   C     0.80832   0.77651   0.95692   0.00000  Uiso   1.00
C973   C     0.83642   0.81431   0.93717   0.00000  Uiso   1.00
C974   C     0.83276   0.84363   0.99543   0.00000  Uiso   1.00
C975   C     0.83991   0.90145   0.06872   0.00000  Uiso   1.00
C976   C     0.76481   0.74542   0.91498   0.00000  Uiso   1.00
C977   C     0.75633   0.75709   0.85997   0.00000  Uiso   1.00
C978   C     0.71603   0.76023   0.88292   0.00000  Uiso   1.00
C979   C     0.65562   0.76977   0.89110   0.00000  Uiso   1.00
C980   C     0.75024   0.72495   0.04093   0.00000  Uiso   1.00
C981   C     0.77764   0.67975   0.00537   0.00000  Uiso   1.00
C982   C     0.77394   0.63457   0.04112   0.00000  Uiso   1.00
C983   C     0.80203   0.59786   0.99887   0.00000  Uiso   1.00
C984   C     0.77765   0.76829   0.03219   0.00000  Uiso   1.00
C985   C     0.77393   0.79756   0.09050   0.00000  Uiso   1.00
C986   C     0.80202   0.83539   0.07084   0.00000  Uiso   1.00
C987   C     0.73413   0.73719   0.99026   0.00000  Uiso   1.00
C988   C     0.69384   0.74033   0.01330   0.00000  Uiso   1.00
C989   C     0.68529   0.75199   0.95833   0.00000  Uiso   1.00
H990   H     0.83061   0.74650   0.84374   0.00000  Uiso   1.00
H991   H     0.86016   0.65771   0.82954   0.00000  Uiso   1.00
H992   H     0.86016   0.82067   0.87891   0.00000  Uiso   1.00
H993   H     0.78008   0.76345   0.80173   0.00000  Uiso   1.00
H994   H     0.87942   0.55564   0.84701   0.00000  Uiso   1.00
H995   H     0.87940   0.89928   0.95110   0.00000  Uiso   1.00
H996   H     0.71053   0.77861   0.78834   0.00000  Uiso   1.00
H997   H     0.72635   0.71854   0.09953   0.00000  Uiso   1.00
H998   H     0.75019   0.62821   0.09937   0.00000  Uiso   1.00
H999   H     0.75019   0.79118   0.14874   0.00000  Uiso   1.00
H1000  H     0.67011   0.73396   0.07155   0.00000  Uiso   1.00
H1001  H     0.79016   0.53170   0.06601   0.00000  Uiso   1.00
H1002  H     0.79014   0.87534   0.17010   0.00000  Uiso   1.00
H1003  H     0.62127   0.75467   0.00734   0.00000  Uiso   1.00
O1004  O     0.85236   0.48476   0.95179   0.00000  Uiso   1.00
O1005  O     0.35233   0.43561   0.08836   0.00000  Uiso   1.00
O1006  O     0.63078   0.77729   0.87482   0.00000  Uiso   1.00
N1007  N     0.85513   0.56240   0.89857   0.00000  Uiso   1.00
N1008  N     0.85512   0.88368   0.99589   0.00000  Uiso   1.00
N1009  N     0.69724   0.77088   0.84373   0.00000  Uiso   1.00
N1010  N     0.80710   0.54952   0.01641   0.00000  Uiso   1.00
N1011  N     0.80709   0.87080   0.11373   0.00000  Uiso   1.00
N1012  N     0.64921   0.75800   0.96157   0.00000  Uiso   1.00
C1013  C     0.43010   0.42238   0.75227   0.00000  Uiso   1.00
C1014  C     0.46184   0.45801   0.69438   0.00000  Uiso   1.00
C1015  C     0.46852   0.50654   0.70852   0.00000  Uiso   1.00
C1016  C     0.49900   0.53304   0.64801   0.00000  Uiso   1.00
C1017  C     0.54480   0.59158   0.56909   0.00000  Uiso   1.00
C1018  C     0.45277   0.37581   0.75134   0.00000  Uiso   1.00
C1019  C     0.45181   0.35524   0.81337   0.00000  Uiso   1.00
C1020  C     0.47464   0.31254   0.80082   0.00000  Uiso   1.00
C1021  C     0.00634   0.74346   0.81034   0.00000  Uiso   1.00
C1022  C     0.40465   0.40644   0.72022   0.00000  Uiso   1.00
C1023  C     0.86324   0.91161   0.75609   0.00000  Uiso   1.00
C1024  C     0.84557   0.89470   0.71734   0.00000  Uiso   1.00
C1025  C     0.80256   0.87317   0.67854   0.00000  Uiso   1.00
C1026  C     0.47236   0.38315   0.61967   0.00000  Uiso   1.00
C1027  C     0.48479   0.43669   0.62236   0.00000  Uiso   1.00
C1028  C     0.51527   0.46313   0.56182   0.00000  Uiso   1.00
C1029  C     0.52199   0.51169   0.57586   0.00000  Uiso   1.00
C1030  C     0.47572   0.35450   0.67932   0.00000  Uiso   1.00
C1031  C     0.49856   0.31183   0.66667   0.00000  Uiso   1.00
C1032  C     0.49764   0.29119   0.72867   0.00000  Uiso   1.00
C1033  C     0.42760   0.38513   0.64820   0.00000  Uiso   1.00
C1034  C     0.90999   0.86820   0.60939   0.00000  Uiso   1.00
C1035  C     0.86856   0.87334   0.64519   0.00000  Uiso   1.00
H1036  H     0.41223   0.43897   0.80834   0.00000  Uiso   1.00
H1037  H     0.45075   0.52301   0.76426   0.00000  Uiso   1.00
H1038  H     0.43404   0.37173   0.86910   0.00000  Uiso   1.00
H1039  H     0.84549   0.92810   0.81182   0.00000  Uiso   1.00
H1040  H     0.50359   0.60678   0.68364   0.00000  Uiso   1.00
H1041  H     0.96834   0.78779   0.90470   0.00000  Uiso   1.00
H1042  H     0.78161   0.90665   0.78393   0.00000  Uiso   1.00
H1043  H     0.49022   0.36656   0.56360   0.00000  Uiso   1.00
H1044  H     0.53302   0.44663   0.50609   0.00000  Uiso   1.00
H1045  H     0.51631   0.29535   0.61093   0.00000  Uiso   1.00
H1046  H     0.92776   0.85171   0.55365   0.00000  Uiso   1.00
H1047  H     0.57037   0.54479   0.47410   0.00000  Uiso   1.00
H1048  H     0.03512   0.72579   0.69516   0.00000  Uiso   1.00
H1049  H     0.84838   0.84466   0.57438   0.00000  Uiso   1.00
O1050  O     0.56373   0.62976   0.54546   0.00000  Uiso   1.00
O1051  O     0.01748   0.71125   0.83549   0.00000  Uiso   1.00
O1052  O     0.77250   0.86720   0.67703   0.00000  Uiso   1.00
N1053  N     0.51343   0.58121   0.64221   0.00000  Uiso   1.00
N1054  N     0.98048   0.78297   0.84889   0.00000  Uiso   1.00
N1055  N     0.80590   0.89409   0.73598   0.00000  Uiso   1.00
N1056  N     0.54936   0.54785   0.52946   0.00000  Uiso   1.00
N1057  N     0.01641   0.74961   0.73614   0.00000  Uiso   1.00
N1058  N     0.84183   0.86073   0.62323   0.00000  Uiso   1.00
C1059  C     0.42193   0.52589   0.95069   0.00000  Uiso   1.00
C1060  C     0.41639   0.56639   0.00684   0.00000  Uiso   1.00
C1061  C     0.40280   0.55893   0.08254   0.00000  Uiso   1.00
C1062  C     0.39982   0.60081   0.12447   0.00000  Uiso   1.00
C1063  C     0.88968   0.15645   0.21662   0.00000  Uiso   1.00
C1064  C     0.46567   0.52936   0.88567   0.00000  Uiso   1.00
C1065  C     0.49352   0.49076   0.85948   0.00000  Uiso   1.00
C1066  C     0.53202   0.50147   0.79939   0.00000  Uiso   1.00
C1067  C     0.59839   0.49961   0.70338   0.00000  Uiso   1.00
C1068  C     0.39665   0.54198   0.91834   0.00000  Uiso   1.00
C1069  C     0.36648   0.51398   0.91961   0.00000  Uiso   1.00
C1070  C     0.34688   0.53530   0.88702   0.00000  Uiso   1.00
C1071  C     0.80608   0.05303   0.84174   0.00000  Uiso   1.00
C1072  C     0.44079   0.61353   0.89054   0.00000  Uiso   1.00
C1073  C     0.42664   0.61399   0.97417   0.00000  Uiso   1.00
C1074  C     0.92367   0.15590   0.01599   0.00000  Uiso   1.00
C1075  C     0.91008   0.14850   0.09174   0.00000  Uiso   1.00
C1076  C     0.47592   0.57696   0.85299   0.00000  Uiso   1.00
C1077  C     0.51439   0.58773   0.79293   0.00000  Uiso   1.00
C1078  C     0.54229   0.54916   0.76666   0.00000  Uiso   1.00
C1079  C     0.40690   0.58958   0.88567   0.00000  Uiso   1.00
C1080  C     0.88735   0.11095   0.85306   0.00000  Uiso   1.00
C1081  C     0.85714   0.08299   0.85428   0.00000  Uiso   1.00
H1082  H     0.41395   0.48883   0.97612   0.00000  Uiso   1.00
H1083  H     0.39488   0.52209   0.10780   0.00000  Uiso   1.00
H1084  H     0.48558   0.45393   0.88477   0.00000  Uiso   1.00
H1085  H     0.35856   0.47715   0.94490   0.00000  Uiso   1.00
H1086  H     0.37826   0.57995   0.23938   0.00000  Uiso   1.00
H1087  H     0.56951   0.43623   0.76908   0.00000  Uiso   1.00
H1088  H     0.30166   0.48518   0.89587   0.00000  Uiso   1.00
H1089  H     0.44877   0.65059   0.86510   0.00000  Uiso   1.00
H1090  H     0.93160   0.19273   0.99069   0.00000  Uiso   1.00
H1091  H     0.52231   0.62457   0.76766   0.00000  Uiso   1.00
H1092  H     0.89528   0.14779   0.82778   0.00000  Uiso   1.00
H1093  H     0.90807   0.21845   0.14433   0.00000  Uiso   1.00
H1094  H     0.59932   0.57473   0.67403   0.00000  Uiso   1.00
H1095  H     0.83147   0.12368   0.80082   0.00000  Uiso   1.00
O1096  O     0.88126   0.17399   0.27647   0.00000  Uiso   1.00
O1097  O     0.63216   0.48544   0.65945   0.00000  Uiso   1.00
O1098  O     0.78075   0.04966   0.82579   0.00000  Uiso   1.00
N1099  N     0.88763   0.10676   0.19978   0.00000  Uiso   1.00
N1100  N     0.56643   0.47240   0.76009   0.00000  Uiso   1.00
N1101  N     0.31602   0.51816   0.87860   0.00000  Uiso   1.00
N1102  N     0.90367   0.18129   0.14863   0.00000  Uiso   1.00
N1103  N     0.58247   0.54692   0.70894   0.00000  Uiso   1.00
N1104  N     0.83206   0.09268   0.82746   0.00000  Uiso   1.00
