data_job_02187
_audit_creation_date              2018-12-19
_audit_creation_method            'Materials Studio'
_symmetry_space_group_name_H-M    'P1'
_symmetry_Int_Tables_number       1
_symmetry_cell_setting            triclinic
loop_
_symmetry_equiv_pos_as_xyz
  x,y,z
_cell_length_a                    28.7542
_cell_length_b                    28.7542
_cell_length_c                    12.7780
_cell_angle_alpha                 90.0000
_cell_angle_beta                  90.0000
_cell_angle_gamma                 90.0000
loop_
_atom_site_label
_atom_site_type_symbol
_atom_site_fract_x
_atom_site_fract_y
_atom_site_fract_z
_atom_site_U_iso_or_equiv
_atom_site_adp_type
_atom_site_occupancy
C1     C     0.79146   0.18437   0.58089   0.00000  Uiso   1.00
C2     C     0.76300   0.15648   0.50214   0.00000  Uiso   1.00
C3     C     0.78008   0.13579   0.41186   0.00000  Uiso   1.00
C4     C     0.74843   0.11180   0.35007   0.00000  Uiso   1.00
C5     C     0.71139   0.06898   0.22358   0.00000  Uiso   1.00
C6     C     0.76797   0.23179   0.58877   0.00000  Uiso   1.00
C7     C     0.78923   0.27443   0.57134   0.00000  Uiso   1.00
C8     C     0.76176   0.31383   0.58249   0.00000  Uiso   1.00
C9     C     0.73245   0.38794   0.59056   0.00000  Uiso   1.00
C10    C     0.78407   0.16086   0.68655   0.00000  Uiso   1.00
C11    C     0.81887   0.14387   0.75136   0.00000  Uiso   1.00
C12    C     0.80497   0.12357   0.84485   0.00000  Uiso   1.00
C13    C     0.80066   0.08755   0.00475   0.00000  Uiso   1.00
C14    C     0.70487   0.17855   0.63169   0.00000  Uiso   1.00
C15    C     0.71597   0.15332   0.52974   0.00000  Uiso   1.00
C16    C     0.68428   0.12935   0.46807   0.00000  Uiso   1.00
C17    C     0.70132   0.10862   0.37772   0.00000  Uiso   1.00
C18    C     0.72094   0.22863   0.61636   0.00000  Uiso   1.00
C19    C     0.69344   0.26798   0.62755   0.00000  Uiso   1.00
C20    C     0.71465   0.31066   0.61014   0.00000  Uiso   1.00
C21    C     0.73704   0.15770   0.71415   0.00000  Uiso   1.00
C22    C     0.72308   0.13742   0.80757   0.00000  Uiso   1.00
C23    C     0.75785   0.12040   0.87250   0.00000  Uiso   1.00
H24    H     0.82807   0.18684   0.55940   0.00000  Uiso   1.00
H25    H     0.81647   0.13825   0.39053   0.00000  Uiso   1.00
H26    H     0.82562   0.27686   0.55000   0.00000  Uiso   1.00
H27    H     0.85526   0.14633   0.72998   0.00000  Uiso   1.00
H28    H     0.78288   0.08300   0.21545   0.00000  Uiso   1.00
H29    H     0.80217   0.37527   0.55173   0.00000  Uiso   1.00
H30    H     0.86468   0.10001   0.93127   0.00000  Uiso   1.00
H31    H     0.66826   0.17609   0.65318   0.00000  Uiso   1.00
H32    H     0.64789   0.12690   0.48945   0.00000  Uiso   1.00
H33    H     0.65704   0.26552   0.64891   0.00000  Uiso   1.00
H34    H     0.68668   0.13498   0.82890   0.00000  Uiso   1.00
H35    H     0.64605   0.07379   0.29574   0.00000  Uiso   1.00
H36    H     0.66535   0.36607   0.63202   0.00000  Uiso   1.00
H37    H     0.72785   0.09080   0.01155   0.00000  Uiso   1.00
O38    O     0.70395   0.04625   0.14618   0.00000  Uiso   1.00
O39    O     0.72927   0.42970   0.58738   0.00000  Uiso   1.00
O40    O     0.81127   0.06856   0.08532   0.00000  Uiso   1.00
N41    N     0.75347   0.08757   0.25683   0.00000  Uiso   1.00
N42    N     0.77151   0.36083   0.57121   0.00000  Uiso   1.00
N43    N     0.82995   0.10349   0.92606   0.00000  Uiso   1.00
N44    N     0.67985   0.08262   0.30003   0.00000  Uiso   1.00
N45    N     0.69789   0.35588   0.61441   0.00000  Uiso   1.00
N46    N     0.75632   0.09854   0.96926   0.00000  Uiso   1.00
C47    C     0.42763   0.18236   0.66644   0.00000  Uiso   1.00
C48    C     0.45728   0.15420   0.59044   0.00000  Uiso   1.00
C49    C     0.47877   0.17133   0.50117   0.00000  Uiso   1.00
C50    C     0.50437   0.13998   0.44193   0.00000  Uiso   1.00
C51    C     0.54979   0.10337   0.31946   0.00000  Uiso   1.00
C52    C     0.38071   0.15774   0.67170   0.00000  Uiso   1.00
C53    C     0.33783   0.17785   0.65076   0.00000  Uiso   1.00
C54    C     0.29898   0.14947   0.65995   0.00000  Uiso   1.00
C55    C     0.22553   0.11836   0.66372   0.00000  Uiso   1.00
C56    C     0.44985   0.17609   0.77387   0.00000  Uiso   1.00
C57    C     0.46509   0.21163   0.83886   0.00000  Uiso   1.00
C58    C     0.48444   0.19871   0.93408   0.00000  Uiso   1.00
C59    C     0.51833   0.19610   0.09649   0.00000  Uiso   1.00
C60    C     0.43487   0.09621   0.71999   0.00000  Uiso   1.00
C61    C     0.46121   0.10741   0.61953   0.00000  Uiso   1.00
C62    C     0.48679   0.07602   0.56041   0.00000  Uiso   1.00
C63    C     0.50832   0.09310   0.47107   0.00000  Uiso   1.00
C64    C     0.38465   0.11095   0.70078   0.00000  Uiso   1.00
C65    C     0.34585   0.08253   0.71001   0.00000  Uiso   1.00
C66    C     0.30292   0.10259   0.68908   0.00000  Uiso   1.00
C67    C     0.45379   0.12930   0.80296   0.00000  Uiso   1.00
C68    C     0.47311   0.11632   0.89810   0.00000  Uiso   1.00
C69    C     0.48838   0.15183   0.96322   0.00000  Uiso   1.00
H70    H     0.42456   0.21879   0.64380   0.00000  Uiso   1.00
H71    H     0.47572   0.20755   0.47868   0.00000  Uiso   1.00
H72    H     0.33480   0.21406   0.62827   0.00000  Uiso   1.00
H73    H     0.46204   0.24784   0.81633   0.00000  Uiso   1.00
H74    H     0.53415   0.17445   0.30842   0.00000  Uiso   1.00
H75    H     0.23702   0.18818   0.62387   0.00000  Uiso   1.00
H76    H     0.50533   0.25942   0.02044   0.00000  Uiso   1.00
H77    H     0.43793   0.05978   0.74264   0.00000  Uiso   1.00
H78    H     0.48982   0.03981   0.58294   0.00000  Uiso   1.00
H79    H     0.34890   0.04633   0.73252   0.00000  Uiso   1.00
H80    H     0.47614   0.08011   0.92058   0.00000  Uiso   1.00
H81    H     0.54560   0.03831   0.39304   0.00000  Uiso   1.00
H82    H     0.24846   0.05204   0.70849   0.00000  Uiso   1.00
H83    H     0.51678   0.12328   0.10506   0.00000  Uiso   1.00
O84    O     0.57376   0.09611   0.24387   0.00000  Uiso   1.00
O85    O     0.18393   0.11413   0.65775   0.00000  Uiso   1.00
O86    O     0.53595   0.20759   0.17803   0.00000  Uiso   1.00
N87    N     0.52973   0.14515   0.35026   0.00000  Uiso   1.00
N88    N     0.25193   0.15799   0.64517   0.00000  Uiso   1.00
N89    N     0.50277   0.22459   0.01594   0.00000  Uiso   1.00
N90    N     0.53589   0.07189   0.39580   0.00000  Uiso   1.00
N91    N     0.25809   0.08473   0.69070   0.00000  Uiso   1.00
N92    N     0.50893   0.15133   0.06147   0.00000  Uiso   1.00
C93    C     0.20854   0.81563   0.58089   0.00000  Uiso   1.00
C94    C     0.23700   0.84352   0.50214   0.00000  Uiso   1.00
C95    C     0.21992   0.86421   0.41186   0.00000  Uiso   1.00
C96    C     0.25157   0.88820   0.35007   0.00000  Uiso   1.00
C97    C     0.28861   0.93102   0.22358   0.00000  Uiso   1.00
C98    C     0.23203   0.76821   0.58877   0.00000  Uiso   1.00
C99    C     0.21077   0.72557   0.57134   0.00000  Uiso   1.00
C100   C     0.23824   0.68617   0.58249   0.00000  Uiso   1.00
C101   C     0.26755   0.61206   0.59056   0.00000  Uiso   1.00
C102   C     0.21593   0.83914   0.68655   0.00000  Uiso   1.00
C103   C     0.18113   0.85613   0.75136   0.00000  Uiso   1.00
C104   C     0.19503   0.87643   0.84485   0.00000  Uiso   1.00
C105   C     0.19934   0.91245   0.00475   0.00000  Uiso   1.00
C106   C     0.29513   0.82145   0.63169   0.00000  Uiso   1.00
C107   C     0.28403   0.84668   0.52974   0.00000  Uiso   1.00
C108   C     0.31572   0.87065   0.46807   0.00000  Uiso   1.00
C109   C     0.29868   0.89138   0.37772   0.00000  Uiso   1.00
C110   C     0.27906   0.77137   0.61636   0.00000  Uiso   1.00
C111   C     0.30656   0.73202   0.62755   0.00000  Uiso   1.00
C112   C     0.28535   0.68934   0.61014   0.00000  Uiso   1.00
C113   C     0.26296   0.84230   0.71415   0.00000  Uiso   1.00
C114   C     0.27692   0.86258   0.80757   0.00000  Uiso   1.00
C115   C     0.24215   0.87960   0.87250   0.00000  Uiso   1.00
H116   H     0.17193   0.81316   0.55940   0.00000  Uiso   1.00
H117   H     0.18353   0.86175   0.39053   0.00000  Uiso   1.00
H118   H     0.17438   0.72314   0.55000   0.00000  Uiso   1.00
H119   H     0.14474   0.85367   0.72998   0.00000  Uiso   1.00
H120   H     0.21712   0.91700   0.21545   0.00000  Uiso   1.00
H121   H     0.19783   0.62473   0.55173   0.00000  Uiso   1.00
H122   H     0.13532   0.89999   0.93127   0.00000  Uiso   1.00
H123   H     0.33174   0.82391   0.65318   0.00000  Uiso   1.00
H124   H     0.35211   0.87310   0.48945   0.00000  Uiso   1.00
H125   H     0.34296   0.73448   0.64891   0.00000  Uiso   1.00
H126   H     0.31332   0.86502   0.82890   0.00000  Uiso   1.00
H127   H     0.35395   0.92621   0.29574   0.00000  Uiso   1.00
H128   H     0.33465   0.63393   0.63202   0.00000  Uiso   1.00
H129   H     0.27215   0.90920   0.01155   0.00000  Uiso   1.00
O130   O     0.29605   0.95375   0.14618   0.00000  Uiso   1.00
O131   O     0.27073   0.57030   0.58738   0.00000  Uiso   1.00
O132   O     0.18873   0.93144   0.08532   0.00000  Uiso   1.00
N133   N     0.24653   0.91243   0.25683   0.00000  Uiso   1.00
N134   N     0.22849   0.63917   0.57121   0.00000  Uiso   1.00
N135   N     0.17005   0.89651   0.92606   0.00000  Uiso   1.00
N136   N     0.32015   0.91738   0.30003   0.00000  Uiso   1.00
N137   N     0.30211   0.64412   0.61441   0.00000  Uiso   1.00
N138   N     0.24368   0.90146   0.96926   0.00000  Uiso   1.00
C139   C     0.57237   0.81764   0.66644   0.00000  Uiso   1.00
C140   C     0.54272   0.84580   0.59044   0.00000  Uiso   1.00
C141   C     0.52123   0.82867   0.50117   0.00000  Uiso   1.00
C142   C     0.49563   0.86002   0.44193   0.00000  Uiso   1.00
C143   C     0.45021   0.89663   0.31946   0.00000  Uiso   1.00
C144   C     0.61929   0.84226   0.67170   0.00000  Uiso   1.00
C145   C     0.66217   0.82215   0.65076   0.00000  Uiso   1.00
C146   C     0.70102   0.85053   0.65995   0.00000  Uiso   1.00
C147   C     0.77447   0.88164   0.66372   0.00000  Uiso   1.00
C148   C     0.55015   0.82391   0.77387   0.00000  Uiso   1.00
C149   C     0.53491   0.78837   0.83886   0.00000  Uiso   1.00
C150   C     0.51556   0.80129   0.93408   0.00000  Uiso   1.00
C151   C     0.48167   0.80390   0.09649   0.00000  Uiso   1.00
C152   C     0.56513   0.90379   0.71999   0.00000  Uiso   1.00
C153   C     0.53879   0.89259   0.61953   0.00000  Uiso   1.00
C154   C     0.51321   0.92398   0.56041   0.00000  Uiso   1.00
C155   C     0.49168   0.90690   0.47107   0.00000  Uiso   1.00
C156   C     0.61535   0.88905   0.70078   0.00000  Uiso   1.00
C157   C     0.65415   0.91747   0.71001   0.00000  Uiso   1.00
C158   C     0.69708   0.89741   0.68908   0.00000  Uiso   1.00
C159   C     0.54621   0.87070   0.80296   0.00000  Uiso   1.00
C160   C     0.52689   0.88368   0.89810   0.00000  Uiso   1.00
C161   C     0.51162   0.84817   0.96322   0.00000  Uiso   1.00
H162   H     0.57544   0.78121   0.64380   0.00000  Uiso   1.00
H163   H     0.52428   0.79245   0.47868   0.00000  Uiso   1.00
H164   H     0.66520   0.78594   0.62827   0.00000  Uiso   1.00
H165   H     0.53796   0.75216   0.81633   0.00000  Uiso   1.00
H166   H     0.46585   0.82555   0.30842   0.00000  Uiso   1.00
H167   H     0.76298   0.81182   0.62387   0.00000  Uiso   1.00
H168   H     0.49467   0.74058   0.02044   0.00000  Uiso   1.00
H169   H     0.56207   0.94022   0.74264   0.00000  Uiso   1.00
H170   H     0.51018   0.96019   0.58294   0.00000  Uiso   1.00
H171   H     0.65110   0.95367   0.73252   0.00000  Uiso   1.00
H172   H     0.52386   0.91989   0.92058   0.00000  Uiso   1.00
H173   H     0.45440   0.96169   0.39304   0.00000  Uiso   1.00
H174   H     0.75154   0.94796   0.70849   0.00000  Uiso   1.00
H175   H     0.48322   0.87672   0.10506   0.00000  Uiso   1.00
O176   O     0.42624   0.90389   0.24387   0.00000  Uiso   1.00
O177   O     0.81607   0.88587   0.65775   0.00000  Uiso   1.00
O178   O     0.46405   0.79241   0.17803   0.00000  Uiso   1.00
N179   N     0.47027   0.85485   0.35026   0.00000  Uiso   1.00
N180   N     0.74807   0.84201   0.64517   0.00000  Uiso   1.00
N181   N     0.49723   0.77541   0.01594   0.00000  Uiso   1.00
N182   N     0.46411   0.92811   0.39580   0.00000  Uiso   1.00
N183   N     0.74191   0.91527   0.69070   0.00000  Uiso   1.00
N184   N     0.49107   0.84867   0.06147   0.00000  Uiso   1.00
C185   C     0.18437   0.20854   0.41911   0.00000  Uiso   1.00
C186   C     0.15648   0.23700   0.49786   0.00000  Uiso   1.00
C187   C     0.13579   0.21992   0.58814   0.00000  Uiso   1.00
C188   C     0.11180   0.25157   0.64993   0.00000  Uiso   1.00
C189   C     0.06898   0.28861   0.77642   0.00000  Uiso   1.00
C190   C     0.23179   0.23203   0.41123   0.00000  Uiso   1.00
C191   C     0.27443   0.21077   0.42866   0.00000  Uiso   1.00
C192   C     0.31383   0.23824   0.41751   0.00000  Uiso   1.00
C193   C     0.38794   0.26755   0.40944   0.00000  Uiso   1.00
C194   C     0.16086   0.21593   0.31345   0.00000  Uiso   1.00
C195   C     0.14387   0.18113   0.24864   0.00000  Uiso   1.00
C196   C     0.12357   0.19503   0.15515   0.00000  Uiso   1.00
C197   C     0.08755   0.19934   0.99525   0.00000  Uiso   1.00
C198   C     0.17855   0.29513   0.36831   0.00000  Uiso   1.00
C199   C     0.15332   0.28403   0.47026   0.00000  Uiso   1.00
C200   C     0.12935   0.31572   0.53193   0.00000  Uiso   1.00
C201   C     0.10862   0.29868   0.62228   0.00000  Uiso   1.00
C202   C     0.22863   0.27906   0.38364   0.00000  Uiso   1.00
C203   C     0.26798   0.30656   0.37245   0.00000  Uiso   1.00
C204   C     0.31066   0.28535   0.38986   0.00000  Uiso   1.00
C205   C     0.15770   0.26296   0.28585   0.00000  Uiso   1.00
C206   C     0.13742   0.27692   0.19243   0.00000  Uiso   1.00
C207   C     0.12040   0.24215   0.12750   0.00000  Uiso   1.00
H208   H     0.18684   0.17193   0.44060   0.00000  Uiso   1.00
H209   H     0.13825   0.18353   0.60947   0.00000  Uiso   1.00
H210   H     0.27686   0.17438   0.45000   0.00000  Uiso   1.00
H211   H     0.14633   0.14474   0.27002   0.00000  Uiso   1.00
H212   H     0.08300   0.21712   0.78455   0.00000  Uiso   1.00
H213   H     0.37527   0.19783   0.44827   0.00000  Uiso   1.00
H214   H     0.10001   0.13532   0.06873   0.00000  Uiso   1.00
H215   H     0.17609   0.33174   0.34682   0.00000  Uiso   1.00
H216   H     0.12690   0.35211   0.51055   0.00000  Uiso   1.00
H217   H     0.26552   0.34296   0.35109   0.00000  Uiso   1.00
H218   H     0.13498   0.31332   0.17110   0.00000  Uiso   1.00
H219   H     0.07379   0.35395   0.70426   0.00000  Uiso   1.00
H220   H     0.36607   0.33465   0.36798   0.00000  Uiso   1.00
H221   H     0.09080   0.27215   0.98845   0.00000  Uiso   1.00
O222   O     0.04625   0.29605   0.85382   0.00000  Uiso   1.00
O223   O     0.42970   0.27073   0.41262   0.00000  Uiso   1.00
O224   O     0.06856   0.18873   0.91468   0.00000  Uiso   1.00
N225   N     0.08757   0.24653   0.74317   0.00000  Uiso   1.00
N226   N     0.36083   0.22849   0.42879   0.00000  Uiso   1.00
N227   N     0.10349   0.17005   0.07394   0.00000  Uiso   1.00
N228   N     0.08262   0.32015   0.69997   0.00000  Uiso   1.00
N229   N     0.35588   0.30211   0.38559   0.00000  Uiso   1.00
N230   N     0.09854   0.24368   0.03074   0.00000  Uiso   1.00
C231   C     0.18236   0.57237   0.33356   0.00000  Uiso   1.00
C232   C     0.15420   0.54272   0.40956   0.00000  Uiso   1.00
C233   C     0.17133   0.52123   0.49883   0.00000  Uiso   1.00
C234   C     0.13998   0.49563   0.55807   0.00000  Uiso   1.00
C235   C     0.10337   0.45021   0.68054   0.00000  Uiso   1.00
C236   C     0.15774   0.61929   0.32830   0.00000  Uiso   1.00
C237   C     0.17785   0.66217   0.34924   0.00000  Uiso   1.00
C238   C     0.14947   0.70102   0.34005   0.00000  Uiso   1.00
C239   C     0.11836   0.77447   0.33628   0.00000  Uiso   1.00
C240   C     0.17609   0.55015   0.22613   0.00000  Uiso   1.00
C241   C     0.21163   0.53491   0.16114   0.00000  Uiso   1.00
C242   C     0.19871   0.51556   0.06592   0.00000  Uiso   1.00
C243   C     0.19610   0.48167   0.90351   0.00000  Uiso   1.00
C244   C     0.09621   0.56513   0.28001   0.00000  Uiso   1.00
C245   C     0.10741   0.53879   0.38047   0.00000  Uiso   1.00
C246   C     0.07602   0.51321   0.43959   0.00000  Uiso   1.00
C247   C     0.09310   0.49168   0.52893   0.00000  Uiso   1.00
C248   C     0.11095   0.61535   0.29922   0.00000  Uiso   1.00
C249   C     0.08253   0.65415   0.28999   0.00000  Uiso   1.00
C250   C     0.10259   0.69708   0.31092   0.00000  Uiso   1.00
C251   C     0.12930   0.54621   0.19704   0.00000  Uiso   1.00
C252   C     0.11632   0.52689   0.10190   0.00000  Uiso   1.00
C253   C     0.15183   0.51162   0.03678   0.00000  Uiso   1.00
H254   H     0.21879   0.57544   0.35620   0.00000  Uiso   1.00
H255   H     0.20755   0.52428   0.52132   0.00000  Uiso   1.00
H256   H     0.21406   0.66520   0.37173   0.00000  Uiso   1.00
H257   H     0.24784   0.53796   0.18367   0.00000  Uiso   1.00
H258   H     0.17445   0.46585   0.69158   0.00000  Uiso   1.00
H259   H     0.18818   0.76298   0.37613   0.00000  Uiso   1.00
H260   H     0.25942   0.49467   0.97956   0.00000  Uiso   1.00
H261   H     0.05978   0.56207   0.25736   0.00000  Uiso   1.00
H262   H     0.03981   0.51018   0.41706   0.00000  Uiso   1.00
H263   H     0.04633   0.65110   0.26748   0.00000  Uiso   1.00
H264   H     0.08011   0.52386   0.07942   0.00000  Uiso   1.00
H265   H     0.03831   0.45440   0.60696   0.00000  Uiso   1.00
H266   H     0.05204   0.75154   0.29151   0.00000  Uiso   1.00
H267   H     0.12328   0.48322   0.89494   0.00000  Uiso   1.00
O268   O     0.09611   0.42624   0.75613   0.00000  Uiso   1.00
O269   O     0.11413   0.81607   0.34225   0.00000  Uiso   1.00
O270   O     0.20759   0.46405   0.82197   0.00000  Uiso   1.00
N271   N     0.14515   0.47027   0.64974   0.00000  Uiso   1.00
N272   N     0.15799   0.74807   0.35483   0.00000  Uiso   1.00
N273   N     0.22459   0.49723   0.98406   0.00000  Uiso   1.00
N274   N     0.07189   0.46411   0.60420   0.00000  Uiso   1.00
N275   N     0.08473   0.74191   0.30930   0.00000  Uiso   1.00
N276   N     0.15133   0.49107   0.93853   0.00000  Uiso   1.00
C277   C     0.81563   0.79146   0.41911   0.00000  Uiso   1.00
C278   C     0.84352   0.76300   0.49786   0.00000  Uiso   1.00
C279   C     0.86421   0.78008   0.58814   0.00000  Uiso   1.00
C280   C     0.88820   0.74843   0.64993   0.00000  Uiso   1.00
C281   C     0.93102   0.71139   0.77642   0.00000  Uiso   1.00
C282   C     0.76821   0.76797   0.41123   0.00000  Uiso   1.00
C283   C     0.72557   0.78923   0.42866   0.00000  Uiso   1.00
C284   C     0.68617   0.76176   0.41751   0.00000  Uiso   1.00
C285   C     0.61206   0.73245   0.40944   0.00000  Uiso   1.00
C286   C     0.83914   0.78407   0.31345   0.00000  Uiso   1.00
C287   C     0.85613   0.81887   0.24864   0.00000  Uiso   1.00
C288   C     0.87643   0.80497   0.15515   0.00000  Uiso   1.00
C289   C     0.91245   0.80066   0.99525   0.00000  Uiso   1.00
C290   C     0.82145   0.70487   0.36831   0.00000  Uiso   1.00
C291   C     0.84668   0.71597   0.47026   0.00000  Uiso   1.00
C292   C     0.87065   0.68428   0.53193   0.00000  Uiso   1.00
C293   C     0.89138   0.70132   0.62228   0.00000  Uiso   1.00
C294   C     0.77137   0.72094   0.38364   0.00000  Uiso   1.00
C295   C     0.73202   0.69344   0.37245   0.00000  Uiso   1.00
C296   C     0.68934   0.71465   0.38986   0.00000  Uiso   1.00
C297   C     0.84230   0.73704   0.28585   0.00000  Uiso   1.00
C298   C     0.86258   0.72308   0.19243   0.00000  Uiso   1.00
C299   C     0.87960   0.75785   0.12750   0.00000  Uiso   1.00
H300   H     0.81316   0.82807   0.44060   0.00000  Uiso   1.00
H301   H     0.86175   0.81647   0.60947   0.00000  Uiso   1.00
H302   H     0.72314   0.82562   0.45000   0.00000  Uiso   1.00
H303   H     0.85367   0.85526   0.27002   0.00000  Uiso   1.00
H304   H     0.91700   0.78288   0.78455   0.00000  Uiso   1.00
H305   H     0.62473   0.80217   0.44827   0.00000  Uiso   1.00
H306   H     0.89999   0.86468   0.06873   0.00000  Uiso   1.00
H307   H     0.82391   0.66826   0.34682   0.00000  Uiso   1.00
H308   H     0.87310   0.64789   0.51055   0.00000  Uiso   1.00
H309   H     0.73448   0.65704   0.35109   0.00000  Uiso   1.00
H310   H     0.86502   0.68668   0.17110   0.00000  Uiso   1.00
H311   H     0.92621   0.64605   0.70426   0.00000  Uiso   1.00
H312   H     0.63393   0.66535   0.36798   0.00000  Uiso   1.00
H313   H     0.90920   0.72785   0.98845   0.00000  Uiso   1.00
O314   O     0.95375   0.70395   0.85382   0.00000  Uiso   1.00
O315   O     0.57030   0.72927   0.41262   0.00000  Uiso   1.00
O316   O     0.93144   0.81127   0.91468   0.00000  Uiso   1.00
N317   N     0.91243   0.75347   0.74317   0.00000  Uiso   1.00
N318   N     0.63917   0.77151   0.42879   0.00000  Uiso   1.00
N319   N     0.89651   0.82995   0.07394   0.00000  Uiso   1.00
N320   N     0.91738   0.67985   0.69997   0.00000  Uiso   1.00
N321   N     0.64412   0.69789   0.38559   0.00000  Uiso   1.00
N322   N     0.90146   0.75632   0.03074   0.00000  Uiso   1.00
C323   C     0.81764   0.42763   0.33356   0.00000  Uiso   1.00
C324   C     0.84580   0.45728   0.40956   0.00000  Uiso   1.00
C325   C     0.82867   0.47877   0.49883   0.00000  Uiso   1.00
C326   C     0.86002   0.50437   0.55807   0.00000  Uiso   1.00
C327   C     0.89663   0.54979   0.68054   0.00000  Uiso   1.00
C328   C     0.84226   0.38071   0.32830   0.00000  Uiso   1.00
C329   C     0.82215   0.33783   0.34924   0.00000  Uiso   1.00
C330   C     0.85053   0.29898   0.34005   0.00000  Uiso   1.00
C331   C     0.88164   0.22553   0.33628   0.00000  Uiso   1.00
C332   C     0.82391   0.44985   0.22613   0.00000  Uiso   1.00
C333   C     0.78837   0.46509   0.16114   0.00000  Uiso   1.00
C334   C     0.80129   0.48444   0.06592   0.00000  Uiso   1.00
C335   C     0.80390   0.51833   0.90351   0.00000  Uiso   1.00
C336   C     0.90379   0.43487   0.28001   0.00000  Uiso   1.00
C337   C     0.89259   0.46121   0.38047   0.00000  Uiso   1.00
C338   C     0.92398   0.48679   0.43959   0.00000  Uiso   1.00
C339   C     0.90690   0.50832   0.52893   0.00000  Uiso   1.00
C340   C     0.88905   0.38465   0.29922   0.00000  Uiso   1.00
C341   C     0.91747   0.34585   0.28999   0.00000  Uiso   1.00
C342   C     0.89741   0.30292   0.31092   0.00000  Uiso   1.00
C343   C     0.87070   0.45379   0.19704   0.00000  Uiso   1.00
C344   C     0.88368   0.47311   0.10190   0.00000  Uiso   1.00
C345   C     0.84817   0.48838   0.03678   0.00000  Uiso   1.00
H346   H     0.78121   0.42456   0.35620   0.00000  Uiso   1.00
H347   H     0.79245   0.47572   0.52132   0.00000  Uiso   1.00
H348   H     0.78594   0.33480   0.37173   0.00000  Uiso   1.00
H349   H     0.75216   0.46204   0.18367   0.00000  Uiso   1.00
H350   H     0.82555   0.53415   0.69158   0.00000  Uiso   1.00
H351   H     0.81182   0.23702   0.37613   0.00000  Uiso   1.00
H352   H     0.74058   0.50533   0.97956   0.00000  Uiso   1.00
H353   H     0.94022   0.43793   0.25736   0.00000  Uiso   1.00
H354   H     0.96019   0.48982   0.41706   0.00000  Uiso   1.00
H355   H     0.95367   0.34890   0.26748   0.00000  Uiso   1.00
H356   H     0.91989   0.47614   0.07942   0.00000  Uiso   1.00
H357   H     0.96169   0.54560   0.60696   0.00000  Uiso   1.00
H358   H     0.94796   0.24846   0.29151   0.00000  Uiso   1.00
H359   H     0.87672   0.51678   0.89494   0.00000  Uiso   1.00
O360   O     0.90389   0.57376   0.75613   0.00000  Uiso   1.00
O361   O     0.88587   0.18393   0.34225   0.00000  Uiso   1.00
O362   O     0.79241   0.53595   0.82197   0.00000  Uiso   1.00
N363   N     0.85485   0.52973   0.64974   0.00000  Uiso   1.00
N364   N     0.84201   0.25193   0.35483   0.00000  Uiso   1.00
N365   N     0.77541   0.50277   0.98406   0.00000  Uiso   1.00
N366   N     0.92811   0.53589   0.60420   0.00000  Uiso   1.00
N367   N     0.91527   0.25809   0.30930   0.00000  Uiso   1.00
N368   N     0.84867   0.50893   0.93853   0.00000  Uiso   1.00
C369   C     0.70854   0.68437   0.91911   0.00000  Uiso   1.00
C370   C     0.73700   0.65648   0.99786   0.00000  Uiso   1.00
C371   C     0.71992   0.63579   0.08814   0.00000  Uiso   1.00
C372   C     0.75157   0.61180   0.14993   0.00000  Uiso   1.00
C373   C     0.78861   0.56898   0.27642   0.00000  Uiso   1.00
C374   C     0.73203   0.73179   0.91123   0.00000  Uiso   1.00
C375   C     0.71077   0.77443   0.92866   0.00000  Uiso   1.00
C376   C     0.73824   0.81383   0.91751   0.00000  Uiso   1.00
C377   C     0.76755   0.88794   0.90944   0.00000  Uiso   1.00
C378   C     0.71593   0.66086   0.81345   0.00000  Uiso   1.00
C379   C     0.68113   0.64387   0.74864   0.00000  Uiso   1.00
C380   C     0.69503   0.62357   0.65515   0.00000  Uiso   1.00
C381   C     0.69934   0.58755   0.49525   0.00000  Uiso   1.00
C382   C     0.79513   0.67855   0.86831   0.00000  Uiso   1.00
C383   C     0.78403   0.65332   0.97026   0.00000  Uiso   1.00
C384   C     0.81572   0.62935   0.03193   0.00000  Uiso   1.00
C385   C     0.79868   0.60862   0.12228   0.00000  Uiso   1.00
C386   C     0.77906   0.72863   0.88364   0.00000  Uiso   1.00
C387   C     0.80656   0.76798   0.87245   0.00000  Uiso   1.00
C388   C     0.78535   0.81066   0.88986   0.00000  Uiso   1.00
C389   C     0.76296   0.65770   0.78585   0.00000  Uiso   1.00
C390   C     0.77692   0.63742   0.69243   0.00000  Uiso   1.00
C391   C     0.74215   0.62040   0.62750   0.00000  Uiso   1.00
H392   H     0.67193   0.68684   0.94060   0.00000  Uiso   1.00
H393   H     0.68353   0.63825   0.10947   0.00000  Uiso   1.00
H394   H     0.67438   0.77686   0.95000   0.00000  Uiso   1.00
H395   H     0.64474   0.64633   0.77002   0.00000  Uiso   1.00
H396   H     0.71712   0.58300   0.28455   0.00000  Uiso   1.00
H397   H     0.69783   0.87527   0.94827   0.00000  Uiso   1.00
H398   H     0.63532   0.60001   0.56873   0.00000  Uiso   1.00
H399   H     0.83174   0.67609   0.84682   0.00000  Uiso   1.00
H400   H     0.85211   0.62690   0.01055   0.00000  Uiso   1.00
H401   H     0.84296   0.76552   0.85109   0.00000  Uiso   1.00
H402   H     0.81332   0.63498   0.67110   0.00000  Uiso   1.00
H403   H     0.85395   0.57379   0.20426   0.00000  Uiso   1.00
H404   H     0.83465   0.86607   0.86798   0.00000  Uiso   1.00
H405   H     0.77215   0.59080   0.48845   0.00000  Uiso   1.00
O406   O     0.79605   0.54625   0.35382   0.00000  Uiso   1.00
O407   O     0.77073   0.92970   0.91262   0.00000  Uiso   1.00
O408   O     0.68873   0.56856   0.41468   0.00000  Uiso   1.00
N409   N     0.74653   0.58757   0.24317   0.00000  Uiso   1.00
N410   N     0.72849   0.86083   0.92879   0.00000  Uiso   1.00
N411   N     0.67005   0.60349   0.57394   0.00000  Uiso   1.00
N412   N     0.82015   0.58262   0.19997   0.00000  Uiso   1.00
N413   N     0.80211   0.85588   0.88559   0.00000  Uiso   1.00
N414   N     0.74368   0.59854   0.53074   0.00000  Uiso   1.00
C415   C     0.07237   0.68236   0.83356   0.00000  Uiso   1.00
C416   C     0.04272   0.65420   0.90956   0.00000  Uiso   1.00
C417   C     0.02123   0.67133   0.99883   0.00000  Uiso   1.00
C418   C     0.99563   0.63998   0.05807   0.00000  Uiso   1.00
C419   C     0.95021   0.60337   0.18054   0.00000  Uiso   1.00
C420   C     0.11929   0.65774   0.82830   0.00000  Uiso   1.00
C421   C     0.16217   0.67785   0.84924   0.00000  Uiso   1.00
C422   C     0.20102   0.64947   0.84005   0.00000  Uiso   1.00
C423   C     0.27447   0.61836   0.83628   0.00000  Uiso   1.00
C424   C     0.05015   0.67609   0.72613   0.00000  Uiso   1.00
C425   C     0.03491   0.71163   0.66114   0.00000  Uiso   1.00
C426   C     0.01556   0.69871   0.56592   0.00000  Uiso   1.00
C427   C     0.98167   0.69610   0.40351   0.00000  Uiso   1.00
C428   C     0.06513   0.59621   0.78001   0.00000  Uiso   1.00
C429   C     0.03879   0.60741   0.88047   0.00000  Uiso   1.00
C430   C     0.01321   0.57602   0.93959   0.00000  Uiso   1.00
C431   C     0.99168   0.59310   0.02893   0.00000  Uiso   1.00
C432   C     0.11535   0.61095   0.79922   0.00000  Uiso   1.00
C433   C     0.15415   0.58253   0.78999   0.00000  Uiso   1.00
C434   C     0.19708   0.60259   0.81092   0.00000  Uiso   1.00
C435   C     0.04621   0.62930   0.69704   0.00000  Uiso   1.00
C436   C     0.02689   0.61632   0.60190   0.00000  Uiso   1.00
C437   C     0.01162   0.65183   0.53678   0.00000  Uiso   1.00
H438   H     0.07544   0.71879   0.85620   0.00000  Uiso   1.00
H439   H     0.02428   0.70755   0.02132   0.00000  Uiso   1.00
H440   H     0.16520   0.71406   0.87173   0.00000  Uiso   1.00
H441   H     0.03796   0.74784   0.68367   0.00000  Uiso   1.00
H442   H     0.96585   0.67445   0.19158   0.00000  Uiso   1.00
H443   H     0.26298   0.68818   0.87613   0.00000  Uiso   1.00
H444   H     0.99467   0.75942   0.47956   0.00000  Uiso   1.00
H445   H     0.06207   0.55978   0.75736   0.00000  Uiso   1.00
H446   H     0.01018   0.53981   0.91706   0.00000  Uiso   1.00
H447   H     0.15110   0.54633   0.76748   0.00000  Uiso   1.00
H448   H     0.02386   0.58011   0.57942   0.00000  Uiso   1.00
H449   H     0.95440   0.53831   0.10696   0.00000  Uiso   1.00
H450   H     0.25154   0.55204   0.79151   0.00000  Uiso   1.00
H451   H     0.98322   0.62328   0.39494   0.00000  Uiso   1.00
O452   O     0.92624   0.59611   0.25613   0.00000  Uiso   1.00
O453   O     0.31607   0.61413   0.84225   0.00000  Uiso   1.00
O454   O     0.96405   0.70759   0.32197   0.00000  Uiso   1.00
N455   N     0.97027   0.64515   0.14974   0.00000  Uiso   1.00
N456   N     0.24807   0.65799   0.85483   0.00000  Uiso   1.00
N457   N     0.99723   0.72459   0.48406   0.00000  Uiso   1.00
N458   N     0.96411   0.57189   0.10420   0.00000  Uiso   1.00
N459   N     0.24191   0.58473   0.80930   0.00000  Uiso   1.00
N460   N     0.99107   0.65133   0.43853   0.00000  Uiso   1.00
C461   C     0.29146   0.31563   0.91911   0.00000  Uiso   1.00
C462   C     0.26300   0.34352   0.99786   0.00000  Uiso   1.00
C463   C     0.28008   0.36421   0.08814   0.00000  Uiso   1.00
C464   C     0.24843   0.38820   0.14993   0.00000  Uiso   1.00
C465   C     0.21139   0.43102   0.27642   0.00000  Uiso   1.00
C466   C     0.26797   0.26821   0.91123   0.00000  Uiso   1.00
C467   C     0.28923   0.22557   0.92866   0.00000  Uiso   1.00
C468   C     0.26176   0.18617   0.91751   0.00000  Uiso   1.00
C469   C     0.23245   0.11206   0.90944   0.00000  Uiso   1.00
C470   C     0.28407   0.33914   0.81345   0.00000  Uiso   1.00
C471   C     0.31887   0.35613   0.74864   0.00000  Uiso   1.00
C472   C     0.30497   0.37643   0.65515   0.00000  Uiso   1.00
C473   C     0.30066   0.41245   0.49525   0.00000  Uiso   1.00
C474   C     0.20487   0.32145   0.86831   0.00000  Uiso   1.00
C475   C     0.21597   0.34668   0.97026   0.00000  Uiso   1.00
C476   C     0.18428   0.37065   0.03193   0.00000  Uiso   1.00
C477   C     0.20132   0.39138   0.12228   0.00000  Uiso   1.00
C478   C     0.22094   0.27137   0.88364   0.00000  Uiso   1.00
C479   C     0.19344   0.23202   0.87245   0.00000  Uiso   1.00
C480   C     0.21465   0.18934   0.88986   0.00000  Uiso   1.00
C481   C     0.23704   0.34230   0.78585   0.00000  Uiso   1.00
C482   C     0.22308   0.36258   0.69243   0.00000  Uiso   1.00
C483   C     0.25785   0.37960   0.62750   0.00000  Uiso   1.00
H484   H     0.32807   0.31316   0.94060   0.00000  Uiso   1.00
H485   H     0.31647   0.36175   0.10947   0.00000  Uiso   1.00
H486   H     0.32562   0.22314   0.95000   0.00000  Uiso   1.00
H487   H     0.35526   0.35367   0.77002   0.00000  Uiso   1.00
H488   H     0.28288   0.41700   0.28455   0.00000  Uiso   1.00
H489   H     0.30217   0.12473   0.94827   0.00000  Uiso   1.00
H490   H     0.36468   0.39999   0.56873   0.00000  Uiso   1.00
H491   H     0.16826   0.32391   0.84682   0.00000  Uiso   1.00
H492   H     0.14789   0.37310   0.01055   0.00000  Uiso   1.00
H493   H     0.15704   0.23448   0.85109   0.00000  Uiso   1.00
H494   H     0.18668   0.36502   0.67110   0.00000  Uiso   1.00
H495   H     0.14605   0.42621   0.20426   0.00000  Uiso   1.00
H496   H     0.16535   0.13393   0.86798   0.00000  Uiso   1.00
H497   H     0.22785   0.40920   0.48845   0.00000  Uiso   1.00
O498   O     0.20395   0.45375   0.35382   0.00000  Uiso   1.00
O499   O     0.22927   0.07030   0.91262   0.00000  Uiso   1.00
O500   O     0.31127   0.43144   0.41468   0.00000  Uiso   1.00
N501   N     0.25347   0.41243   0.24317   0.00000  Uiso   1.00
N502   N     0.27151   0.13917   0.92879   0.00000  Uiso   1.00
N503   N     0.32995   0.39651   0.57394   0.00000  Uiso   1.00
N504   N     0.17985   0.41738   0.19997   0.00000  Uiso   1.00
N505   N     0.19789   0.14412   0.88559   0.00000  Uiso   1.00
N506   N     0.25632   0.40146   0.53074   0.00000  Uiso   1.00
C507   C     0.92763   0.31764   0.83356   0.00000  Uiso   1.00
C508   C     0.95728   0.34580   0.90956   0.00000  Uiso   1.00
C509   C     0.97877   0.32867   0.99883   0.00000  Uiso   1.00
C510   C     0.00437   0.36002   0.05807   0.00000  Uiso   1.00
C511   C     0.04979   0.39663   0.18054   0.00000  Uiso   1.00
C512   C     0.88071   0.34226   0.82830   0.00000  Uiso   1.00
C513   C     0.83783   0.32215   0.84924   0.00000  Uiso   1.00
C514   C     0.79898   0.35053   0.84005   0.00000  Uiso   1.00
C515   C     0.72553   0.38164   0.83628   0.00000  Uiso   1.00
C516   C     0.94985   0.32391   0.72613   0.00000  Uiso   1.00
C517   C     0.96509   0.28837   0.66114   0.00000  Uiso   1.00
C518   C     0.98444   0.30129   0.56592   0.00000  Uiso   1.00
C519   C     0.01833   0.30390   0.40351   0.00000  Uiso   1.00
C520   C     0.93487   0.40379   0.78001   0.00000  Uiso   1.00
C521   C     0.96121   0.39259   0.88047   0.00000  Uiso   1.00
C522   C     0.98679   0.42398   0.93959   0.00000  Uiso   1.00
C523   C     0.00832   0.40690   0.02893   0.00000  Uiso   1.00
C524   C     0.88465   0.38905   0.79922   0.00000  Uiso   1.00
C525   C     0.84585   0.41747   0.78999   0.00000  Uiso   1.00
C526   C     0.80292   0.39741   0.81092   0.00000  Uiso   1.00
C527   C     0.95379   0.37070   0.69704   0.00000  Uiso   1.00
C528   C     0.97311   0.38368   0.60190   0.00000  Uiso   1.00
C529   C     0.98838   0.34817   0.53678   0.00000  Uiso   1.00
H530   H     0.92456   0.28121   0.85620   0.00000  Uiso   1.00
H531   H     0.97572   0.29245   0.02132   0.00000  Uiso   1.00
H532   H     0.83480   0.28594   0.87173   0.00000  Uiso   1.00
H533   H     0.96204   0.25216   0.68367   0.00000  Uiso   1.00
H534   H     0.03415   0.32555   0.19158   0.00000  Uiso   1.00
H535   H     0.73702   0.31182   0.87613   0.00000  Uiso   1.00
H536   H     0.00533   0.24058   0.47956   0.00000  Uiso   1.00
H537   H     0.93793   0.44022   0.75736   0.00000  Uiso   1.00
H538   H     0.98982   0.46019   0.91706   0.00000  Uiso   1.00
H539   H     0.84890   0.45367   0.76748   0.00000  Uiso   1.00
H540   H     0.97614   0.41989   0.57942   0.00000  Uiso   1.00
H541   H     0.04560   0.46169   0.10696   0.00000  Uiso   1.00
H542   H     0.74846   0.44796   0.79151   0.00000  Uiso   1.00
H543   H     0.01678   0.37672   0.39494   0.00000  Uiso   1.00
O544   O     0.07376   0.40389   0.25613   0.00000  Uiso   1.00
O545   O     0.68393   0.38587   0.84225   0.00000  Uiso   1.00
O546   O     0.03595   0.29241   0.32197   0.00000  Uiso   1.00
N547   N     0.02973   0.35485   0.14974   0.00000  Uiso   1.00
N548   N     0.75193   0.34201   0.85483   0.00000  Uiso   1.00
N549   N     0.00277   0.27541   0.48406   0.00000  Uiso   1.00
N550   N     0.03589   0.42811   0.10420   0.00000  Uiso   1.00
N551   N     0.75809   0.41527   0.80930   0.00000  Uiso   1.00
N552   N     0.00893   0.34867   0.43853   0.00000  Uiso   1.00
C553   C     0.31563   0.70854   0.08089   0.00000  Uiso   1.00
C554   C     0.34352   0.73700   0.00214   0.00000  Uiso   1.00
C555   C     0.36421   0.71992   0.91186   0.00000  Uiso   1.00
C556   C     0.38820   0.75157   0.85007   0.00000  Uiso   1.00
C557   C     0.43102   0.78861   0.72358   0.00000  Uiso   1.00
C558   C     0.26821   0.73203   0.08877   0.00000  Uiso   1.00
C559   C     0.22557   0.71077   0.07134   0.00000  Uiso   1.00
C560   C     0.18617   0.73824   0.08249   0.00000  Uiso   1.00
C561   C     0.11206   0.76755   0.09056   0.00000  Uiso   1.00
C562   C     0.33914   0.71593   0.18655   0.00000  Uiso   1.00
C563   C     0.35613   0.68113   0.25136   0.00000  Uiso   1.00
C564   C     0.37643   0.69503   0.34485   0.00000  Uiso   1.00
C565   C     0.41245   0.69934   0.50475   0.00000  Uiso   1.00
C566   C     0.32145   0.79513   0.13169   0.00000  Uiso   1.00
C567   C     0.34668   0.78403   0.02974   0.00000  Uiso   1.00
C568   C     0.37065   0.81572   0.96807   0.00000  Uiso   1.00
C569   C     0.39138   0.79868   0.87772   0.00000  Uiso   1.00
C570   C     0.27137   0.77906   0.11636   0.00000  Uiso   1.00
C571   C     0.23202   0.80656   0.12755   0.00000  Uiso   1.00
C572   C     0.18934   0.78535   0.11014   0.00000  Uiso   1.00
C573   C     0.34230   0.76296   0.21415   0.00000  Uiso   1.00
C574   C     0.36258   0.77692   0.30757   0.00000  Uiso   1.00
C575   C     0.37960   0.74215   0.37250   0.00000  Uiso   1.00
H576   H     0.31316   0.67193   0.05940   0.00000  Uiso   1.00
H577   H     0.36175   0.68353   0.89053   0.00000  Uiso   1.00
H578   H     0.22314   0.67438   0.05000   0.00000  Uiso   1.00
H579   H     0.35367   0.64474   0.22998   0.00000  Uiso   1.00
H580   H     0.41700   0.71712   0.71545   0.00000  Uiso   1.00
H581   H     0.12473   0.69783   0.05173   0.00000  Uiso   1.00
H582   H     0.39999   0.63532   0.43127   0.00000  Uiso   1.00
H583   H     0.32391   0.83174   0.15318   0.00000  Uiso   1.00
H584   H     0.37310   0.85211   0.98945   0.00000  Uiso   1.00
H585   H     0.23448   0.84296   0.14891   0.00000  Uiso   1.00
H586   H     0.36502   0.81332   0.32890   0.00000  Uiso   1.00
H587   H     0.42621   0.85395   0.79574   0.00000  Uiso   1.00
H588   H     0.13393   0.83465   0.13202   0.00000  Uiso   1.00
H589   H     0.40920   0.77215   0.51155   0.00000  Uiso   1.00
O590   O     0.45375   0.79605   0.64618   0.00000  Uiso   1.00
O591   O     0.07030   0.77073   0.08738   0.00000  Uiso   1.00
O592   O     0.43144   0.68873   0.58532   0.00000  Uiso   1.00
N593   N     0.41243   0.74653   0.75683   0.00000  Uiso   1.00
N594   N     0.13917   0.72849   0.07121   0.00000  Uiso   1.00
N595   N     0.39651   0.67005   0.42606   0.00000  Uiso   1.00
N596   N     0.41738   0.82015   0.80003   0.00000  Uiso   1.00
N597   N     0.14412   0.80211   0.11441   0.00000  Uiso   1.00
N598   N     0.40146   0.74368   0.46926   0.00000  Uiso   1.00
C599   C     0.31764   0.07237   0.16644   0.00000  Uiso   1.00
C600   C     0.34580   0.04272   0.09044   0.00000  Uiso   1.00
C601   C     0.32867   0.02123   0.00117   0.00000  Uiso   1.00
C602   C     0.36002   0.99563   0.94193   0.00000  Uiso   1.00
C603   C     0.39663   0.95021   0.81946   0.00000  Uiso   1.00
C604   C     0.34226   0.11929   0.17170   0.00000  Uiso   1.00
C605   C     0.32215   0.16217   0.15076   0.00000  Uiso   1.00
C606   C     0.35053   0.20102   0.15995   0.00000  Uiso   1.00
C607   C     0.38164   0.27447   0.16372   0.00000  Uiso   1.00
C608   C     0.32391   0.05015   0.27387   0.00000  Uiso   1.00
C609   C     0.28837   0.03491   0.33886   0.00000  Uiso   1.00
C610   C     0.30129   0.01556   0.43408   0.00000  Uiso   1.00
C611   C     0.30390   0.98167   0.59649   0.00000  Uiso   1.00
C612   C     0.40379   0.06513   0.21999   0.00000  Uiso   1.00
C613   C     0.39259   0.03879   0.11953   0.00000  Uiso   1.00
C614   C     0.42398   0.01321   0.06041   0.00000  Uiso   1.00
C615   C     0.40690   0.99168   0.97107   0.00000  Uiso   1.00
C616   C     0.38905   0.11535   0.20078   0.00000  Uiso   1.00
C617   C     0.41747   0.15415   0.21001   0.00000  Uiso   1.00
C618   C     0.39741   0.19708   0.18908   0.00000  Uiso   1.00
C619   C     0.37070   0.04621   0.30296   0.00000  Uiso   1.00
C620   C     0.38368   0.02689   0.39810   0.00000  Uiso   1.00
C621   C     0.34817   0.01162   0.46322   0.00000  Uiso   1.00
H622   H     0.28121   0.07544   0.14380   0.00000  Uiso   1.00
H623   H     0.29245   0.02428   0.97868   0.00000  Uiso   1.00
H624   H     0.28594   0.16520   0.12827   0.00000  Uiso   1.00
H625   H     0.25216   0.03796   0.31633   0.00000  Uiso   1.00
H626   H     0.32555   0.96585   0.80842   0.00000  Uiso   1.00
H627   H     0.31182   0.26298   0.12387   0.00000  Uiso   1.00
H628   H     0.24058   0.99467   0.52044   0.00000  Uiso   1.00
H629   H     0.44022   0.06207   0.24264   0.00000  Uiso   1.00
H630   H     0.46019   0.01018   0.08294   0.00000  Uiso   1.00
H631   H     0.45367   0.15110   0.23252   0.00000  Uiso   1.00
H632   H     0.41989   0.02386   0.42058   0.00000  Uiso   1.00
H633   H     0.46169   0.95440   0.89304   0.00000  Uiso   1.00
H634   H     0.44796   0.25154   0.20849   0.00000  Uiso   1.00
H635   H     0.37672   0.98322   0.60506   0.00000  Uiso   1.00
O636   O     0.40389   0.92624   0.74387   0.00000  Uiso   1.00
O637   O     0.38587   0.31607   0.15775   0.00000  Uiso   1.00
O638   O     0.29241   0.96405   0.67803   0.00000  Uiso   1.00
N639   N     0.35485   0.97027   0.85026   0.00000  Uiso   1.00
N640   N     0.34201   0.24807   0.14517   0.00000  Uiso   1.00
N641   N     0.27541   0.99723   0.51594   0.00000  Uiso   1.00
N642   N     0.42811   0.96411   0.89580   0.00000  Uiso   1.00
N643   N     0.41527   0.24191   0.19070   0.00000  Uiso   1.00
N644   N     0.34867   0.99107   0.56147   0.00000  Uiso   1.00
C645   C     0.68437   0.29146   0.08089   0.00000  Uiso   1.00
C646   C     0.65648   0.26300   0.00214   0.00000  Uiso   1.00
C647   C     0.63579   0.28008   0.91186   0.00000  Uiso   1.00
C648   C     0.61180   0.24843   0.85007   0.00000  Uiso   1.00
C649   C     0.56898   0.21139   0.72358   0.00000  Uiso   1.00
C650   C     0.73179   0.26797   0.08877   0.00000  Uiso   1.00
C651   C     0.77443   0.28923   0.07134   0.00000  Uiso   1.00
C652   C     0.81383   0.26176   0.08249   0.00000  Uiso   1.00
C653   C     0.88794   0.23245   0.09056   0.00000  Uiso   1.00
C654   C     0.66086   0.28407   0.18655   0.00000  Uiso   1.00
C655   C     0.64387   0.31887   0.25136   0.00000  Uiso   1.00
C656   C     0.62357   0.30497   0.34485   0.00000  Uiso   1.00
C657   C     0.58755   0.30066   0.50475   0.00000  Uiso   1.00
C658   C     0.67855   0.20487   0.13169   0.00000  Uiso   1.00
C659   C     0.65332   0.21597   0.02974   0.00000  Uiso   1.00
C660   C     0.62935   0.18428   0.96807   0.00000  Uiso   1.00
C661   C     0.60862   0.20132   0.87772   0.00000  Uiso   1.00
C662   C     0.72863   0.22094   0.11636   0.00000  Uiso   1.00
C663   C     0.76798   0.19344   0.12755   0.00000  Uiso   1.00
C664   C     0.81066   0.21465   0.11014   0.00000  Uiso   1.00
C665   C     0.65770   0.23704   0.21415   0.00000  Uiso   1.00
C666   C     0.63742   0.22308   0.30757   0.00000  Uiso   1.00
C667   C     0.62040   0.25785   0.37250   0.00000  Uiso   1.00
H668   H     0.68684   0.32807   0.05940   0.00000  Uiso   1.00
H669   H     0.63825   0.31647   0.89053   0.00000  Uiso   1.00
H670   H     0.77686   0.32562   0.05000   0.00000  Uiso   1.00
H671   H     0.64633   0.35526   0.22998   0.00000  Uiso   1.00
H672   H     0.58300   0.28288   0.71545   0.00000  Uiso   1.00
H673   H     0.87527   0.30217   0.05173   0.00000  Uiso   1.00
H674   H     0.60001   0.36468   0.43127   0.00000  Uiso   1.00
H675   H     0.67609   0.16826   0.15318   0.00000  Uiso   1.00
H676   H     0.62690   0.14789   0.98945   0.00000  Uiso   1.00
H677   H     0.76552   0.15704   0.14891   0.00000  Uiso   1.00
H678   H     0.63498   0.18668   0.32890   0.00000  Uiso   1.00
H679   H     0.57379   0.14605   0.79574   0.00000  Uiso   1.00
H680   H     0.86607   0.16535   0.13202   0.00000  Uiso   1.00
H681   H     0.59080   0.22785   0.51155   0.00000  Uiso   1.00
O682   O     0.54625   0.20395   0.64618   0.00000  Uiso   1.00
O683   O     0.92970   0.22927   0.08738   0.00000  Uiso   1.00
O684   O     0.56856   0.31127   0.58532   0.00000  Uiso   1.00
N685   N     0.58757   0.25347   0.75683   0.00000  Uiso   1.00
N686   N     0.86083   0.27151   0.07121   0.00000  Uiso   1.00
N687   N     0.60349   0.32995   0.42606   0.00000  Uiso   1.00
N688   N     0.58262   0.17985   0.80003   0.00000  Uiso   1.00
N689   N     0.85588   0.19789   0.11441   0.00000  Uiso   1.00
N690   N     0.59854   0.25632   0.46926   0.00000  Uiso   1.00
C691   C     0.68236   0.92763   0.16644   0.00000  Uiso   1.00
C692   C     0.65420   0.95728   0.09044   0.00000  Uiso   1.00
C693   C     0.67133   0.97877   0.00117   0.00000  Uiso   1.00
C694   C     0.63998   0.00437   0.94193   0.00000  Uiso   1.00
C695   C     0.60337   0.04979   0.81946   0.00000  Uiso   1.00
C696   C     0.65774   0.88071   0.17170   0.00000  Uiso   1.00
C697   C     0.67785   0.83783   0.15076   0.00000  Uiso   1.00
C698   C     0.64947   0.79898   0.15995   0.00000  Uiso   1.00
C699   C     0.61836   0.72553   0.16372   0.00000  Uiso   1.00
C700   C     0.67609   0.94985   0.27387   0.00000  Uiso   1.00
C701   C     0.71163   0.96509   0.33886   0.00000  Uiso   1.00
C702   C     0.69871   0.98444   0.43408   0.00000  Uiso   1.00
C703   C     0.69610   0.01833   0.59649   0.00000  Uiso   1.00
C704   C     0.59621   0.93487   0.21999   0.00000  Uiso   1.00
C705   C     0.60741   0.96121   0.11953   0.00000  Uiso   1.00
C706   C     0.57602   0.98679   0.06041   0.00000  Uiso   1.00
C707   C     0.59310   0.00832   0.97107   0.00000  Uiso   1.00
C708   C     0.61095   0.88465   0.20078   0.00000  Uiso   1.00
C709   C     0.58253   0.84585   0.21001   0.00000  Uiso   1.00
C710   C     0.60259   0.80292   0.18908   0.00000  Uiso   1.00
C711   C     0.62930   0.95379   0.30296   0.00000  Uiso   1.00
C712   C     0.61632   0.97311   0.39810   0.00000  Uiso   1.00
C713   C     0.65183   0.98838   0.46322   0.00000  Uiso   1.00
H714   H     0.71879   0.92456   0.14380   0.00000  Uiso   1.00
H715   H     0.70755   0.97572   0.97868   0.00000  Uiso   1.00
H716   H     0.71406   0.83480   0.12827   0.00000  Uiso   1.00
H717   H     0.74784   0.96204   0.31633   0.00000  Uiso   1.00
H718   H     0.67445   0.03415   0.80842   0.00000  Uiso   1.00
H719   H     0.68818   0.73702   0.12387   0.00000  Uiso   1.00
H720   H     0.75942   0.00533   0.52044   0.00000  Uiso   1.00
H721   H     0.55978   0.93793   0.24264   0.00000  Uiso   1.00
H722   H     0.53981   0.98982   0.08294   0.00000  Uiso   1.00
H723   H     0.54633   0.84890   0.23252   0.00000  Uiso   1.00
H724   H     0.58011   0.97614   0.42058   0.00000  Uiso   1.00
H725   H     0.53831   0.04560   0.89304   0.00000  Uiso   1.00
H726   H     0.55204   0.74846   0.20849   0.00000  Uiso   1.00
H727   H     0.62328   0.01678   0.60506   0.00000  Uiso   1.00
O728   O     0.59611   0.07376   0.74387   0.00000  Uiso   1.00
O729   O     0.61413   0.68393   0.15775   0.00000  Uiso   1.00
O730   O     0.70759   0.03595   0.67803   0.00000  Uiso   1.00
N731   N     0.64515   0.02973   0.85026   0.00000  Uiso   1.00
N732   N     0.65799   0.75193   0.14517   0.00000  Uiso   1.00
N733   N     0.72459   0.00277   0.51594   0.00000  Uiso   1.00
N734   N     0.57189   0.03589   0.89580   0.00000  Uiso   1.00
N735   N     0.58473   0.75809   0.19070   0.00000  Uiso   1.00
N736   N     0.65133   0.00893   0.56147   0.00000  Uiso   1.00
