data_job_01970
_audit_creation_date              2018-12-19
_audit_creation_method            'Materials Studio'
_symmetry_space_group_name_H-M    'P1'
_symmetry_Int_Tables_number       1
_symmetry_cell_setting            triclinic
loop_
_symmetry_equiv_pos_as_xyz
  x,y,z
_cell_length_a                    40.0255
_cell_length_b                    28.0339
_cell_length_c                    10.0221
_cell_angle_alpha                 90.0000
_cell_angle_beta                  90.0000
_cell_angle_gamma                 90.0000
loop_
_atom_site_label
_atom_site_type_symbol
_atom_site_fract_x
_atom_site_fract_y
_atom_site_fract_z
_atom_site_U_iso_or_equiv
_atom_site_adp_type
_atom_site_occupancy
C1     C     0.32408   0.42203   0.37493   0.00000  Uiso   1.00
C2     C     0.32017   0.37092   0.42460   0.00000  Uiso   1.00
C3     C     0.29618   0.35500   0.51411   0.00000  Uiso   1.00
C4     C     0.29677   0.30690   0.54699   0.00000  Uiso   1.00
C5     C     0.28710   0.23226   0.63249   0.00000  Uiso   1.00
C6     C     0.35985   0.43655   0.40800   0.00000  Uiso   1.00
C7     C     0.36922   0.47582   0.48354   0.00000  Uiso   1.00
C8     C     0.40322   0.48297   0.50242   0.00000  Uiso   1.00
C9     C     0.45515   0.51024   0.56206   0.00000  Uiso   1.00
C10    C     0.32218   0.41947   0.22314   0.00000  Uiso   1.00
C11    C     0.29988   0.44440   0.14324   0.00000  Uiso   1.00
C12    C     0.30216   0.43718   0.00649   0.00000  Uiso   1.00
C13    C     0.29560   0.43794   0.77911   0.00000  Uiso   1.00
C14    C     0.36779   0.36489   0.27413   0.00000  Uiso   1.00
C15    C     0.34391   0.33988   0.36985   0.00000  Uiso   1.00
C16    C     0.34454   0.29179   0.40259   0.00000  Uiso   1.00
C17    C     0.32056   0.27581   0.49214   0.00000  Uiso   1.00
C18    C     0.38359   0.40551   0.35325   0.00000  Uiso   1.00
C19    C     0.41759   0.41261   0.37202   0.00000  Uiso   1.00
C20    C     0.42701   0.45188   0.44758   0.00000  Uiso   1.00
C21    C     0.34592   0.38844   0.16839   0.00000  Uiso   1.00
C22    C     0.34824   0.38118   0.03173   0.00000  Uiso   1.00
C23    C     0.32595   0.40609   0.95164   0.00000  Uiso   1.00
H24    H     0.30559   0.44619   0.41756   0.00000  Uiso   1.00
H25    H     0.27781   0.37903   0.55647   0.00000  Uiso   1.00
H26    H     0.35084   0.49983   0.52588   0.00000  Uiso   1.00
H27    H     0.28151   0.46841   0.18565   0.00000  Uiso   1.00
H28    H     0.25748   0.29089   0.68637   0.00000  Uiso   1.00
H29    H     0.41147   0.54561   0.62184   0.00000  Uiso   1.00
H30    H     0.26527   0.47936   0.90438   0.00000  Uiso   1.00
H31    H     0.38628   0.34073   0.23151   0.00000  Uiso   1.00
H32    H     0.36292   0.26778   0.36021   0.00000  Uiso   1.00
H33    H     0.43595   0.38859   0.32963   0.00000  Uiso   1.00
H34    H     0.36662   0.35716   0.98939   0.00000  Uiso   1.00
H35    H     0.32656   0.20060   0.52709   0.00000  Uiso   1.00
H36    H     0.48056   0.45533   0.46256   0.00000  Uiso   1.00
H37    H     0.33436   0.38906   0.74510   0.00000  Uiso   1.00
O38    O     0.27521   0.19967   0.69479   0.00000  Uiso   1.00
O39    O     0.47724   0.53386   0.61010   0.00000  Uiso   1.00
O40    O     0.28543   0.44693   0.66882   0.00000  Uiso   1.00
N41    N     0.27694   0.27965   0.63120   0.00000  Uiso   1.00
N42    N     0.42091   0.51780   0.57089   0.00000  Uiso   1.00
N43    N     0.28423   0.45586   0.90012   0.00000  Uiso   1.00
N44    N     0.31411   0.23107   0.54549   0.00000  Uiso   1.00
N45    N     0.45809   0.46921   0.48518   0.00000  Uiso   1.00
N46    N     0.32141   0.40728   0.81441   0.00000  Uiso   1.00
C47    C     0.82408   0.92203   0.87493   0.00000  Uiso   1.00
C48    C     0.82017   0.87092   0.92460   0.00000  Uiso   1.00
C49    C     0.79618   0.85500   0.01411   0.00000  Uiso   1.00
C50    C     0.79677   0.80690   0.04699   0.00000  Uiso   1.00
C51    C     0.78710   0.73226   0.13249   0.00000  Uiso   1.00
C52    C     0.85985   0.93655   0.90800   0.00000  Uiso   1.00
C53    C     0.86922   0.97582   0.98354   0.00000  Uiso   1.00
C54    C     0.90322   0.98297   0.00242   0.00000  Uiso   1.00
C55    C     0.95515   0.01024   0.06206   0.00000  Uiso   1.00
C56    C     0.82218   0.91947   0.72314   0.00000  Uiso   1.00
C57    C     0.79988   0.94440   0.64324   0.00000  Uiso   1.00
C58    C     0.80216   0.93718   0.50649   0.00000  Uiso   1.00
C59    C     0.79560   0.93794   0.27911   0.00000  Uiso   1.00
C60    C     0.86779   0.86489   0.77413   0.00000  Uiso   1.00
C61    C     0.84391   0.83988   0.86985   0.00000  Uiso   1.00
C62    C     0.84454   0.79179   0.90259   0.00000  Uiso   1.00
C63    C     0.82056   0.77581   0.99214   0.00000  Uiso   1.00
C64    C     0.88359   0.90551   0.85325   0.00000  Uiso   1.00
C65    C     0.91759   0.91261   0.87202   0.00000  Uiso   1.00
C66    C     0.92701   0.95188   0.94758   0.00000  Uiso   1.00
C67    C     0.84592   0.88844   0.66839   0.00000  Uiso   1.00
C68    C     0.84824   0.88118   0.53173   0.00000  Uiso   1.00
C69    C     0.82595   0.90609   0.45164   0.00000  Uiso   1.00
H70    H     0.80559   0.94619   0.91756   0.00000  Uiso   1.00
H71    H     0.77781   0.87903   0.05647   0.00000  Uiso   1.00
H72    H     0.85084   0.99983   0.02588   0.00000  Uiso   1.00
H73    H     0.78151   0.96841   0.68565   0.00000  Uiso   1.00
H74    H     0.75748   0.79089   0.18637   0.00000  Uiso   1.00
H75    H     0.91147   0.04561   0.12184   0.00000  Uiso   1.00
H76    H     0.76527   0.97936   0.40438   0.00000  Uiso   1.00
H77    H     0.88628   0.84073   0.73151   0.00000  Uiso   1.00
H78    H     0.86292   0.76778   0.86021   0.00000  Uiso   1.00
H79    H     0.93595   0.88859   0.82963   0.00000  Uiso   1.00
H80    H     0.86662   0.85716   0.48939   0.00000  Uiso   1.00
H81    H     0.82656   0.70060   0.02709   0.00000  Uiso   1.00
H82    H     0.98056   0.95533   0.96256   0.00000  Uiso   1.00
H83    H     0.83436   0.88906   0.24510   0.00000  Uiso   1.00
O84    O     0.77521   0.69967   0.19479   0.00000  Uiso   1.00
O85    O     0.97724   0.03386   0.11010   0.00000  Uiso   1.00
O86    O     0.78543   0.94693   0.16882   0.00000  Uiso   1.00
N87    N     0.77694   0.77965   0.13120   0.00000  Uiso   1.00
N88    N     0.92091   0.01780   0.07089   0.00000  Uiso   1.00
N89    N     0.78423   0.95586   0.40012   0.00000  Uiso   1.00
N90    N     0.81411   0.73107   0.04549   0.00000  Uiso   1.00
N91    N     0.95809   0.96921   0.98518   0.00000  Uiso   1.00
N92    N     0.82141   0.90728   0.31441   0.00000  Uiso   1.00
C93    C     0.17592   0.57797   0.87493   0.00000  Uiso   1.00
C94    C     0.17983   0.62908   0.92460   0.00000  Uiso   1.00
C95    C     0.20382   0.64500   0.01411   0.00000  Uiso   1.00
C96    C     0.20323   0.69310   0.04699   0.00000  Uiso   1.00
C97    C     0.21290   0.76774   0.13249   0.00000  Uiso   1.00
C98    C     0.14015   0.56345   0.90800   0.00000  Uiso   1.00
C99    C     0.13078   0.52418   0.98354   0.00000  Uiso   1.00
C100   C     0.09678   0.51703   0.00242   0.00000  Uiso   1.00
C101   C     0.04485   0.48976   0.06206   0.00000  Uiso   1.00
C102   C     0.17782   0.58053   0.72314   0.00000  Uiso   1.00
C103   C     0.20012   0.55560   0.64324   0.00000  Uiso   1.00
C104   C     0.19784   0.56282   0.50649   0.00000  Uiso   1.00
C105   C     0.20440   0.56206   0.27911   0.00000  Uiso   1.00
C106   C     0.13221   0.63511   0.77413   0.00000  Uiso   1.00
C107   C     0.15609   0.66012   0.86985   0.00000  Uiso   1.00
C108   C     0.15546   0.70821   0.90259   0.00000  Uiso   1.00
C109   C     0.17944   0.72419   0.99214   0.00000  Uiso   1.00
C110   C     0.11641   0.59449   0.85325   0.00000  Uiso   1.00
C111   C     0.08241   0.58739   0.87202   0.00000  Uiso   1.00
C112   C     0.07299   0.54812   0.94758   0.00000  Uiso   1.00
C113   C     0.15408   0.61156   0.66839   0.00000  Uiso   1.00
C114   C     0.15176   0.61882   0.53173   0.00000  Uiso   1.00
C115   C     0.17405   0.59391   0.45164   0.00000  Uiso   1.00
H116   H     0.19441   0.55381   0.91756   0.00000  Uiso   1.00
H117   H     0.22219   0.62097   0.05647   0.00000  Uiso   1.00
H118   H     0.14916   0.50017   0.02588   0.00000  Uiso   1.00
H119   H     0.21849   0.53159   0.68565   0.00000  Uiso   1.00
H120   H     0.24252   0.70911   0.18637   0.00000  Uiso   1.00
H121   H     0.08853   0.45439   0.12184   0.00000  Uiso   1.00
H122   H     0.23473   0.52064   0.40438   0.00000  Uiso   1.00
H123   H     0.11372   0.65927   0.73151   0.00000  Uiso   1.00
H124   H     0.13708   0.73222   0.86021   0.00000  Uiso   1.00
H125   H     0.06405   0.61141   0.82963   0.00000  Uiso   1.00
H126   H     0.13338   0.64284   0.48939   0.00000  Uiso   1.00
H127   H     0.17344   0.79940   0.02709   0.00000  Uiso   1.00
H128   H     0.01944   0.54467   0.96256   0.00000  Uiso   1.00
H129   H     0.16564   0.61094   0.24510   0.00000  Uiso   1.00
O130   O     0.22479   0.80033   0.19479   0.00000  Uiso   1.00
O131   O     0.02276   0.46614   0.11010   0.00000  Uiso   1.00
O132   O     0.21457   0.55307   0.16882   0.00000  Uiso   1.00
N133   N     0.22306   0.72035   0.13120   0.00000  Uiso   1.00
N134   N     0.07909   0.48220   0.07089   0.00000  Uiso   1.00
N135   N     0.21577   0.54414   0.40012   0.00000  Uiso   1.00
N136   N     0.18589   0.76893   0.04549   0.00000  Uiso   1.00
N137   N     0.04191   0.53079   0.98518   0.00000  Uiso   1.00
N138   N     0.17859   0.59272   0.31441   0.00000  Uiso   1.00
C139   C     0.67592   0.07797   0.37493   0.00000  Uiso   1.00
C140   C     0.67983   0.12908   0.42460   0.00000  Uiso   1.00
C141   C     0.70382   0.14500   0.51411   0.00000  Uiso   1.00
C142   C     0.70323   0.19310   0.54699   0.00000  Uiso   1.00
C143   C     0.71290   0.26774   0.63249   0.00000  Uiso   1.00
C144   C     0.64015   0.06345   0.40800   0.00000  Uiso   1.00
C145   C     0.63078   0.02418   0.48354   0.00000  Uiso   1.00
C146   C     0.59678   0.01703   0.50242   0.00000  Uiso   1.00
C147   C     0.54485   0.98976   0.56206   0.00000  Uiso   1.00
C148   C     0.67782   0.08053   0.22314   0.00000  Uiso   1.00
C149   C     0.70012   0.05560   0.14324   0.00000  Uiso   1.00
C150   C     0.69784   0.06282   0.00649   0.00000  Uiso   1.00
C151   C     0.70440   0.06206   0.77911   0.00000  Uiso   1.00
C152   C     0.63221   0.13511   0.27413   0.00000  Uiso   1.00
C153   C     0.65609   0.16012   0.36985   0.00000  Uiso   1.00
C154   C     0.65546   0.20821   0.40259   0.00000  Uiso   1.00
C155   C     0.67944   0.22419   0.49214   0.00000  Uiso   1.00
C156   C     0.61641   0.09449   0.35325   0.00000  Uiso   1.00
C157   C     0.58241   0.08739   0.37202   0.00000  Uiso   1.00
C158   C     0.57299   0.04812   0.44758   0.00000  Uiso   1.00
C159   C     0.65408   0.11156   0.16839   0.00000  Uiso   1.00
C160   C     0.65176   0.11882   0.03173   0.00000  Uiso   1.00
C161   C     0.67405   0.09391   0.95164   0.00000  Uiso   1.00
H162   H     0.69441   0.05381   0.41756   0.00000  Uiso   1.00
H163   H     0.72219   0.12097   0.55647   0.00000  Uiso   1.00
H164   H     0.64916   0.00017   0.52588   0.00000  Uiso   1.00
H165   H     0.71849   0.03159   0.18565   0.00000  Uiso   1.00
H166   H     0.74252   0.20911   0.68637   0.00000  Uiso   1.00
H167   H     0.58853   0.95439   0.62184   0.00000  Uiso   1.00
H168   H     0.73473   0.02064   0.90438   0.00000  Uiso   1.00
H169   H     0.61372   0.15927   0.23151   0.00000  Uiso   1.00
H170   H     0.63708   0.23222   0.36021   0.00000  Uiso   1.00
H171   H     0.56405   0.11141   0.32963   0.00000  Uiso   1.00
H172   H     0.63338   0.14284   0.98939   0.00000  Uiso   1.00
H173   H     0.67344   0.29940   0.52709   0.00000  Uiso   1.00
H174   H     0.51944   0.04467   0.46256   0.00000  Uiso   1.00
H175   H     0.66564   0.11094   0.74510   0.00000  Uiso   1.00
O176   O     0.72479   0.30033   0.69479   0.00000  Uiso   1.00
O177   O     0.52276   0.96614   0.61010   0.00000  Uiso   1.00
O178   O     0.71457   0.05307   0.66882   0.00000  Uiso   1.00
N179   N     0.72306   0.22035   0.63120   0.00000  Uiso   1.00
N180   N     0.57909   0.98220   0.57089   0.00000  Uiso   1.00
N181   N     0.71577   0.04414   0.90012   0.00000  Uiso   1.00
N182   N     0.68589   0.26893   0.54549   0.00000  Uiso   1.00
N183   N     0.54191   0.03079   0.48518   0.00000  Uiso   1.00
N184   N     0.67859   0.09272   0.81441   0.00000  Uiso   1.00
C185   C     0.67592   0.92203   0.12507   0.00000  Uiso   1.00
C186   C     0.67983   0.87092   0.07540   0.00000  Uiso   1.00
C187   C     0.70382   0.85500   0.98589   0.00000  Uiso   1.00
C188   C     0.70323   0.80690   0.95301   0.00000  Uiso   1.00
C189   C     0.71290   0.73226   0.86751   0.00000  Uiso   1.00
C190   C     0.64015   0.93655   0.09200   0.00000  Uiso   1.00
C191   C     0.63078   0.97582   0.01646   0.00000  Uiso   1.00
C192   C     0.59678   0.98297   0.99758   0.00000  Uiso   1.00
C193   C     0.54485   0.01024   0.93794   0.00000  Uiso   1.00
C194   C     0.67782   0.91947   0.27686   0.00000  Uiso   1.00
C195   C     0.70012   0.94440   0.35676   0.00000  Uiso   1.00
C196   C     0.69784   0.93718   0.49351   0.00000  Uiso   1.00
C197   C     0.70440   0.93794   0.72089   0.00000  Uiso   1.00
C198   C     0.63221   0.86489   0.22587   0.00000  Uiso   1.00
C199   C     0.65609   0.83988   0.13015   0.00000  Uiso   1.00
C200   C     0.65546   0.79179   0.09741   0.00000  Uiso   1.00
C201   C     0.67944   0.77581   0.00786   0.00000  Uiso   1.00
C202   C     0.61641   0.90551   0.14675   0.00000  Uiso   1.00
C203   C     0.58241   0.91261   0.12798   0.00000  Uiso   1.00
C204   C     0.57299   0.95188   0.05242   0.00000  Uiso   1.00
C205   C     0.65408   0.88844   0.33161   0.00000  Uiso   1.00
C206   C     0.65176   0.88118   0.46827   0.00000  Uiso   1.00
C207   C     0.67405   0.90609   0.54836   0.00000  Uiso   1.00
H208   H     0.69441   0.94619   0.08244   0.00000  Uiso   1.00
H209   H     0.72219   0.87903   0.94353   0.00000  Uiso   1.00
H210   H     0.64916   0.99983   0.97412   0.00000  Uiso   1.00
H211   H     0.71849   0.96841   0.31435   0.00000  Uiso   1.00
H212   H     0.74252   0.79089   0.81363   0.00000  Uiso   1.00
H213   H     0.58853   0.04561   0.87816   0.00000  Uiso   1.00
H214   H     0.73473   0.97936   0.59562   0.00000  Uiso   1.00
H215   H     0.61372   0.84073   0.26849   0.00000  Uiso   1.00
H216   H     0.63708   0.76778   0.13979   0.00000  Uiso   1.00
H217   H     0.56405   0.88859   0.17037   0.00000  Uiso   1.00
H218   H     0.63338   0.85716   0.51061   0.00000  Uiso   1.00
H219   H     0.67344   0.70060   0.97291   0.00000  Uiso   1.00
H220   H     0.51944   0.95533   0.03744   0.00000  Uiso   1.00
H221   H     0.66564   0.88906   0.75490   0.00000  Uiso   1.00
O222   O     0.72479   0.69967   0.80521   0.00000  Uiso   1.00
O223   O     0.52276   0.03386   0.88990   0.00000  Uiso   1.00
O224   O     0.71457   0.94693   0.83118   0.00000  Uiso   1.00
N225   N     0.72306   0.77965   0.86880   0.00000  Uiso   1.00
N226   N     0.57909   0.01780   0.92911   0.00000  Uiso   1.00
N227   N     0.71577   0.95586   0.59988   0.00000  Uiso   1.00
N228   N     0.68589   0.73107   0.95451   0.00000  Uiso   1.00
N229   N     0.54191   0.96921   0.01482   0.00000  Uiso   1.00
N230   N     0.67859   0.90728   0.68559   0.00000  Uiso   1.00
C231   C     0.17592   0.42203   0.62507   0.00000  Uiso   1.00
C232   C     0.17983   0.37092   0.57540   0.00000  Uiso   1.00
C233   C     0.20382   0.35500   0.48589   0.00000  Uiso   1.00
C234   C     0.20323   0.30690   0.45301   0.00000  Uiso   1.00
C235   C     0.21290   0.23226   0.36751   0.00000  Uiso   1.00
C236   C     0.14015   0.43655   0.59200   0.00000  Uiso   1.00
C237   C     0.13078   0.47582   0.51646   0.00000  Uiso   1.00
C238   C     0.09678   0.48297   0.49758   0.00000  Uiso   1.00
C239   C     0.04485   0.51024   0.43794   0.00000  Uiso   1.00
C240   C     0.17782   0.41947   0.77686   0.00000  Uiso   1.00
C241   C     0.20012   0.44440   0.85676   0.00000  Uiso   1.00
C242   C     0.19784   0.43718   0.99351   0.00000  Uiso   1.00
C243   C     0.20440   0.43794   0.22089   0.00000  Uiso   1.00
C244   C     0.13221   0.36489   0.72587   0.00000  Uiso   1.00
C245   C     0.15609   0.33988   0.63015   0.00000  Uiso   1.00
C246   C     0.15546   0.29179   0.59741   0.00000  Uiso   1.00
C247   C     0.17944   0.27581   0.50786   0.00000  Uiso   1.00
C248   C     0.11641   0.40551   0.64675   0.00000  Uiso   1.00
C249   C     0.08241   0.41261   0.62798   0.00000  Uiso   1.00
C250   C     0.07299   0.45188   0.55242   0.00000  Uiso   1.00
C251   C     0.15408   0.38844   0.83161   0.00000  Uiso   1.00
C252   C     0.15176   0.38118   0.96827   0.00000  Uiso   1.00
C253   C     0.17405   0.40609   0.04836   0.00000  Uiso   1.00
H254   H     0.19441   0.44619   0.58244   0.00000  Uiso   1.00
H255   H     0.22219   0.37903   0.44353   0.00000  Uiso   1.00
H256   H     0.14916   0.49983   0.47412   0.00000  Uiso   1.00
H257   H     0.21849   0.46841   0.81435   0.00000  Uiso   1.00
H258   H     0.24252   0.29089   0.31363   0.00000  Uiso   1.00
H259   H     0.08853   0.54561   0.37816   0.00000  Uiso   1.00
H260   H     0.23473   0.47936   0.09562   0.00000  Uiso   1.00
H261   H     0.11372   0.34073   0.76849   0.00000  Uiso   1.00
H262   H     0.13708   0.26778   0.63979   0.00000  Uiso   1.00
H263   H     0.06405   0.38859   0.67037   0.00000  Uiso   1.00
H264   H     0.13338   0.35716   0.01061   0.00000  Uiso   1.00
H265   H     0.17344   0.20060   0.47291   0.00000  Uiso   1.00
H266   H     0.01944   0.45533   0.53744   0.00000  Uiso   1.00
H267   H     0.16564   0.38906   0.25490   0.00000  Uiso   1.00
O268   O     0.22479   0.19967   0.30521   0.00000  Uiso   1.00
O269   O     0.02276   0.53386   0.38990   0.00000  Uiso   1.00
O270   O     0.21457   0.44693   0.33118   0.00000  Uiso   1.00
N271   N     0.22306   0.27965   0.36880   0.00000  Uiso   1.00
N272   N     0.07909   0.51780   0.42911   0.00000  Uiso   1.00
N273   N     0.21577   0.45586   0.09988   0.00000  Uiso   1.00
N274   N     0.18589   0.23107   0.45451   0.00000  Uiso   1.00
N275   N     0.04191   0.46921   0.51482   0.00000  Uiso   1.00
N276   N     0.17859   0.40728   0.18559   0.00000  Uiso   1.00
C277   C     0.82408   0.07797   0.62507   0.00000  Uiso   1.00
C278   C     0.82017   0.12908   0.57540   0.00000  Uiso   1.00
C279   C     0.79618   0.14500   0.48589   0.00000  Uiso   1.00
C280   C     0.79677   0.19310   0.45301   0.00000  Uiso   1.00
C281   C     0.78710   0.26774   0.36751   0.00000  Uiso   1.00
C282   C     0.85985   0.06345   0.59200   0.00000  Uiso   1.00
C283   C     0.86922   0.02418   0.51646   0.00000  Uiso   1.00
C284   C     0.90322   0.01703   0.49758   0.00000  Uiso   1.00
C285   C     0.95515   0.98976   0.43794   0.00000  Uiso   1.00
C286   C     0.82218   0.08053   0.77686   0.00000  Uiso   1.00
C287   C     0.79988   0.05560   0.85676   0.00000  Uiso   1.00
C288   C     0.80216   0.06282   0.99351   0.00000  Uiso   1.00
C289   C     0.79560   0.06206   0.22089   0.00000  Uiso   1.00
C290   C     0.86779   0.13511   0.72587   0.00000  Uiso   1.00
C291   C     0.84391   0.16012   0.63015   0.00000  Uiso   1.00
C292   C     0.84454   0.20821   0.59741   0.00000  Uiso   1.00
C293   C     0.82056   0.22419   0.50786   0.00000  Uiso   1.00
C294   C     0.88359   0.09449   0.64675   0.00000  Uiso   1.00
C295   C     0.91759   0.08739   0.62798   0.00000  Uiso   1.00
C296   C     0.92701   0.04812   0.55242   0.00000  Uiso   1.00
C297   C     0.84592   0.11156   0.83161   0.00000  Uiso   1.00
C298   C     0.84824   0.11882   0.96827   0.00000  Uiso   1.00
C299   C     0.82595   0.09391   0.04836   0.00000  Uiso   1.00
H300   H     0.80559   0.05381   0.58244   0.00000  Uiso   1.00
H301   H     0.77781   0.12097   0.44353   0.00000  Uiso   1.00
H302   H     0.85084   0.00017   0.47412   0.00000  Uiso   1.00
H303   H     0.78151   0.03159   0.81435   0.00000  Uiso   1.00
H304   H     0.75748   0.20911   0.31363   0.00000  Uiso   1.00
H305   H     0.91147   0.95439   0.37816   0.00000  Uiso   1.00
H306   H     0.76527   0.02064   0.09562   0.00000  Uiso   1.00
H307   H     0.88628   0.15927   0.76849   0.00000  Uiso   1.00
H308   H     0.86292   0.23222   0.63979   0.00000  Uiso   1.00
H309   H     0.93595   0.11141   0.67037   0.00000  Uiso   1.00
H310   H     0.86662   0.14284   0.01061   0.00000  Uiso   1.00
H311   H     0.82656   0.29940   0.47291   0.00000  Uiso   1.00
H312   H     0.98056   0.04467   0.53744   0.00000  Uiso   1.00
H313   H     0.83436   0.11094   0.25490   0.00000  Uiso   1.00
O314   O     0.77521   0.30033   0.30521   0.00000  Uiso   1.00
O315   O     0.97724   0.96614   0.38990   0.00000  Uiso   1.00
O316   O     0.78543   0.05307   0.33118   0.00000  Uiso   1.00
N317   N     0.77694   0.22035   0.36880   0.00000  Uiso   1.00
N318   N     0.92091   0.98220   0.42911   0.00000  Uiso   1.00
N319   N     0.78423   0.04414   0.09988   0.00000  Uiso   1.00
N320   N     0.81411   0.26893   0.45451   0.00000  Uiso   1.00
N321   N     0.95809   0.03079   0.51482   0.00000  Uiso   1.00
N322   N     0.82141   0.09272   0.18559   0.00000  Uiso   1.00
C323   C     0.32408   0.57797   0.12507   0.00000  Uiso   1.00
C324   C     0.32017   0.62908   0.07540   0.00000  Uiso   1.00
C325   C     0.29618   0.64500   0.98589   0.00000  Uiso   1.00
C326   C     0.29677   0.69310   0.95301   0.00000  Uiso   1.00
C327   C     0.28710   0.76774   0.86751   0.00000  Uiso   1.00
C328   C     0.35985   0.56345   0.09200   0.00000  Uiso   1.00
C329   C     0.36922   0.52418   0.01646   0.00000  Uiso   1.00
C330   C     0.40322   0.51703   0.99758   0.00000  Uiso   1.00
C331   C     0.45515   0.48976   0.93794   0.00000  Uiso   1.00
C332   C     0.32218   0.58053   0.27686   0.00000  Uiso   1.00
C333   C     0.29988   0.55560   0.35676   0.00000  Uiso   1.00
C334   C     0.30216   0.56282   0.49351   0.00000  Uiso   1.00
C335   C     0.29560   0.56206   0.72089   0.00000  Uiso   1.00
C336   C     0.36779   0.63511   0.22587   0.00000  Uiso   1.00
C337   C     0.34391   0.66012   0.13015   0.00000  Uiso   1.00
C338   C     0.34454   0.70821   0.09741   0.00000  Uiso   1.00
C339   C     0.32056   0.72419   0.00786   0.00000  Uiso   1.00
C340   C     0.38359   0.59449   0.14675   0.00000  Uiso   1.00
C341   C     0.41759   0.58739   0.12798   0.00000  Uiso   1.00
C342   C     0.42701   0.54812   0.05242   0.00000  Uiso   1.00
C343   C     0.34592   0.61156   0.33161   0.00000  Uiso   1.00
C344   C     0.34824   0.61882   0.46827   0.00000  Uiso   1.00
C345   C     0.32595   0.59391   0.54836   0.00000  Uiso   1.00
H346   H     0.30559   0.55381   0.08244   0.00000  Uiso   1.00
H347   H     0.27781   0.62097   0.94353   0.00000  Uiso   1.00
H348   H     0.35084   0.50017   0.97412   0.00000  Uiso   1.00
H349   H     0.28151   0.53159   0.31435   0.00000  Uiso   1.00
H350   H     0.25748   0.70911   0.81363   0.00000  Uiso   1.00
H351   H     0.41147   0.45439   0.87816   0.00000  Uiso   1.00
H352   H     0.26527   0.52064   0.59562   0.00000  Uiso   1.00
H353   H     0.38628   0.65927   0.26849   0.00000  Uiso   1.00
H354   H     0.36292   0.73222   0.13979   0.00000  Uiso   1.00
H355   H     0.43595   0.61141   0.17037   0.00000  Uiso   1.00
H356   H     0.36662   0.64284   0.51061   0.00000  Uiso   1.00
H357   H     0.32656   0.79940   0.97291   0.00000  Uiso   1.00
H358   H     0.48056   0.54467   0.03744   0.00000  Uiso   1.00
H359   H     0.33436   0.61094   0.75490   0.00000  Uiso   1.00
O360   O     0.27521   0.80033   0.80521   0.00000  Uiso   1.00
O361   O     0.47724   0.46614   0.88990   0.00000  Uiso   1.00
O362   O     0.28543   0.55307   0.83118   0.00000  Uiso   1.00
N363   N     0.27694   0.72035   0.86880   0.00000  Uiso   1.00
N364   N     0.42091   0.48220   0.92911   0.00000  Uiso   1.00
N365   N     0.28423   0.54414   0.59988   0.00000  Uiso   1.00
N366   N     0.31411   0.76893   0.95451   0.00000  Uiso   1.00
N367   N     0.45809   0.53079   0.01482   0.00000  Uiso   1.00
N368   N     0.32141   0.59272   0.68559   0.00000  Uiso   1.00
C369   C     0.67592   0.57797   0.62507   0.00000  Uiso   1.00
C370   C     0.67983   0.62908   0.57540   0.00000  Uiso   1.00
C371   C     0.70382   0.64500   0.48589   0.00000  Uiso   1.00
C372   C     0.70323   0.69310   0.45301   0.00000  Uiso   1.00
C373   C     0.71290   0.76774   0.36751   0.00000  Uiso   1.00
C374   C     0.64015   0.56345   0.59200   0.00000  Uiso   1.00
C375   C     0.63078   0.52418   0.51646   0.00000  Uiso   1.00
C376   C     0.59678   0.51703   0.49758   0.00000  Uiso   1.00
C377   C     0.54485   0.48976   0.43794   0.00000  Uiso   1.00
C378   C     0.67782   0.58053   0.77686   0.00000  Uiso   1.00
C379   C     0.70012   0.55560   0.85676   0.00000  Uiso   1.00
C380   C     0.69784   0.56282   0.99351   0.00000  Uiso   1.00
C381   C     0.70440   0.56206   0.22089   0.00000  Uiso   1.00
C382   C     0.63221   0.63511   0.72587   0.00000  Uiso   1.00
C383   C     0.65609   0.66012   0.63015   0.00000  Uiso   1.00
C384   C     0.65546   0.70821   0.59741   0.00000  Uiso   1.00
C385   C     0.67944   0.72419   0.50786   0.00000  Uiso   1.00
C386   C     0.61641   0.59449   0.64675   0.00000  Uiso   1.00
C387   C     0.58241   0.58739   0.62798   0.00000  Uiso   1.00
C388   C     0.57299   0.54812   0.55242   0.00000  Uiso   1.00
C389   C     0.65408   0.61156   0.83161   0.00000  Uiso   1.00
C390   C     0.65176   0.61882   0.96827   0.00000  Uiso   1.00
C391   C     0.67405   0.59391   0.04836   0.00000  Uiso   1.00
H392   H     0.69441   0.55381   0.58244   0.00000  Uiso   1.00
H393   H     0.72219   0.62097   0.44353   0.00000  Uiso   1.00
H394   H     0.64916   0.50017   0.47412   0.00000  Uiso   1.00
H395   H     0.71849   0.53159   0.81435   0.00000  Uiso   1.00
H396   H     0.74252   0.70911   0.31363   0.00000  Uiso   1.00
H397   H     0.58853   0.45439   0.37816   0.00000  Uiso   1.00
H398   H     0.73473   0.52064   0.09562   0.00000  Uiso   1.00
H399   H     0.61372   0.65927   0.76849   0.00000  Uiso   1.00
H400   H     0.63708   0.73222   0.63979   0.00000  Uiso   1.00
H401   H     0.56405   0.61141   0.67037   0.00000  Uiso   1.00
H402   H     0.63338   0.64284   0.01061   0.00000  Uiso   1.00
H403   H     0.67344   0.79940   0.47291   0.00000  Uiso   1.00
H404   H     0.51944   0.54467   0.53744   0.00000  Uiso   1.00
H405   H     0.66564   0.61094   0.25490   0.00000  Uiso   1.00
O406   O     0.72479   0.80033   0.30521   0.00000  Uiso   1.00
O407   O     0.52276   0.46614   0.38990   0.00000  Uiso   1.00
O408   O     0.71457   0.55307   0.33118   0.00000  Uiso   1.00
N409   N     0.72306   0.72035   0.36880   0.00000  Uiso   1.00
N410   N     0.57909   0.48220   0.42911   0.00000  Uiso   1.00
N411   N     0.71577   0.54414   0.09988   0.00000  Uiso   1.00
N412   N     0.68589   0.76893   0.45451   0.00000  Uiso   1.00
N413   N     0.54191   0.53079   0.51482   0.00000  Uiso   1.00
N414   N     0.67859   0.59272   0.18559   0.00000  Uiso   1.00
C415   C     0.17592   0.07797   0.12507   0.00000  Uiso   1.00
C416   C     0.17983   0.12908   0.07540   0.00000  Uiso   1.00
C417   C     0.20382   0.14500   0.98589   0.00000  Uiso   1.00
C418   C     0.20323   0.19310   0.95301   0.00000  Uiso   1.00
C419   C     0.21290   0.26774   0.86751   0.00000  Uiso   1.00
C420   C     0.14015   0.06345   0.09200   0.00000  Uiso   1.00
C421   C     0.13078   0.02418   0.01646   0.00000  Uiso   1.00
C422   C     0.09678   0.01703   0.99758   0.00000  Uiso   1.00
C423   C     0.04485   0.98976   0.93794   0.00000  Uiso   1.00
C424   C     0.17782   0.08053   0.27686   0.00000  Uiso   1.00
C425   C     0.20012   0.05560   0.35676   0.00000  Uiso   1.00
C426   C     0.19784   0.06282   0.49351   0.00000  Uiso   1.00
C427   C     0.20440   0.06206   0.72089   0.00000  Uiso   1.00
C428   C     0.13221   0.13511   0.22587   0.00000  Uiso   1.00
C429   C     0.15609   0.16012   0.13015   0.00000  Uiso   1.00
C430   C     0.15546   0.20821   0.09741   0.00000  Uiso   1.00
C431   C     0.17944   0.22419   0.00786   0.00000  Uiso   1.00
C432   C     0.11641   0.09449   0.14675   0.00000  Uiso   1.00
C433   C     0.08241   0.08739   0.12798   0.00000  Uiso   1.00
C434   C     0.07299   0.04812   0.05242   0.00000  Uiso   1.00
C435   C     0.15408   0.11156   0.33161   0.00000  Uiso   1.00
C436   C     0.15176   0.11882   0.46827   0.00000  Uiso   1.00
C437   C     0.17405   0.09391   0.54836   0.00000  Uiso   1.00
H438   H     0.19441   0.05381   0.08244   0.00000  Uiso   1.00
H439   H     0.22219   0.12097   0.94353   0.00000  Uiso   1.00
H440   H     0.14916   0.00017   0.97412   0.00000  Uiso   1.00
H441   H     0.21849   0.03159   0.31435   0.00000  Uiso   1.00
H442   H     0.24252   0.20911   0.81363   0.00000  Uiso   1.00
H443   H     0.08853   0.95439   0.87816   0.00000  Uiso   1.00
H444   H     0.23473   0.02064   0.59562   0.00000  Uiso   1.00
H445   H     0.11372   0.15927   0.26849   0.00000  Uiso   1.00
H446   H     0.13708   0.23222   0.13979   0.00000  Uiso   1.00
H447   H     0.06405   0.11141   0.17037   0.00000  Uiso   1.00
H448   H     0.13338   0.14284   0.51061   0.00000  Uiso   1.00
H449   H     0.17344   0.29940   0.97291   0.00000  Uiso   1.00
H450   H     0.01944   0.04467   0.03744   0.00000  Uiso   1.00
H451   H     0.16564   0.11094   0.75490   0.00000  Uiso   1.00
O452   O     0.22479   0.30033   0.80521   0.00000  Uiso   1.00
O453   O     0.02276   0.96614   0.88990   0.00000  Uiso   1.00
O454   O     0.21457   0.05307   0.83118   0.00000  Uiso   1.00
N455   N     0.22306   0.22035   0.86880   0.00000  Uiso   1.00
N456   N     0.07909   0.98220   0.92911   0.00000  Uiso   1.00
N457   N     0.21577   0.04414   0.59988   0.00000  Uiso   1.00
N458   N     0.18589   0.26893   0.95451   0.00000  Uiso   1.00
N459   N     0.04191   0.03079   0.01482   0.00000  Uiso   1.00
N460   N     0.17859   0.09272   0.68559   0.00000  Uiso   1.00
C461   C     0.82408   0.42203   0.12507   0.00000  Uiso   1.00
C462   C     0.82017   0.37092   0.07540   0.00000  Uiso   1.00
C463   C     0.79618   0.35500   0.98589   0.00000  Uiso   1.00
C464   C     0.79677   0.30690   0.95301   0.00000  Uiso   1.00
C465   C     0.78710   0.23226   0.86751   0.00000  Uiso   1.00
C466   C     0.85985   0.43655   0.09200   0.00000  Uiso   1.00
C467   C     0.86922   0.47582   0.01646   0.00000  Uiso   1.00
C468   C     0.90322   0.48297   0.99758   0.00000  Uiso   1.00
C469   C     0.95515   0.51024   0.93794   0.00000  Uiso   1.00
C470   C     0.82218   0.41947   0.27686   0.00000  Uiso   1.00
C471   C     0.79988   0.44440   0.35676   0.00000  Uiso   1.00
C472   C     0.80216   0.43718   0.49351   0.00000  Uiso   1.00
C473   C     0.79560   0.43794   0.72089   0.00000  Uiso   1.00
C474   C     0.86779   0.36489   0.22587   0.00000  Uiso   1.00
C475   C     0.84391   0.33988   0.13015   0.00000  Uiso   1.00
C476   C     0.84454   0.29179   0.09741   0.00000  Uiso   1.00
C477   C     0.82056   0.27581   0.00786   0.00000  Uiso   1.00
C478   C     0.88359   0.40551   0.14675   0.00000  Uiso   1.00
C479   C     0.91759   0.41261   0.12798   0.00000  Uiso   1.00
C480   C     0.92701   0.45188   0.05242   0.00000  Uiso   1.00
C481   C     0.84592   0.38844   0.33161   0.00000  Uiso   1.00
C482   C     0.84824   0.38118   0.46827   0.00000  Uiso   1.00
C483   C     0.82595   0.40609   0.54836   0.00000  Uiso   1.00
H484   H     0.80559   0.44619   0.08244   0.00000  Uiso   1.00
H485   H     0.77781   0.37903   0.94353   0.00000  Uiso   1.00
H486   H     0.85084   0.49983   0.97412   0.00000  Uiso   1.00
H487   H     0.78151   0.46841   0.31435   0.00000  Uiso   1.00
H488   H     0.75748   0.29089   0.81363   0.00000  Uiso   1.00
H489   H     0.91147   0.54561   0.87816   0.00000  Uiso   1.00
H490   H     0.76527   0.47936   0.59562   0.00000  Uiso   1.00
H491   H     0.88628   0.34073   0.26849   0.00000  Uiso   1.00
H492   H     0.86292   0.26778   0.13979   0.00000  Uiso   1.00
H493   H     0.93595   0.38859   0.17037   0.00000  Uiso   1.00
H494   H     0.86662   0.35716   0.51061   0.00000  Uiso   1.00
H495   H     0.82656   0.20060   0.97291   0.00000  Uiso   1.00
H496   H     0.98056   0.45533   0.03744   0.00000  Uiso   1.00
H497   H     0.83436   0.38906   0.75490   0.00000  Uiso   1.00
O498   O     0.77521   0.19967   0.80521   0.00000  Uiso   1.00
O499   O     0.97724   0.53386   0.88990   0.00000  Uiso   1.00
O500   O     0.78543   0.44693   0.83118   0.00000  Uiso   1.00
N501   N     0.77694   0.27965   0.86880   0.00000  Uiso   1.00
N502   N     0.92091   0.51780   0.92911   0.00000  Uiso   1.00
N503   N     0.78423   0.45586   0.59988   0.00000  Uiso   1.00
N504   N     0.81411   0.23107   0.95451   0.00000  Uiso   1.00
N505   N     0.95809   0.46921   0.01482   0.00000  Uiso   1.00
N506   N     0.82141   0.40728   0.68559   0.00000  Uiso   1.00
C507   C     0.32408   0.92203   0.62507   0.00000  Uiso   1.00
C508   C     0.32017   0.87092   0.57540   0.00000  Uiso   1.00
C509   C     0.29618   0.85500   0.48589   0.00000  Uiso   1.00
C510   C     0.29677   0.80690   0.45301   0.00000  Uiso   1.00
C511   C     0.28710   0.73226   0.36751   0.00000  Uiso   1.00
C512   C     0.35985   0.93655   0.59200   0.00000  Uiso   1.00
C513   C     0.36922   0.97582   0.51646   0.00000  Uiso   1.00
C514   C     0.40322   0.98297   0.49758   0.00000  Uiso   1.00
C515   C     0.45515   0.01024   0.43794   0.00000  Uiso   1.00
C516   C     0.32218   0.91947   0.77686   0.00000  Uiso   1.00
C517   C     0.29988   0.94440   0.85676   0.00000  Uiso   1.00
C518   C     0.30216   0.93718   0.99351   0.00000  Uiso   1.00
C519   C     0.29560   0.93794   0.22089   0.00000  Uiso   1.00
C520   C     0.36779   0.86489   0.72587   0.00000  Uiso   1.00
C521   C     0.34391   0.83988   0.63015   0.00000  Uiso   1.00
C522   C     0.34454   0.79179   0.59741   0.00000  Uiso   1.00
C523   C     0.32056   0.77581   0.50786   0.00000  Uiso   1.00
C524   C     0.38359   0.90551   0.64675   0.00000  Uiso   1.00
C525   C     0.41759   0.91261   0.62798   0.00000  Uiso   1.00
C526   C     0.42701   0.95188   0.55242   0.00000  Uiso   1.00
C527   C     0.34592   0.88844   0.83161   0.00000  Uiso   1.00
C528   C     0.34824   0.88118   0.96827   0.00000  Uiso   1.00
C529   C     0.32595   0.90609   0.04836   0.00000  Uiso   1.00
H530   H     0.30559   0.94619   0.58244   0.00000  Uiso   1.00
H531   H     0.27781   0.87903   0.44353   0.00000  Uiso   1.00
H532   H     0.35084   0.99983   0.47412   0.00000  Uiso   1.00
H533   H     0.28151   0.96841   0.81435   0.00000  Uiso   1.00
H534   H     0.25748   0.79089   0.31363   0.00000  Uiso   1.00
H535   H     0.41147   0.04561   0.37816   0.00000  Uiso   1.00
H536   H     0.26527   0.97936   0.09562   0.00000  Uiso   1.00
H537   H     0.38628   0.84073   0.76849   0.00000  Uiso   1.00
H538   H     0.36292   0.76778   0.63979   0.00000  Uiso   1.00
H539   H     0.43595   0.88859   0.67037   0.00000  Uiso   1.00
H540   H     0.36662   0.85716   0.01061   0.00000  Uiso   1.00
H541   H     0.32656   0.70060   0.47291   0.00000  Uiso   1.00
H542   H     0.48056   0.95533   0.53744   0.00000  Uiso   1.00
H543   H     0.33436   0.88906   0.25490   0.00000  Uiso   1.00
O544   O     0.27521   0.69967   0.30521   0.00000  Uiso   1.00
O545   O     0.47724   0.03386   0.38990   0.00000  Uiso   1.00
O546   O     0.28543   0.94693   0.33118   0.00000  Uiso   1.00
N547   N     0.27694   0.77965   0.36880   0.00000  Uiso   1.00
N548   N     0.42091   0.01780   0.42911   0.00000  Uiso   1.00
N549   N     0.28423   0.95586   0.09988   0.00000  Uiso   1.00
N550   N     0.31411   0.73107   0.45451   0.00000  Uiso   1.00
N551   N     0.45809   0.96921   0.51482   0.00000  Uiso   1.00
N552   N     0.32141   0.90728   0.18559   0.00000  Uiso   1.00
C553   C     0.32408   0.07797   0.87493   0.00000  Uiso   1.00
C554   C     0.32017   0.12908   0.92460   0.00000  Uiso   1.00
C555   C     0.29618   0.14500   0.01411   0.00000  Uiso   1.00
C556   C     0.29677   0.19310   0.04699   0.00000  Uiso   1.00
C557   C     0.28710   0.26774   0.13249   0.00000  Uiso   1.00
C558   C     0.35985   0.06345   0.90800   0.00000  Uiso   1.00
C559   C     0.36922   0.02418   0.98354   0.00000  Uiso   1.00
C560   C     0.40322   0.01703   0.00242   0.00000  Uiso   1.00
C561   C     0.45515   0.98976   0.06206   0.00000  Uiso   1.00
C562   C     0.32218   0.08053   0.72314   0.00000  Uiso   1.00
C563   C     0.29988   0.05560   0.64324   0.00000  Uiso   1.00
C564   C     0.30216   0.06282   0.50649   0.00000  Uiso   1.00
C565   C     0.29560   0.06206   0.27911   0.00000  Uiso   1.00
C566   C     0.36779   0.13511   0.77413   0.00000  Uiso   1.00
C567   C     0.34391   0.16012   0.86985   0.00000  Uiso   1.00
C568   C     0.34454   0.20821   0.90259   0.00000  Uiso   1.00
C569   C     0.32056   0.22419   0.99214   0.00000  Uiso   1.00
C570   C     0.38359   0.09449   0.85325   0.00000  Uiso   1.00
C571   C     0.41759   0.08739   0.87202   0.00000  Uiso   1.00
C572   C     0.42701   0.04812   0.94758   0.00000  Uiso   1.00
C573   C     0.34592   0.11156   0.66839   0.00000  Uiso   1.00
C574   C     0.34824   0.11882   0.53173   0.00000  Uiso   1.00
C575   C     0.32595   0.09391   0.45164   0.00000  Uiso   1.00
H576   H     0.30559   0.05381   0.91756   0.00000  Uiso   1.00
H577   H     0.27781   0.12097   0.05647   0.00000  Uiso   1.00
H578   H     0.35084   0.00017   0.02588   0.00000  Uiso   1.00
H579   H     0.28151   0.03159   0.68565   0.00000  Uiso   1.00
H580   H     0.25748   0.20911   0.18637   0.00000  Uiso   1.00
H581   H     0.41147   0.95439   0.12184   0.00000  Uiso   1.00
H582   H     0.26527   0.02064   0.40438   0.00000  Uiso   1.00
H583   H     0.38628   0.15927   0.73151   0.00000  Uiso   1.00
H584   H     0.36292   0.23222   0.86021   0.00000  Uiso   1.00
H585   H     0.43595   0.11141   0.82963   0.00000  Uiso   1.00
H586   H     0.36662   0.14284   0.48939   0.00000  Uiso   1.00
H587   H     0.32656   0.29940   0.02709   0.00000  Uiso   1.00
H588   H     0.48056   0.04467   0.96256   0.00000  Uiso   1.00
H589   H     0.33436   0.11094   0.24510   0.00000  Uiso   1.00
O590   O     0.27521   0.30033   0.19479   0.00000  Uiso   1.00
O591   O     0.47724   0.96614   0.11010   0.00000  Uiso   1.00
O592   O     0.28543   0.05307   0.16882   0.00000  Uiso   1.00
N593   N     0.27694   0.22035   0.13120   0.00000  Uiso   1.00
N594   N     0.42091   0.98220   0.07089   0.00000  Uiso   1.00
N595   N     0.28423   0.04414   0.40012   0.00000  Uiso   1.00
N596   N     0.31411   0.26893   0.04549   0.00000  Uiso   1.00
N597   N     0.45809   0.03079   0.98518   0.00000  Uiso   1.00
N598   N     0.32141   0.09272   0.31441   0.00000  Uiso   1.00
C599   C     0.82408   0.57797   0.37493   0.00000  Uiso   1.00
C600   C     0.82017   0.62908   0.42460   0.00000  Uiso   1.00
C601   C     0.79618   0.64500   0.51411   0.00000  Uiso   1.00
C602   C     0.79677   0.69310   0.54699   0.00000  Uiso   1.00
C603   C     0.78710   0.76774   0.63249   0.00000  Uiso   1.00
C604   C     0.85985   0.56345   0.40800   0.00000  Uiso   1.00
C605   C     0.86922   0.52418   0.48354   0.00000  Uiso   1.00
C606   C     0.90322   0.51703   0.50242   0.00000  Uiso   1.00
C607   C     0.95515   0.48976   0.56206   0.00000  Uiso   1.00
C608   C     0.82218   0.58053   0.22314   0.00000  Uiso   1.00
C609   C     0.79988   0.55560   0.14324   0.00000  Uiso   1.00
C610   C     0.80216   0.56282   0.00649   0.00000  Uiso   1.00
C611   C     0.79560   0.56206   0.77911   0.00000  Uiso   1.00
C612   C     0.86779   0.63511   0.27413   0.00000  Uiso   1.00
C613   C     0.84391   0.66012   0.36985   0.00000  Uiso   1.00
C614   C     0.84454   0.70821   0.40259   0.00000  Uiso   1.00
C615   C     0.82056   0.72419   0.49214   0.00000  Uiso   1.00
C616   C     0.88359   0.59449   0.35325   0.00000  Uiso   1.00
C617   C     0.91759   0.58739   0.37202   0.00000  Uiso   1.00
C618   C     0.92701   0.54812   0.44758   0.00000  Uiso   1.00
C619   C     0.84592   0.61156   0.16839   0.00000  Uiso   1.00
C620   C     0.84824   0.61882   0.03173   0.00000  Uiso   1.00
C621   C     0.82595   0.59391   0.95164   0.00000  Uiso   1.00
H622   H     0.80559   0.55381   0.41756   0.00000  Uiso   1.00
H623   H     0.77781   0.62097   0.55647   0.00000  Uiso   1.00
H624   H     0.85084   0.50017   0.52588   0.00000  Uiso   1.00
H625   H     0.78151   0.53159   0.18565   0.00000  Uiso   1.00
H626   H     0.75748   0.70911   0.68637   0.00000  Uiso   1.00
H627   H     0.91147   0.45439   0.62184   0.00000  Uiso   1.00
H628   H     0.76527   0.52064   0.90438   0.00000  Uiso   1.00
H629   H     0.88628   0.65927   0.23151   0.00000  Uiso   1.00
H630   H     0.86292   0.73222   0.36021   0.00000  Uiso   1.00
H631   H     0.93595   0.61141   0.32963   0.00000  Uiso   1.00
H632   H     0.86662   0.64284   0.98939   0.00000  Uiso   1.00
H633   H     0.82656   0.79940   0.52709   0.00000  Uiso   1.00
H634   H     0.98056   0.54467   0.46256   0.00000  Uiso   1.00
H635   H     0.83436   0.61094   0.74510   0.00000  Uiso   1.00
O636   O     0.77521   0.80033   0.69479   0.00000  Uiso   1.00
O637   O     0.97724   0.46614   0.61010   0.00000  Uiso   1.00
O638   O     0.78543   0.55307   0.66882   0.00000  Uiso   1.00
N639   N     0.77694   0.72035   0.63120   0.00000  Uiso   1.00
N640   N     0.92091   0.48220   0.57089   0.00000  Uiso   1.00
N641   N     0.78423   0.54414   0.90012   0.00000  Uiso   1.00
N642   N     0.81411   0.76893   0.54549   0.00000  Uiso   1.00
N643   N     0.95809   0.53079   0.48518   0.00000  Uiso   1.00
N644   N     0.82141   0.59272   0.81441   0.00000  Uiso   1.00
C645   C     0.17592   0.92203   0.37493   0.00000  Uiso   1.00
C646   C     0.17983   0.87092   0.42460   0.00000  Uiso   1.00
C647   C     0.20382   0.85500   0.51411   0.00000  Uiso   1.00
C648   C     0.20323   0.80690   0.54699   0.00000  Uiso   1.00
C649   C     0.21290   0.73226   0.63249   0.00000  Uiso   1.00
C650   C     0.14015   0.93655   0.40800   0.00000  Uiso   1.00
C651   C     0.13078   0.97582   0.48354   0.00000  Uiso   1.00
C652   C     0.09678   0.98297   0.50242   0.00000  Uiso   1.00
C653   C     0.04485   0.01024   0.56206   0.00000  Uiso   1.00
C654   C     0.17782   0.91947   0.22314   0.00000  Uiso   1.00
C655   C     0.20012   0.94440   0.14324   0.00000  Uiso   1.00
C656   C     0.19784   0.93718   0.00649   0.00000  Uiso   1.00
C657   C     0.20440   0.93794   0.77911   0.00000  Uiso   1.00
C658   C     0.13221   0.86489   0.27413   0.00000  Uiso   1.00
C659   C     0.15609   0.83988   0.36985   0.00000  Uiso   1.00
C660   C     0.15546   0.79179   0.40259   0.00000  Uiso   1.00
C661   C     0.17944   0.77581   0.49214   0.00000  Uiso   1.00
C662   C     0.11641   0.90551   0.35325   0.00000  Uiso   1.00
C663   C     0.08241   0.91261   0.37202   0.00000  Uiso   1.00
C664   C     0.07299   0.95188   0.44758   0.00000  Uiso   1.00
C665   C     0.15408   0.88844   0.16839   0.00000  Uiso   1.00
C666   C     0.15176   0.88118   0.03173   0.00000  Uiso   1.00
C667   C     0.17405   0.90609   0.95164   0.00000  Uiso   1.00
H668   H     0.19441   0.94619   0.41756   0.00000  Uiso   1.00
H669   H     0.22219   0.87903   0.55647   0.00000  Uiso   1.00
H670   H     0.14916   0.99983   0.52588   0.00000  Uiso   1.00
H671   H     0.21849   0.96841   0.18565   0.00000  Uiso   1.00
H672   H     0.24252   0.79089   0.68637   0.00000  Uiso   1.00
H673   H     0.08853   0.04561   0.62184   0.00000  Uiso   1.00
H674   H     0.23473   0.97936   0.90438   0.00000  Uiso   1.00
H675   H     0.11372   0.84073   0.23151   0.00000  Uiso   1.00
H676   H     0.13708   0.76778   0.36021   0.00000  Uiso   1.00
H677   H     0.06405   0.88859   0.32963   0.00000  Uiso   1.00
H678   H     0.13338   0.85716   0.98939   0.00000  Uiso   1.00
H679   H     0.17344   0.70060   0.52709   0.00000  Uiso   1.00
H680   H     0.01944   0.95533   0.46256   0.00000  Uiso   1.00
H681   H     0.16564   0.88906   0.74510   0.00000  Uiso   1.00
O682   O     0.22479   0.69967   0.69479   0.00000  Uiso   1.00
O683   O     0.02276   0.03386   0.61010   0.00000  Uiso   1.00
O684   O     0.21457   0.94693   0.66882   0.00000  Uiso   1.00
N685   N     0.22306   0.77965   0.63120   0.00000  Uiso   1.00
N686   N     0.07909   0.01780   0.57089   0.00000  Uiso   1.00
N687   N     0.21577   0.95586   0.90012   0.00000  Uiso   1.00
N688   N     0.18589   0.73107   0.54549   0.00000  Uiso   1.00
N689   N     0.04191   0.96921   0.48518   0.00000  Uiso   1.00
N690   N     0.17859   0.90728   0.81441   0.00000  Uiso   1.00
C691   C     0.67592   0.42203   0.87493   0.00000  Uiso   1.00
C692   C     0.67983   0.37092   0.92460   0.00000  Uiso   1.00
C693   C     0.70382   0.35500   0.01411   0.00000  Uiso   1.00
C694   C     0.70323   0.30690   0.04699   0.00000  Uiso   1.00
C695   C     0.71290   0.23226   0.13249   0.00000  Uiso   1.00
C696   C     0.64015   0.43655   0.90800   0.00000  Uiso   1.00
C697   C     0.63078   0.47582   0.98354   0.00000  Uiso   1.00
C698   C     0.59678   0.48297   0.00242   0.00000  Uiso   1.00
C699   C     0.54485   0.51024   0.06206   0.00000  Uiso   1.00
C700   C     0.67782   0.41947   0.72314   0.00000  Uiso   1.00
C701   C     0.70012   0.44440   0.64324   0.00000  Uiso   1.00
C702   C     0.69784   0.43718   0.50649   0.00000  Uiso   1.00
C703   C     0.70440   0.43794   0.27911   0.00000  Uiso   1.00
C704   C     0.63221   0.36489   0.77413   0.00000  Uiso   1.00
C705   C     0.65609   0.33988   0.86985   0.00000  Uiso   1.00
C706   C     0.65546   0.29179   0.90259   0.00000  Uiso   1.00
C707   C     0.67944   0.27581   0.99214   0.00000  Uiso   1.00
C708   C     0.61641   0.40551   0.85325   0.00000  Uiso   1.00
C709   C     0.58241   0.41261   0.87202   0.00000  Uiso   1.00
C710   C     0.57299   0.45188   0.94758   0.00000  Uiso   1.00
C711   C     0.65408   0.38844   0.66839   0.00000  Uiso   1.00
C712   C     0.65176   0.38118   0.53173   0.00000  Uiso   1.00
C713   C     0.67405   0.40609   0.45164   0.00000  Uiso   1.00
H714   H     0.69441   0.44619   0.91756   0.00000  Uiso   1.00
H715   H     0.72219   0.37903   0.05647   0.00000  Uiso   1.00
H716   H     0.64916   0.49983   0.02588   0.00000  Uiso   1.00
H717   H     0.71849   0.46841   0.68565   0.00000  Uiso   1.00
H718   H     0.74252   0.29089   0.18637   0.00000  Uiso   1.00
H719   H     0.58853   0.54561   0.12184   0.00000  Uiso   1.00
H720   H     0.73473   0.47936   0.40438   0.00000  Uiso   1.00
H721   H     0.61372   0.34073   0.73151   0.00000  Uiso   1.00
H722   H     0.63708   0.26778   0.86021   0.00000  Uiso   1.00
H723   H     0.56405   0.38859   0.82963   0.00000  Uiso   1.00
H724   H     0.63338   0.35716   0.48939   0.00000  Uiso   1.00
H725   H     0.67344   0.20060   0.02709   0.00000  Uiso   1.00
H726   H     0.51944   0.45533   0.96256   0.00000  Uiso   1.00
H727   H     0.66564   0.38906   0.24510   0.00000  Uiso   1.00
O728   O     0.72479   0.19967   0.19479   0.00000  Uiso   1.00
O729   O     0.52276   0.53386   0.11010   0.00000  Uiso   1.00
O730   O     0.71457   0.44693   0.16882   0.00000  Uiso   1.00
N731   N     0.72306   0.27965   0.13120   0.00000  Uiso   1.00
N732   N     0.57909   0.51780   0.07089   0.00000  Uiso   1.00
N733   N     0.71577   0.45586   0.40012   0.00000  Uiso   1.00
N734   N     0.68589   0.23107   0.04549   0.00000  Uiso   1.00
N735   N     0.54191   0.46921   0.98518   0.00000  Uiso   1.00
N736   N     0.67859   0.40728   0.31441   0.00000  Uiso   1.00
