data_job_05274
_audit_creation_date              2018-12-19
_audit_creation_method            'Materials Studio'
_symmetry_space_group_name_H-M    'P1'
_symmetry_Int_Tables_number       1
_symmetry_cell_setting            triclinic
loop_
_symmetry_equiv_pos_as_xyz
  x,y,z
_cell_length_a                    40.2069
_cell_length_b                    9.1638
_cell_length_c                    27.2385
_cell_angle_alpha                 90.0000
_cell_angle_beta                  90.0000
_cell_angle_gamma                 90.0000
loop_
_atom_site_label
_atom_site_type_symbol
_atom_site_fract_x
_atom_site_fract_y
_atom_site_fract_z
_atom_site_U_iso_or_equiv
_atom_site_adp_type
_atom_site_occupancy
C1     C     0.68803   0.59028   0.44025   0.00000  Uiso   1.00
C2     C     0.69044   0.75333   0.42965   0.00000  Uiso   1.00
C3     C     0.70219   0.81548   0.38654   0.00000  Uiso   1.00
C4     C     0.70240   0.96679   0.38402   0.00000  Uiso   1.00
C5     C     0.70786   0.20690   0.36160   0.00000  Uiso   1.00
C6     C     0.70784   0.56472   0.48721   0.00000  Uiso   1.00
C7     C     0.73421   0.46827   0.49251   0.00000  Uiso   1.00
C8     C     0.74907   0.46081   0.53845   0.00000  Uiso   1.00
C9     C     0.78152   0.40801   0.60541   0.00000  Uiso   1.00
C10    C     0.65176   0.56122   0.45337   0.00000  Uiso   1.00
C11    C     0.63098   0.46180   0.43022   0.00000  Uiso   1.00
C12    C     0.59862   0.45136   0.44768   0.00000  Uiso   1.00
C13    C     0.54400   0.39313   0.46209   0.00000  Uiso   1.00
C14    C     0.66753   0.74851   0.51244   0.00000  Uiso   1.00
C15    C     0.67931   0.83927   0.46886   0.00000  Uiso   1.00
C16    C     0.67950   0.99054   0.46640   0.00000  Uiso   1.00
C17    C     0.69124   0.05289   0.42330   0.00000  Uiso   1.00
C18    C     0.69671   0.65066   0.52642   0.00000  Uiso   1.00
C19    C     0.71153   0.64333   0.57237   0.00000  Uiso   1.00
C20    C     0.73791   0.54690   0.57773   0.00000  Uiso   1.00
C21    C     0.64062   0.64717   0.49258   0.00000  Uiso   1.00
C22    C     0.60829   0.63687   0.51008   0.00000  Uiso   1.00
C23    C     0.58746   0.53746   0.48696   0.00000  Uiso   1.00
H24    H     0.69670   0.52337   0.40973   0.00000  Uiso   1.00
H25    H     0.71080   0.74893   0.35621   0.00000  Uiso   1.00
H26    H     0.74282   0.40177   0.46216   0.00000  Uiso   1.00
H27    H     0.63960   0.39531   0.39988   0.00000  Uiso   1.00
H28    H     0.72154   0.03690   0.31416   0.00000  Uiso   1.00
H29    H     0.78904   0.30486   0.53758   0.00000  Uiso   1.00
H30    H     0.57139   0.29123   0.40625   0.00000  Uiso   1.00
H31    H     0.65886   0.81542   0.54296   0.00000  Uiso   1.00
H32    H     0.67088   0.05702   0.49675   0.00000  Uiso   1.00
H33    H     0.70290   0.70985   0.60270   0.00000  Uiso   1.00
H34    H     0.59968   0.70339   0.54042   0.00000  Uiso   1.00
H35    H     0.68914   0.28696   0.42823   0.00000  Uiso   1.00
H36    H     0.75664   0.55490   0.65165   0.00000  Uiso   1.00
H37    H     0.53899   0.54129   0.52032   0.00000  Uiso   1.00
O38    O     0.71395   0.31559   0.33840   0.00000  Uiso   1.00
O39    O     0.80250   0.35515   0.63151   0.00000  Uiso   1.00
O40    O     0.51694   0.33729   0.45921   0.00000  Uiso   1.00
N41    N     0.71226   0.06260   0.34735   0.00000  Uiso   1.00
N42    N     0.77537   0.37820   0.55622   0.00000  Uiso   1.00
N43    N     0.57189   0.36543   0.43345   0.00000  Uiso   1.00
N44    N     0.69483   0.19715   0.40873   0.00000  Uiso   1.00
N45    N     0.75794   0.51275   0.61760   0.00000  Uiso   1.00
N46    N     0.55445   0.49998   0.49483   0.00000  Uiso   1.00
C47    C     0.68803   0.09028   0.94025   0.00000  Uiso   1.00
C48    C     0.69044   0.25333   0.92965   0.00000  Uiso   1.00
C49    C     0.70219   0.31548   0.88654   0.00000  Uiso   1.00
C50    C     0.70240   0.46679   0.88402   0.00000  Uiso   1.00
C51    C     0.70786   0.70690   0.86160   0.00000  Uiso   1.00
C52    C     0.70784   0.06472   0.98721   0.00000  Uiso   1.00
C53    C     0.73421   0.96827   0.99251   0.00000  Uiso   1.00
C54    C     0.74907   0.96081   0.03845   0.00000  Uiso   1.00
C55    C     0.78152   0.90801   0.10541   0.00000  Uiso   1.00
C56    C     0.65176   0.06122   0.95337   0.00000  Uiso   1.00
C57    C     0.63098   0.96180   0.93022   0.00000  Uiso   1.00
C58    C     0.59862   0.95136   0.94768   0.00000  Uiso   1.00
C59    C     0.54400   0.89313   0.96209   0.00000  Uiso   1.00
C60    C     0.66753   0.24851   0.01244   0.00000  Uiso   1.00
C61    C     0.67931   0.33927   0.96886   0.00000  Uiso   1.00
C62    C     0.67950   0.49054   0.96640   0.00000  Uiso   1.00
C63    C     0.69124   0.55289   0.92330   0.00000  Uiso   1.00
C64    C     0.69671   0.15066   0.02642   0.00000  Uiso   1.00
C65    C     0.71153   0.14333   0.07237   0.00000  Uiso   1.00
C66    C     0.73791   0.04690   0.07773   0.00000  Uiso   1.00
C67    C     0.64062   0.14717   0.99258   0.00000  Uiso   1.00
C68    C     0.60829   0.13687   0.01008   0.00000  Uiso   1.00
C69    C     0.58746   0.03746   0.98696   0.00000  Uiso   1.00
H70    H     0.69670   0.02337   0.90973   0.00000  Uiso   1.00
H71    H     0.71080   0.24893   0.85621   0.00000  Uiso   1.00
H72    H     0.74282   0.90177   0.96216   0.00000  Uiso   1.00
H73    H     0.63960   0.89531   0.89988   0.00000  Uiso   1.00
H74    H     0.72154   0.53690   0.81416   0.00000  Uiso   1.00
H75    H     0.78904   0.80486   0.03758   0.00000  Uiso   1.00
H76    H     0.57139   0.79123   0.90625   0.00000  Uiso   1.00
H77    H     0.65886   0.31542   0.04296   0.00000  Uiso   1.00
H78    H     0.67088   0.55702   0.99675   0.00000  Uiso   1.00
H79    H     0.70290   0.20985   0.10270   0.00000  Uiso   1.00
H80    H     0.59968   0.20339   0.04042   0.00000  Uiso   1.00
H81    H     0.68914   0.78696   0.92823   0.00000  Uiso   1.00
H82    H     0.75664   0.05490   0.15165   0.00000  Uiso   1.00
H83    H     0.53899   0.04129   0.02032   0.00000  Uiso   1.00
O84    O     0.71395   0.81559   0.83840   0.00000  Uiso   1.00
O85    O     0.80250   0.85515   0.13151   0.00000  Uiso   1.00
O86    O     0.51694   0.83729   0.95921   0.00000  Uiso   1.00
N87    N     0.71226   0.56260   0.84735   0.00000  Uiso   1.00
N88    N     0.77537   0.87820   0.05622   0.00000  Uiso   1.00
N89    N     0.57189   0.86543   0.93345   0.00000  Uiso   1.00
N90    N     0.69483   0.69715   0.90873   0.00000  Uiso   1.00
N91    N     0.75794   0.01275   0.11760   0.00000  Uiso   1.00
N92    N     0.55445   0.99998   0.99483   0.00000  Uiso   1.00
C93    C     0.18803   0.59028   0.94025   0.00000  Uiso   1.00
C94    C     0.19044   0.75333   0.92965   0.00000  Uiso   1.00
C95    C     0.20219   0.81548   0.88654   0.00000  Uiso   1.00
C96    C     0.20240   0.96679   0.88402   0.00000  Uiso   1.00
C97    C     0.20786   0.20690   0.86160   0.00000  Uiso   1.00
C98    C     0.20784   0.56472   0.98721   0.00000  Uiso   1.00
C99    C     0.23421   0.46827   0.99251   0.00000  Uiso   1.00
C100   C     0.24907   0.46081   0.03845   0.00000  Uiso   1.00
C101   C     0.28152   0.40801   0.10541   0.00000  Uiso   1.00
C102   C     0.15176   0.56122   0.95337   0.00000  Uiso   1.00
C103   C     0.13098   0.46180   0.93022   0.00000  Uiso   1.00
C104   C     0.09862   0.45136   0.94768   0.00000  Uiso   1.00
C105   C     0.04400   0.39313   0.96209   0.00000  Uiso   1.00
C106   C     0.16753   0.74851   0.01244   0.00000  Uiso   1.00
C107   C     0.17931   0.83927   0.96886   0.00000  Uiso   1.00
C108   C     0.17950   0.99054   0.96640   0.00000  Uiso   1.00
C109   C     0.19124   0.05289   0.92330   0.00000  Uiso   1.00
C110   C     0.19671   0.65066   0.02642   0.00000  Uiso   1.00
C111   C     0.21153   0.64333   0.07237   0.00000  Uiso   1.00
C112   C     0.23791   0.54690   0.07773   0.00000  Uiso   1.00
C113   C     0.14062   0.64717   0.99258   0.00000  Uiso   1.00
C114   C     0.10829   0.63687   0.01008   0.00000  Uiso   1.00
C115   C     0.08746   0.53746   0.98696   0.00000  Uiso   1.00
H116   H     0.19670   0.52337   0.90973   0.00000  Uiso   1.00
H117   H     0.21080   0.74893   0.85621   0.00000  Uiso   1.00
H118   H     0.24282   0.40177   0.96216   0.00000  Uiso   1.00
H119   H     0.13960   0.39531   0.89988   0.00000  Uiso   1.00
H120   H     0.22154   0.03690   0.81416   0.00000  Uiso   1.00
H121   H     0.28904   0.30486   0.03758   0.00000  Uiso   1.00
H122   H     0.07139   0.29123   0.90625   0.00000  Uiso   1.00
H123   H     0.15886   0.81542   0.04296   0.00000  Uiso   1.00
H124   H     0.17088   0.05702   0.99675   0.00000  Uiso   1.00
H125   H     0.20290   0.70985   0.10270   0.00000  Uiso   1.00
H126   H     0.09968   0.70339   0.04042   0.00000  Uiso   1.00
H127   H     0.18914   0.28696   0.92823   0.00000  Uiso   1.00
H128   H     0.25664   0.55490   0.15165   0.00000  Uiso   1.00
H129   H     0.03899   0.54129   0.02032   0.00000  Uiso   1.00
O130   O     0.21395   0.31559   0.83840   0.00000  Uiso   1.00
O131   O     0.30250   0.35515   0.13151   0.00000  Uiso   1.00
O132   O     0.01694   0.33729   0.95921   0.00000  Uiso   1.00
N133   N     0.21226   0.06260   0.84735   0.00000  Uiso   1.00
N134   N     0.27537   0.37820   0.05622   0.00000  Uiso   1.00
N135   N     0.07189   0.36543   0.93345   0.00000  Uiso   1.00
N136   N     0.19483   0.19715   0.90873   0.00000  Uiso   1.00
N137   N     0.25794   0.51275   0.11760   0.00000  Uiso   1.00
N138   N     0.05445   0.49998   0.99483   0.00000  Uiso   1.00
C139   C     0.18803   0.09028   0.44025   0.00000  Uiso   1.00
C140   C     0.19044   0.25333   0.42965   0.00000  Uiso   1.00
C141   C     0.20219   0.31548   0.38654   0.00000  Uiso   1.00
C142   C     0.20240   0.46679   0.38402   0.00000  Uiso   1.00
C143   C     0.20786   0.70690   0.36160   0.00000  Uiso   1.00
C144   C     0.20784   0.06472   0.48721   0.00000  Uiso   1.00
C145   C     0.23421   0.96827   0.49251   0.00000  Uiso   1.00
C146   C     0.24907   0.96081   0.53845   0.00000  Uiso   1.00
C147   C     0.28152   0.90801   0.60541   0.00000  Uiso   1.00
C148   C     0.15176   0.06122   0.45337   0.00000  Uiso   1.00
C149   C     0.13098   0.96180   0.43022   0.00000  Uiso   1.00
C150   C     0.09862   0.95136   0.44768   0.00000  Uiso   1.00
C151   C     0.04400   0.89313   0.46209   0.00000  Uiso   1.00
C152   C     0.16753   0.24851   0.51244   0.00000  Uiso   1.00
C153   C     0.17931   0.33927   0.46886   0.00000  Uiso   1.00
C154   C     0.17950   0.49054   0.46640   0.00000  Uiso   1.00
C155   C     0.19124   0.55289   0.42330   0.00000  Uiso   1.00
C156   C     0.19671   0.15066   0.52642   0.00000  Uiso   1.00
C157   C     0.21153   0.14333   0.57237   0.00000  Uiso   1.00
C158   C     0.23791   0.04690   0.57773   0.00000  Uiso   1.00
C159   C     0.14062   0.14717   0.49258   0.00000  Uiso   1.00
C160   C     0.10829   0.13687   0.51008   0.00000  Uiso   1.00
C161   C     0.08746   0.03746   0.48696   0.00000  Uiso   1.00
H162   H     0.19670   0.02337   0.40973   0.00000  Uiso   1.00
H163   H     0.21080   0.24893   0.35621   0.00000  Uiso   1.00
H164   H     0.24282   0.90177   0.46216   0.00000  Uiso   1.00
H165   H     0.13960   0.89531   0.39988   0.00000  Uiso   1.00
H166   H     0.22154   0.53690   0.31416   0.00000  Uiso   1.00
H167   H     0.28904   0.80486   0.53758   0.00000  Uiso   1.00
H168   H     0.07139   0.79123   0.40625   0.00000  Uiso   1.00
H169   H     0.15886   0.31542   0.54296   0.00000  Uiso   1.00
H170   H     0.17088   0.55702   0.49675   0.00000  Uiso   1.00
H171   H     0.20290   0.20985   0.60270   0.00000  Uiso   1.00
H172   H     0.09968   0.20339   0.54042   0.00000  Uiso   1.00
H173   H     0.18914   0.78696   0.42823   0.00000  Uiso   1.00
H174   H     0.25664   0.05490   0.65165   0.00000  Uiso   1.00
H175   H     0.03899   0.04129   0.52032   0.00000  Uiso   1.00
O176   O     0.21395   0.81559   0.33840   0.00000  Uiso   1.00
O177   O     0.30250   0.85515   0.63151   0.00000  Uiso   1.00
O178   O     0.01694   0.83729   0.45921   0.00000  Uiso   1.00
N179   N     0.21226   0.56260   0.34735   0.00000  Uiso   1.00
N180   N     0.27537   0.87820   0.55622   0.00000  Uiso   1.00
N181   N     0.07189   0.86543   0.43345   0.00000  Uiso   1.00
N182   N     0.19483   0.69715   0.40873   0.00000  Uiso   1.00
N183   N     0.25794   0.01275   0.61760   0.00000  Uiso   1.00
N184   N     0.05445   0.99998   0.49483   0.00000  Uiso   1.00
C185   C     0.31197   0.40972   0.44025   0.00000  Uiso   1.00
C186   C     0.30956   0.24667   0.42965   0.00000  Uiso   1.00
C187   C     0.29781   0.18452   0.38654   0.00000  Uiso   1.00
C188   C     0.29760   0.03321   0.38402   0.00000  Uiso   1.00
C189   C     0.29214   0.79310   0.36160   0.00000  Uiso   1.00
C190   C     0.29216   0.43528   0.48721   0.00000  Uiso   1.00
C191   C     0.26579   0.53173   0.49251   0.00000  Uiso   1.00
C192   C     0.25093   0.53919   0.53845   0.00000  Uiso   1.00
C193   C     0.21848   0.59199   0.60541   0.00000  Uiso   1.00
C194   C     0.34824   0.43878   0.45337   0.00000  Uiso   1.00
C195   C     0.36902   0.53820   0.43022   0.00000  Uiso   1.00
C196   C     0.40138   0.54864   0.44768   0.00000  Uiso   1.00
C197   C     0.45600   0.60687   0.46209   0.00000  Uiso   1.00
C198   C     0.33247   0.25149   0.51244   0.00000  Uiso   1.00
C199   C     0.32069   0.16073   0.46886   0.00000  Uiso   1.00
C200   C     0.32050   0.00946   0.46640   0.00000  Uiso   1.00
C201   C     0.30876   0.94711   0.42330   0.00000  Uiso   1.00
C202   C     0.30329   0.34934   0.52642   0.00000  Uiso   1.00
C203   C     0.28847   0.35667   0.57237   0.00000  Uiso   1.00
C204   C     0.26209   0.45310   0.57773   0.00000  Uiso   1.00
C205   C     0.35938   0.35283   0.49258   0.00000  Uiso   1.00
C206   C     0.39171   0.36313   0.51008   0.00000  Uiso   1.00
C207   C     0.41254   0.46254   0.48696   0.00000  Uiso   1.00
H208   H     0.30330   0.47663   0.40973   0.00000  Uiso   1.00
H209   H     0.28920   0.25107   0.35621   0.00000  Uiso   1.00
H210   H     0.25718   0.59823   0.46216   0.00000  Uiso   1.00
H211   H     0.36040   0.60469   0.39988   0.00000  Uiso   1.00
H212   H     0.27846   0.96310   0.31416   0.00000  Uiso   1.00
H213   H     0.21096   0.69514   0.53758   0.00000  Uiso   1.00
H214   H     0.42861   0.70877   0.40625   0.00000  Uiso   1.00
H215   H     0.34114   0.18458   0.54296   0.00000  Uiso   1.00
H216   H     0.32912   0.94298   0.49675   0.00000  Uiso   1.00
H217   H     0.29710   0.29015   0.60270   0.00000  Uiso   1.00
H218   H     0.40032   0.29661   0.54042   0.00000  Uiso   1.00
H219   H     0.31086   0.71304   0.42823   0.00000  Uiso   1.00
H220   H     0.24336   0.44510   0.65165   0.00000  Uiso   1.00
H221   H     0.46101   0.45871   0.52032   0.00000  Uiso   1.00
O222   O     0.28605   0.68441   0.33840   0.00000  Uiso   1.00
O223   O     0.19750   0.64485   0.63151   0.00000  Uiso   1.00
O224   O     0.48306   0.66271   0.45921   0.00000  Uiso   1.00
N225   N     0.28774   0.93740   0.34735   0.00000  Uiso   1.00
N226   N     0.22463   0.62180   0.55622   0.00000  Uiso   1.00
N227   N     0.42811   0.63457   0.43345   0.00000  Uiso   1.00
N228   N     0.30517   0.80285   0.40873   0.00000  Uiso   1.00
N229   N     0.24206   0.48725   0.61760   0.00000  Uiso   1.00
N230   N     0.44555   0.50002   0.49483   0.00000  Uiso   1.00
C231   C     0.31197   0.90972   0.94025   0.00000  Uiso   1.00
C232   C     0.30956   0.74667   0.92965   0.00000  Uiso   1.00
C233   C     0.29781   0.68452   0.88654   0.00000  Uiso   1.00
C234   C     0.29760   0.53321   0.88402   0.00000  Uiso   1.00
C235   C     0.29214   0.29310   0.86160   0.00000  Uiso   1.00
C236   C     0.29216   0.93528   0.98721   0.00000  Uiso   1.00
C237   C     0.26579   0.03173   0.99251   0.00000  Uiso   1.00
C238   C     0.25093   0.03919   0.03845   0.00000  Uiso   1.00
C239   C     0.21848   0.09199   0.10541   0.00000  Uiso   1.00
C240   C     0.34824   0.93878   0.95337   0.00000  Uiso   1.00
C241   C     0.36902   0.03820   0.93022   0.00000  Uiso   1.00
C242   C     0.40138   0.04864   0.94768   0.00000  Uiso   1.00
C243   C     0.45600   0.10687   0.96209   0.00000  Uiso   1.00
C244   C     0.33247   0.75149   0.01244   0.00000  Uiso   1.00
C245   C     0.32069   0.66073   0.96886   0.00000  Uiso   1.00
C246   C     0.32050   0.50946   0.96640   0.00000  Uiso   1.00
C247   C     0.30876   0.44711   0.92330   0.00000  Uiso   1.00
C248   C     0.30329   0.84934   0.02642   0.00000  Uiso   1.00
C249   C     0.28847   0.85667   0.07237   0.00000  Uiso   1.00
C250   C     0.26209   0.95310   0.07773   0.00000  Uiso   1.00
C251   C     0.35938   0.85283   0.99258   0.00000  Uiso   1.00
C252   C     0.39171   0.86313   0.01008   0.00000  Uiso   1.00
C253   C     0.41254   0.96254   0.98696   0.00000  Uiso   1.00
H254   H     0.30330   0.97663   0.90973   0.00000  Uiso   1.00
H255   H     0.28920   0.75107   0.85621   0.00000  Uiso   1.00
H256   H     0.25718   0.09823   0.96216   0.00000  Uiso   1.00
H257   H     0.36040   0.10469   0.89988   0.00000  Uiso   1.00
H258   H     0.27846   0.46310   0.81416   0.00000  Uiso   1.00
H259   H     0.21096   0.19514   0.03758   0.00000  Uiso   1.00
H260   H     0.42861   0.20877   0.90625   0.00000  Uiso   1.00
H261   H     0.34114   0.68458   0.04296   0.00000  Uiso   1.00
H262   H     0.32912   0.44298   0.99675   0.00000  Uiso   1.00
H263   H     0.29710   0.79015   0.10270   0.00000  Uiso   1.00
H264   H     0.40032   0.79661   0.04042   0.00000  Uiso   1.00
H265   H     0.31086   0.21304   0.92823   0.00000  Uiso   1.00
H266   H     0.24336   0.94510   0.15165   0.00000  Uiso   1.00
H267   H     0.46101   0.95871   0.02032   0.00000  Uiso   1.00
O268   O     0.28605   0.18441   0.83840   0.00000  Uiso   1.00
O269   O     0.19750   0.14485   0.13151   0.00000  Uiso   1.00
O270   O     0.48306   0.16271   0.95921   0.00000  Uiso   1.00
N271   N     0.28774   0.43740   0.84735   0.00000  Uiso   1.00
N272   N     0.22463   0.12180   0.05622   0.00000  Uiso   1.00
N273   N     0.42811   0.13457   0.93345   0.00000  Uiso   1.00
N274   N     0.30517   0.30285   0.90873   0.00000  Uiso   1.00
N275   N     0.24206   0.98725   0.11760   0.00000  Uiso   1.00
N276   N     0.44555   0.00002   0.99483   0.00000  Uiso   1.00
C277   C     0.81197   0.40972   0.94025   0.00000  Uiso   1.00
C278   C     0.80956   0.24667   0.92965   0.00000  Uiso   1.00
C279   C     0.79781   0.18452   0.88654   0.00000  Uiso   1.00
C280   C     0.79760   0.03321   0.88402   0.00000  Uiso   1.00
C281   C     0.79214   0.79310   0.86160   0.00000  Uiso   1.00
C282   C     0.79216   0.43528   0.98721   0.00000  Uiso   1.00
C283   C     0.76579   0.53173   0.99251   0.00000  Uiso   1.00
C284   C     0.75093   0.53919   0.03845   0.00000  Uiso   1.00
C285   C     0.71848   0.59199   0.10541   0.00000  Uiso   1.00
C286   C     0.84824   0.43878   0.95337   0.00000  Uiso   1.00
C287   C     0.86902   0.53820   0.93022   0.00000  Uiso   1.00
C288   C     0.90138   0.54864   0.94768   0.00000  Uiso   1.00
C289   C     0.95600   0.60687   0.96209   0.00000  Uiso   1.00
C290   C     0.83247   0.25149   0.01244   0.00000  Uiso   1.00
C291   C     0.82069   0.16073   0.96886   0.00000  Uiso   1.00
C292   C     0.82050   0.00946   0.96640   0.00000  Uiso   1.00
C293   C     0.80876   0.94711   0.92330   0.00000  Uiso   1.00
C294   C     0.80329   0.34934   0.02642   0.00000  Uiso   1.00
C295   C     0.78847   0.35667   0.07237   0.00000  Uiso   1.00
C296   C     0.76209   0.45310   0.07773   0.00000  Uiso   1.00
C297   C     0.85938   0.35283   0.99258   0.00000  Uiso   1.00
C298   C     0.89171   0.36313   0.01008   0.00000  Uiso   1.00
C299   C     0.91254   0.46254   0.98696   0.00000  Uiso   1.00
H300   H     0.80330   0.47663   0.90973   0.00000  Uiso   1.00
H301   H     0.78920   0.25107   0.85621   0.00000  Uiso   1.00
H302   H     0.75718   0.59823   0.96216   0.00000  Uiso   1.00
H303   H     0.86040   0.60469   0.89988   0.00000  Uiso   1.00
H304   H     0.77846   0.96310   0.81416   0.00000  Uiso   1.00
H305   H     0.71096   0.69514   0.03758   0.00000  Uiso   1.00
H306   H     0.92861   0.70877   0.90625   0.00000  Uiso   1.00
H307   H     0.84114   0.18458   0.04296   0.00000  Uiso   1.00
H308   H     0.82912   0.94298   0.99675   0.00000  Uiso   1.00
H309   H     0.79710   0.29015   0.10270   0.00000  Uiso   1.00
H310   H     0.90032   0.29661   0.04042   0.00000  Uiso   1.00
H311   H     0.81086   0.71304   0.92823   0.00000  Uiso   1.00
H312   H     0.74336   0.44510   0.15165   0.00000  Uiso   1.00
H313   H     0.96101   0.45871   0.02032   0.00000  Uiso   1.00
O314   O     0.78605   0.68441   0.83840   0.00000  Uiso   1.00
O315   O     0.69750   0.64485   0.13151   0.00000  Uiso   1.00
O316   O     0.98306   0.66271   0.95921   0.00000  Uiso   1.00
N317   N     0.78774   0.93740   0.84735   0.00000  Uiso   1.00
N318   N     0.72463   0.62180   0.05622   0.00000  Uiso   1.00
N319   N     0.92811   0.63457   0.93345   0.00000  Uiso   1.00
N320   N     0.80517   0.80285   0.90873   0.00000  Uiso   1.00
N321   N     0.74206   0.48725   0.11760   0.00000  Uiso   1.00
N322   N     0.94555   0.50002   0.99483   0.00000  Uiso   1.00
C323   C     0.81197   0.90972   0.44025   0.00000  Uiso   1.00
C324   C     0.80956   0.74667   0.42965   0.00000  Uiso   1.00
C325   C     0.79781   0.68452   0.38654   0.00000  Uiso   1.00
C326   C     0.79760   0.53321   0.38402   0.00000  Uiso   1.00
C327   C     0.79214   0.29310   0.36160   0.00000  Uiso   1.00
C328   C     0.79216   0.93528   0.48721   0.00000  Uiso   1.00
C329   C     0.76579   0.03173   0.49251   0.00000  Uiso   1.00
C330   C     0.75093   0.03919   0.53845   0.00000  Uiso   1.00
C331   C     0.71848   0.09199   0.60541   0.00000  Uiso   1.00
C332   C     0.84824   0.93878   0.45337   0.00000  Uiso   1.00
C333   C     0.86902   0.03820   0.43022   0.00000  Uiso   1.00
C334   C     0.90138   0.04864   0.44768   0.00000  Uiso   1.00
C335   C     0.95600   0.10687   0.46209   0.00000  Uiso   1.00
C336   C     0.83247   0.75149   0.51244   0.00000  Uiso   1.00
C337   C     0.82069   0.66073   0.46886   0.00000  Uiso   1.00
C338   C     0.82050   0.50946   0.46640   0.00000  Uiso   1.00
C339   C     0.80876   0.44711   0.42330   0.00000  Uiso   1.00
C340   C     0.80329   0.84934   0.52642   0.00000  Uiso   1.00
C341   C     0.78847   0.85667   0.57237   0.00000  Uiso   1.00
C342   C     0.76209   0.95310   0.57773   0.00000  Uiso   1.00
C343   C     0.85938   0.85283   0.49258   0.00000  Uiso   1.00
C344   C     0.89171   0.86313   0.51008   0.00000  Uiso   1.00
C345   C     0.91254   0.96254   0.48696   0.00000  Uiso   1.00
H346   H     0.80330   0.97663   0.40973   0.00000  Uiso   1.00
H347   H     0.78920   0.75107   0.35621   0.00000  Uiso   1.00
H348   H     0.75718   0.09823   0.46216   0.00000  Uiso   1.00
H349   H     0.86040   0.10469   0.39988   0.00000  Uiso   1.00
H350   H     0.77846   0.46310   0.31416   0.00000  Uiso   1.00
H351   H     0.71096   0.19514   0.53758   0.00000  Uiso   1.00
H352   H     0.92861   0.20877   0.40625   0.00000  Uiso   1.00
H353   H     0.84114   0.68458   0.54296   0.00000  Uiso   1.00
H354   H     0.82912   0.44298   0.49675   0.00000  Uiso   1.00
H355   H     0.79710   0.79015   0.60270   0.00000  Uiso   1.00
H356   H     0.90032   0.79661   0.54042   0.00000  Uiso   1.00
H357   H     0.81086   0.21304   0.42823   0.00000  Uiso   1.00
H358   H     0.74336   0.94510   0.65165   0.00000  Uiso   1.00
H359   H     0.96101   0.95871   0.52032   0.00000  Uiso   1.00
O360   O     0.78605   0.18441   0.33840   0.00000  Uiso   1.00
O361   O     0.69750   0.14485   0.63151   0.00000  Uiso   1.00
O362   O     0.98306   0.16271   0.45921   0.00000  Uiso   1.00
N363   N     0.78774   0.43740   0.34735   0.00000  Uiso   1.00
N364   N     0.72463   0.12180   0.55622   0.00000  Uiso   1.00
N365   N     0.92811   0.13457   0.43345   0.00000  Uiso   1.00
N366   N     0.80517   0.30285   0.40873   0.00000  Uiso   1.00
N367   N     0.74206   0.98725   0.61760   0.00000  Uiso   1.00
N368   N     0.94555   0.00002   0.49483   0.00000  Uiso   1.00
C369   C     0.93803   0.65972   0.69025   0.00000  Uiso   1.00
C370   C     0.94044   0.49667   0.67965   0.00000  Uiso   1.00
C371   C     0.95219   0.43452   0.63654   0.00000  Uiso   1.00
C372   C     0.95240   0.28321   0.63402   0.00000  Uiso   1.00
C373   C     0.95786   0.04310   0.61160   0.00000  Uiso   1.00
C374   C     0.95784   0.68528   0.73721   0.00000  Uiso   1.00
C375   C     0.98421   0.78173   0.74251   0.00000  Uiso   1.00
C376   C     0.99907   0.78919   0.78845   0.00000  Uiso   1.00
C377   C     0.03152   0.84199   0.85541   0.00000  Uiso   1.00
C378   C     0.90176   0.68878   0.70337   0.00000  Uiso   1.00
C379   C     0.88098   0.78820   0.68022   0.00000  Uiso   1.00
C380   C     0.84862   0.79864   0.69768   0.00000  Uiso   1.00
C381   C     0.79400   0.85687   0.71209   0.00000  Uiso   1.00
C382   C     0.91753   0.50149   0.76244   0.00000  Uiso   1.00
C383   C     0.92931   0.41073   0.71886   0.00000  Uiso   1.00
C384   C     0.92950   0.25946   0.71640   0.00000  Uiso   1.00
C385   C     0.94124   0.19711   0.67330   0.00000  Uiso   1.00
C386   C     0.94671   0.59934   0.77642   0.00000  Uiso   1.00
C387   C     0.96153   0.60667   0.82237   0.00000  Uiso   1.00
C388   C     0.98791   0.70310   0.82773   0.00000  Uiso   1.00
C389   C     0.89062   0.60283   0.74258   0.00000  Uiso   1.00
C390   C     0.85829   0.61313   0.76008   0.00000  Uiso   1.00
C391   C     0.83746   0.71254   0.73696   0.00000  Uiso   1.00
H392   H     0.94670   0.72663   0.65973   0.00000  Uiso   1.00
H393   H     0.96080   0.50107   0.60621   0.00000  Uiso   1.00
H394   H     0.99282   0.84823   0.71216   0.00000  Uiso   1.00
H395   H     0.88960   0.85469   0.64988   0.00000  Uiso   1.00
H396   H     0.97154   0.21310   0.56416   0.00000  Uiso   1.00
H397   H     0.03904   0.94514   0.78758   0.00000  Uiso   1.00
H398   H     0.82139   0.95877   0.65625   0.00000  Uiso   1.00
H399   H     0.90886   0.43458   0.79296   0.00000  Uiso   1.00
H400   H     0.92088   0.19298   0.74675   0.00000  Uiso   1.00
H401   H     0.95290   0.54015   0.85270   0.00000  Uiso   1.00
H402   H     0.84968   0.54661   0.79042   0.00000  Uiso   1.00
H403   H     0.93914   0.96304   0.67823   0.00000  Uiso   1.00
H404   H     0.00664   0.69510   0.90165   0.00000  Uiso   1.00
H405   H     0.78899   0.70871   0.77032   0.00000  Uiso   1.00
O406   O     0.96395   0.93441   0.58840   0.00000  Uiso   1.00
O407   O     0.05250   0.89485   0.88151   0.00000  Uiso   1.00
O408   O     0.76694   0.91271   0.70921   0.00000  Uiso   1.00
N409   N     0.96226   0.18740   0.59735   0.00000  Uiso   1.00
N410   N     0.02537   0.87180   0.80622   0.00000  Uiso   1.00
N411   N     0.82189   0.88457   0.68345   0.00000  Uiso   1.00
N412   N     0.94483   0.05285   0.65873   0.00000  Uiso   1.00
N413   N     0.00794   0.73725   0.86760   0.00000  Uiso   1.00
N414   N     0.80445   0.75002   0.74483   0.00000  Uiso   1.00
C415   C     0.93803   0.15972   0.19025   0.00000  Uiso   1.00
C416   C     0.94044   0.99667   0.17965   0.00000  Uiso   1.00
C417   C     0.95219   0.93452   0.13654   0.00000  Uiso   1.00
C418   C     0.95240   0.78321   0.13402   0.00000  Uiso   1.00
C419   C     0.95786   0.54310   0.11160   0.00000  Uiso   1.00
C420   C     0.95784   0.18528   0.23721   0.00000  Uiso   1.00
C421   C     0.98421   0.28173   0.24251   0.00000  Uiso   1.00
C422   C     0.99907   0.28919   0.28845   0.00000  Uiso   1.00
C423   C     0.03152   0.34199   0.35541   0.00000  Uiso   1.00
C424   C     0.90176   0.18878   0.20337   0.00000  Uiso   1.00
C425   C     0.88098   0.28820   0.18022   0.00000  Uiso   1.00
C426   C     0.84862   0.29864   0.19768   0.00000  Uiso   1.00
C427   C     0.79400   0.35687   0.21209   0.00000  Uiso   1.00
C428   C     0.91753   0.00149   0.26244   0.00000  Uiso   1.00
C429   C     0.92931   0.91073   0.21886   0.00000  Uiso   1.00
C430   C     0.92950   0.75946   0.21640   0.00000  Uiso   1.00
C431   C     0.94124   0.69711   0.17330   0.00000  Uiso   1.00
C432   C     0.94671   0.09934   0.27642   0.00000  Uiso   1.00
C433   C     0.96153   0.10667   0.32237   0.00000  Uiso   1.00
C434   C     0.98791   0.20310   0.32773   0.00000  Uiso   1.00
C435   C     0.89062   0.10283   0.24258   0.00000  Uiso   1.00
C436   C     0.85829   0.11313   0.26008   0.00000  Uiso   1.00
C437   C     0.83746   0.21254   0.23696   0.00000  Uiso   1.00
H438   H     0.94670   0.22663   0.15973   0.00000  Uiso   1.00
H439   H     0.96080   0.00107   0.10621   0.00000  Uiso   1.00
H440   H     0.99282   0.34823   0.21216   0.00000  Uiso   1.00
H441   H     0.88960   0.35469   0.14988   0.00000  Uiso   1.00
H442   H     0.97154   0.71310   0.06416   0.00000  Uiso   1.00
H443   H     0.03904   0.44514   0.28758   0.00000  Uiso   1.00
H444   H     0.82139   0.45877   0.15625   0.00000  Uiso   1.00
H445   H     0.90886   0.93458   0.29296   0.00000  Uiso   1.00
H446   H     0.92088   0.69298   0.24675   0.00000  Uiso   1.00
H447   H     0.95290   0.04015   0.35270   0.00000  Uiso   1.00
H448   H     0.84968   0.04661   0.29042   0.00000  Uiso   1.00
H449   H     0.93914   0.46304   0.17823   0.00000  Uiso   1.00
H450   H     0.00664   0.19510   0.40165   0.00000  Uiso   1.00
H451   H     0.78899   0.20871   0.27032   0.00000  Uiso   1.00
O452   O     0.96395   0.43441   0.08840   0.00000  Uiso   1.00
O453   O     0.05250   0.39485   0.38151   0.00000  Uiso   1.00
O454   O     0.76694   0.41271   0.20921   0.00000  Uiso   1.00
N455   N     0.96226   0.68740   0.09735   0.00000  Uiso   1.00
N456   N     0.02537   0.37180   0.30622   0.00000  Uiso   1.00
N457   N     0.82189   0.38457   0.18345   0.00000  Uiso   1.00
N458   N     0.94483   0.55285   0.15873   0.00000  Uiso   1.00
N459   N     0.00794   0.23725   0.36760   0.00000  Uiso   1.00
N460   N     0.80445   0.25002   0.24483   0.00000  Uiso   1.00
C461   C     0.43803   0.65972   0.19025   0.00000  Uiso   1.00
C462   C     0.44044   0.49667   0.17965   0.00000  Uiso   1.00
C463   C     0.45219   0.43452   0.13654   0.00000  Uiso   1.00
C464   C     0.45240   0.28321   0.13402   0.00000  Uiso   1.00
C465   C     0.45786   0.04310   0.11160   0.00000  Uiso   1.00
C466   C     0.45784   0.68528   0.23721   0.00000  Uiso   1.00
C467   C     0.48421   0.78173   0.24251   0.00000  Uiso   1.00
C468   C     0.49907   0.78919   0.28845   0.00000  Uiso   1.00
C469   C     0.53152   0.84199   0.35541   0.00000  Uiso   1.00
C470   C     0.40176   0.68878   0.20337   0.00000  Uiso   1.00
C471   C     0.38098   0.78820   0.18022   0.00000  Uiso   1.00
C472   C     0.34862   0.79864   0.19768   0.00000  Uiso   1.00
C473   C     0.29400   0.85687   0.21209   0.00000  Uiso   1.00
C474   C     0.41753   0.50149   0.26244   0.00000  Uiso   1.00
C475   C     0.42931   0.41073   0.21886   0.00000  Uiso   1.00
C476   C     0.42950   0.25946   0.21640   0.00000  Uiso   1.00
C477   C     0.44124   0.19711   0.17330   0.00000  Uiso   1.00
C478   C     0.44671   0.59934   0.27642   0.00000  Uiso   1.00
C479   C     0.46153   0.60667   0.32237   0.00000  Uiso   1.00
C480   C     0.48791   0.70310   0.32773   0.00000  Uiso   1.00
C481   C     0.39062   0.60283   0.24258   0.00000  Uiso   1.00
C482   C     0.35829   0.61313   0.26008   0.00000  Uiso   1.00
C483   C     0.33746   0.71254   0.23696   0.00000  Uiso   1.00
H484   H     0.44670   0.72663   0.15973   0.00000  Uiso   1.00
H485   H     0.46080   0.50107   0.10621   0.00000  Uiso   1.00
H486   H     0.49282   0.84823   0.21216   0.00000  Uiso   1.00
H487   H     0.38960   0.85469   0.14988   0.00000  Uiso   1.00
H488   H     0.47154   0.21310   0.06416   0.00000  Uiso   1.00
H489   H     0.53904   0.94514   0.28758   0.00000  Uiso   1.00
H490   H     0.32139   0.95877   0.15625   0.00000  Uiso   1.00
H491   H     0.40886   0.43458   0.29296   0.00000  Uiso   1.00
H492   H     0.42088   0.19298   0.24675   0.00000  Uiso   1.00
H493   H     0.45290   0.54015   0.35270   0.00000  Uiso   1.00
H494   H     0.34968   0.54661   0.29042   0.00000  Uiso   1.00
H495   H     0.43914   0.96304   0.17823   0.00000  Uiso   1.00
H496   H     0.50664   0.69510   0.40165   0.00000  Uiso   1.00
H497   H     0.28899   0.70871   0.27032   0.00000  Uiso   1.00
O498   O     0.46395   0.93441   0.08840   0.00000  Uiso   1.00
O499   O     0.55250   0.89485   0.38151   0.00000  Uiso   1.00
O500   O     0.26694   0.91271   0.20921   0.00000  Uiso   1.00
N501   N     0.46226   0.18740   0.09735   0.00000  Uiso   1.00
N502   N     0.52537   0.87180   0.30622   0.00000  Uiso   1.00
N503   N     0.32189   0.88457   0.18345   0.00000  Uiso   1.00
N504   N     0.44483   0.05285   0.15873   0.00000  Uiso   1.00
N505   N     0.50794   0.73725   0.36760   0.00000  Uiso   1.00
N506   N     0.30445   0.75002   0.24483   0.00000  Uiso   1.00
C507   C     0.43803   0.15972   0.69025   0.00000  Uiso   1.00
C508   C     0.44044   0.99667   0.67965   0.00000  Uiso   1.00
C509   C     0.45219   0.93452   0.63654   0.00000  Uiso   1.00
C510   C     0.45240   0.78321   0.63402   0.00000  Uiso   1.00
C511   C     0.45786   0.54310   0.61160   0.00000  Uiso   1.00
C512   C     0.45784   0.18528   0.73721   0.00000  Uiso   1.00
C513   C     0.48421   0.28173   0.74251   0.00000  Uiso   1.00
C514   C     0.49907   0.28919   0.78845   0.00000  Uiso   1.00
C515   C     0.53152   0.34199   0.85541   0.00000  Uiso   1.00
C516   C     0.40176   0.18878   0.70337   0.00000  Uiso   1.00
C517   C     0.38098   0.28820   0.68022   0.00000  Uiso   1.00
C518   C     0.34862   0.29864   0.69768   0.00000  Uiso   1.00
C519   C     0.29400   0.35687   0.71209   0.00000  Uiso   1.00
C520   C     0.41753   0.00149   0.76244   0.00000  Uiso   1.00
C521   C     0.42931   0.91073   0.71886   0.00000  Uiso   1.00
C522   C     0.42950   0.75946   0.71640   0.00000  Uiso   1.00
C523   C     0.44124   0.69711   0.67330   0.00000  Uiso   1.00
C524   C     0.44671   0.09934   0.77642   0.00000  Uiso   1.00
C525   C     0.46153   0.10667   0.82237   0.00000  Uiso   1.00
C526   C     0.48791   0.20310   0.82773   0.00000  Uiso   1.00
C527   C     0.39062   0.10283   0.74258   0.00000  Uiso   1.00
C528   C     0.35829   0.11313   0.76008   0.00000  Uiso   1.00
C529   C     0.33746   0.21254   0.73696   0.00000  Uiso   1.00
H530   H     0.44670   0.22663   0.65973   0.00000  Uiso   1.00
H531   H     0.46080   0.00107   0.60621   0.00000  Uiso   1.00
H532   H     0.49282   0.34823   0.71216   0.00000  Uiso   1.00
H533   H     0.38960   0.35469   0.64988   0.00000  Uiso   1.00
H534   H     0.47154   0.71310   0.56416   0.00000  Uiso   1.00
H535   H     0.53904   0.44514   0.78758   0.00000  Uiso   1.00
H536   H     0.32139   0.45877   0.65625   0.00000  Uiso   1.00
H537   H     0.40886   0.93458   0.79296   0.00000  Uiso   1.00
H538   H     0.42088   0.69298   0.74675   0.00000  Uiso   1.00
H539   H     0.45290   0.04015   0.85270   0.00000  Uiso   1.00
H540   H     0.34968   0.04661   0.79042   0.00000  Uiso   1.00
H541   H     0.43914   0.46304   0.67823   0.00000  Uiso   1.00
H542   H     0.50664   0.19510   0.90165   0.00000  Uiso   1.00
H543   H     0.28899   0.20871   0.77032   0.00000  Uiso   1.00
O544   O     0.46395   0.43441   0.58840   0.00000  Uiso   1.00
O545   O     0.55250   0.39485   0.88151   0.00000  Uiso   1.00
O546   O     0.26694   0.41271   0.70921   0.00000  Uiso   1.00
N547   N     0.46226   0.68740   0.59735   0.00000  Uiso   1.00
N548   N     0.52537   0.37180   0.80622   0.00000  Uiso   1.00
N549   N     0.32189   0.38457   0.68345   0.00000  Uiso   1.00
N550   N     0.44483   0.55285   0.65873   0.00000  Uiso   1.00
N551   N     0.50794   0.23725   0.86760   0.00000  Uiso   1.00
N552   N     0.30445   0.25002   0.74483   0.00000  Uiso   1.00
C553   C     0.56197   0.84028   0.69025   0.00000  Uiso   1.00
C554   C     0.55956   0.00333   0.67965   0.00000  Uiso   1.00
C555   C     0.54781   0.06548   0.63654   0.00000  Uiso   1.00
C556   C     0.54760   0.21679   0.63402   0.00000  Uiso   1.00
C557   C     0.54214   0.45690   0.61160   0.00000  Uiso   1.00
C558   C     0.54216   0.81472   0.73721   0.00000  Uiso   1.00
C559   C     0.51579   0.71827   0.74251   0.00000  Uiso   1.00
C560   C     0.50093   0.71081   0.78845   0.00000  Uiso   1.00
C561   C     0.46848   0.65801   0.85541   0.00000  Uiso   1.00
C562   C     0.59824   0.81122   0.70337   0.00000  Uiso   1.00
C563   C     0.61902   0.71180   0.68022   0.00000  Uiso   1.00
C564   C     0.65138   0.70136   0.69768   0.00000  Uiso   1.00
C565   C     0.70600   0.64313   0.71209   0.00000  Uiso   1.00
C566   C     0.58247   0.99851   0.76244   0.00000  Uiso   1.00
C567   C     0.57069   0.08927   0.71886   0.00000  Uiso   1.00
C568   C     0.57050   0.24054   0.71640   0.00000  Uiso   1.00
C569   C     0.55876   0.30289   0.67330   0.00000  Uiso   1.00
C570   C     0.55329   0.90066   0.77642   0.00000  Uiso   1.00
C571   C     0.53847   0.89333   0.82237   0.00000  Uiso   1.00
C572   C     0.51209   0.79690   0.82773   0.00000  Uiso   1.00
C573   C     0.60938   0.89717   0.74258   0.00000  Uiso   1.00
C574   C     0.64171   0.88687   0.76008   0.00000  Uiso   1.00
C575   C     0.66254   0.78746   0.73696   0.00000  Uiso   1.00
H576   H     0.55330   0.77337   0.65973   0.00000  Uiso   1.00
H577   H     0.53920   0.99893   0.60621   0.00000  Uiso   1.00
H578   H     0.50718   0.65177   0.71216   0.00000  Uiso   1.00
H579   H     0.61040   0.64531   0.64988   0.00000  Uiso   1.00
H580   H     0.52846   0.28690   0.56416   0.00000  Uiso   1.00
H581   H     0.46096   0.55486   0.78758   0.00000  Uiso   1.00
H582   H     0.67861   0.54123   0.65625   0.00000  Uiso   1.00
H583   H     0.59114   0.06542   0.79296   0.00000  Uiso   1.00
H584   H     0.57912   0.30702   0.74675   0.00000  Uiso   1.00
H585   H     0.54710   0.95985   0.85270   0.00000  Uiso   1.00
H586   H     0.65032   0.95339   0.79042   0.00000  Uiso   1.00
H587   H     0.56086   0.53696   0.67823   0.00000  Uiso   1.00
H588   H     0.49336   0.80490   0.90165   0.00000  Uiso   1.00
H589   H     0.71101   0.79129   0.77032   0.00000  Uiso   1.00
O590   O     0.53605   0.56559   0.58840   0.00000  Uiso   1.00
O591   O     0.44750   0.60515   0.88151   0.00000  Uiso   1.00
O592   O     0.73306   0.58729   0.70921   0.00000  Uiso   1.00
N593   N     0.53774   0.31260   0.59735   0.00000  Uiso   1.00
N594   N     0.47463   0.62820   0.80622   0.00000  Uiso   1.00
N595   N     0.67811   0.61543   0.68345   0.00000  Uiso   1.00
N596   N     0.55517   0.44715   0.65873   0.00000  Uiso   1.00
N597   N     0.49206   0.76275   0.86760   0.00000  Uiso   1.00
N598   N     0.69555   0.74998   0.74483   0.00000  Uiso   1.00
C599   C     0.56197   0.34028   0.19025   0.00000  Uiso   1.00
C600   C     0.55956   0.50333   0.17965   0.00000  Uiso   1.00
C601   C     0.54781   0.56548   0.13654   0.00000  Uiso   1.00
C602   C     0.54760   0.71679   0.13402   0.00000  Uiso   1.00
C603   C     0.54214   0.95690   0.11160   0.00000  Uiso   1.00
C604   C     0.54216   0.31472   0.23721   0.00000  Uiso   1.00
C605   C     0.51579   0.21827   0.24251   0.00000  Uiso   1.00
C606   C     0.50093   0.21081   0.28845   0.00000  Uiso   1.00
C607   C     0.46848   0.15801   0.35541   0.00000  Uiso   1.00
C608   C     0.59824   0.31122   0.20337   0.00000  Uiso   1.00
C609   C     0.61902   0.21180   0.18022   0.00000  Uiso   1.00
C610   C     0.65138   0.20136   0.19768   0.00000  Uiso   1.00
C611   C     0.70600   0.14313   0.21209   0.00000  Uiso   1.00
C612   C     0.58247   0.49851   0.26244   0.00000  Uiso   1.00
C613   C     0.57069   0.58927   0.21886   0.00000  Uiso   1.00
C614   C     0.57050   0.74054   0.21640   0.00000  Uiso   1.00
C615   C     0.55876   0.80289   0.17330   0.00000  Uiso   1.00
C616   C     0.55329   0.40066   0.27642   0.00000  Uiso   1.00
C617   C     0.53847   0.39333   0.32237   0.00000  Uiso   1.00
C618   C     0.51209   0.29690   0.32773   0.00000  Uiso   1.00
C619   C     0.60938   0.39717   0.24258   0.00000  Uiso   1.00
C620   C     0.64171   0.38687   0.26008   0.00000  Uiso   1.00
C621   C     0.66254   0.28746   0.23696   0.00000  Uiso   1.00
H622   H     0.55330   0.27337   0.15973   0.00000  Uiso   1.00
H623   H     0.53920   0.49893   0.10621   0.00000  Uiso   1.00
H624   H     0.50718   0.15177   0.21216   0.00000  Uiso   1.00
H625   H     0.61040   0.14531   0.14988   0.00000  Uiso   1.00
H626   H     0.52846   0.78690   0.06416   0.00000  Uiso   1.00
H627   H     0.46096   0.05486   0.28758   0.00000  Uiso   1.00
H628   H     0.67861   0.04123   0.15625   0.00000  Uiso   1.00
H629   H     0.59114   0.56542   0.29296   0.00000  Uiso   1.00
H630   H     0.57912   0.80702   0.24675   0.00000  Uiso   1.00
H631   H     0.54710   0.45985   0.35270   0.00000  Uiso   1.00
H632   H     0.65032   0.45339   0.29042   0.00000  Uiso   1.00
H633   H     0.56086   0.03696   0.17823   0.00000  Uiso   1.00
H634   H     0.49336   0.30490   0.40165   0.00000  Uiso   1.00
H635   H     0.71101   0.29129   0.27032   0.00000  Uiso   1.00
O636   O     0.53605   0.06559   0.08840   0.00000  Uiso   1.00
O637   O     0.44750   0.10515   0.38151   0.00000  Uiso   1.00
O638   O     0.73306   0.08729   0.20921   0.00000  Uiso   1.00
N639   N     0.53774   0.81260   0.09735   0.00000  Uiso   1.00
N640   N     0.47463   0.12820   0.30622   0.00000  Uiso   1.00
N641   N     0.67811   0.11543   0.18345   0.00000  Uiso   1.00
N642   N     0.55517   0.94715   0.15873   0.00000  Uiso   1.00
N643   N     0.49206   0.26275   0.36760   0.00000  Uiso   1.00
N644   N     0.69555   0.24998   0.24483   0.00000  Uiso   1.00
C645   C     0.06197   0.84028   0.19025   0.00000  Uiso   1.00
C646   C     0.05956   0.00333   0.17965   0.00000  Uiso   1.00
C647   C     0.04781   0.06548   0.13654   0.00000  Uiso   1.00
C648   C     0.04760   0.21679   0.13402   0.00000  Uiso   1.00
C649   C     0.04214   0.45690   0.11160   0.00000  Uiso   1.00
C650   C     0.04216   0.81472   0.23721   0.00000  Uiso   1.00
C651   C     0.01579   0.71827   0.24251   0.00000  Uiso   1.00
C652   C     0.00093   0.71081   0.28845   0.00000  Uiso   1.00
C653   C     0.96848   0.65801   0.35541   0.00000  Uiso   1.00
C654   C     0.09824   0.81122   0.20337   0.00000  Uiso   1.00
C655   C     0.11902   0.71180   0.18022   0.00000  Uiso   1.00
C656   C     0.15138   0.70136   0.19768   0.00000  Uiso   1.00
C657   C     0.20600   0.64313   0.21209   0.00000  Uiso   1.00
C658   C     0.08247   0.99851   0.26244   0.00000  Uiso   1.00
C659   C     0.07069   0.08927   0.21886   0.00000  Uiso   1.00
C660   C     0.07050   0.24054   0.21640   0.00000  Uiso   1.00
C661   C     0.05876   0.30289   0.17330   0.00000  Uiso   1.00
C662   C     0.05329   0.90066   0.27642   0.00000  Uiso   1.00
C663   C     0.03847   0.89333   0.32237   0.00000  Uiso   1.00
C664   C     0.01209   0.79690   0.32773   0.00000  Uiso   1.00
C665   C     0.10938   0.89717   0.24258   0.00000  Uiso   1.00
C666   C     0.14171   0.88687   0.26008   0.00000  Uiso   1.00
C667   C     0.16254   0.78746   0.23696   0.00000  Uiso   1.00
H668   H     0.05330   0.77337   0.15973   0.00000  Uiso   1.00
H669   H     0.03920   0.99893   0.10621   0.00000  Uiso   1.00
H670   H     0.00718   0.65177   0.21216   0.00000  Uiso   1.00
H671   H     0.11040   0.64531   0.14988   0.00000  Uiso   1.00
H672   H     0.02846   0.28690   0.06416   0.00000  Uiso   1.00
H673   H     0.96096   0.55486   0.28758   0.00000  Uiso   1.00
H674   H     0.17861   0.54123   0.15625   0.00000  Uiso   1.00
H675   H     0.09114   0.06542   0.29296   0.00000  Uiso   1.00
H676   H     0.07912   0.30702   0.24675   0.00000  Uiso   1.00
H677   H     0.04710   0.95985   0.35270   0.00000  Uiso   1.00
H678   H     0.15032   0.95339   0.29042   0.00000  Uiso   1.00
H679   H     0.06086   0.53696   0.17823   0.00000  Uiso   1.00
H680   H     0.99336   0.80490   0.40165   0.00000  Uiso   1.00
H681   H     0.21101   0.79129   0.27032   0.00000  Uiso   1.00
O682   O     0.03605   0.56559   0.08840   0.00000  Uiso   1.00
O683   O     0.94750   0.60515   0.38151   0.00000  Uiso   1.00
O684   O     0.23306   0.58729   0.20921   0.00000  Uiso   1.00
N685   N     0.03774   0.31260   0.09735   0.00000  Uiso   1.00
N686   N     0.97463   0.62820   0.30622   0.00000  Uiso   1.00
N687   N     0.17811   0.61543   0.18345   0.00000  Uiso   1.00
N688   N     0.05517   0.44715   0.15873   0.00000  Uiso   1.00
N689   N     0.99206   0.76275   0.36760   0.00000  Uiso   1.00
N690   N     0.19555   0.74998   0.24483   0.00000  Uiso   1.00
C691   C     0.06197   0.34028   0.69025   0.00000  Uiso   1.00
C692   C     0.05956   0.50333   0.67965   0.00000  Uiso   1.00
C693   C     0.04781   0.56548   0.63654   0.00000  Uiso   1.00
C694   C     0.04760   0.71679   0.63402   0.00000  Uiso   1.00
C695   C     0.04214   0.95690   0.61160   0.00000  Uiso   1.00
C696   C     0.04216   0.31472   0.73721   0.00000  Uiso   1.00
C697   C     0.01579   0.21827   0.74251   0.00000  Uiso   1.00
C698   C     0.00093   0.21081   0.78845   0.00000  Uiso   1.00
C699   C     0.96848   0.15801   0.85541   0.00000  Uiso   1.00
C700   C     0.09824   0.31122   0.70337   0.00000  Uiso   1.00
C701   C     0.11902   0.21180   0.68022   0.00000  Uiso   1.00
C702   C     0.15138   0.20136   0.69768   0.00000  Uiso   1.00
C703   C     0.20600   0.14313   0.71209   0.00000  Uiso   1.00
C704   C     0.08247   0.49851   0.76244   0.00000  Uiso   1.00
C705   C     0.07069   0.58927   0.71886   0.00000  Uiso   1.00
C706   C     0.07050   0.74054   0.71640   0.00000  Uiso   1.00
C707   C     0.05876   0.80289   0.67330   0.00000  Uiso   1.00
C708   C     0.05329   0.40066   0.77642   0.00000  Uiso   1.00
C709   C     0.03847   0.39333   0.82237   0.00000  Uiso   1.00
C710   C     0.01209   0.29690   0.82773   0.00000  Uiso   1.00
C711   C     0.10938   0.39717   0.74258   0.00000  Uiso   1.00
C712   C     0.14171   0.38687   0.76008   0.00000  Uiso   1.00
C713   C     0.16254   0.28746   0.73696   0.00000  Uiso   1.00
H714   H     0.05330   0.27337   0.65973   0.00000  Uiso   1.00
H715   H     0.03920   0.49893   0.60621   0.00000  Uiso   1.00
H716   H     0.00718   0.15177   0.71216   0.00000  Uiso   1.00
H717   H     0.11040   0.14531   0.64988   0.00000  Uiso   1.00
H718   H     0.02846   0.78690   0.56416   0.00000  Uiso   1.00
H719   H     0.96096   0.05486   0.78758   0.00000  Uiso   1.00
H720   H     0.17861   0.04123   0.65625   0.00000  Uiso   1.00
H721   H     0.09114   0.56542   0.79296   0.00000  Uiso   1.00
H722   H     0.07912   0.80702   0.74675   0.00000  Uiso   1.00
H723   H     0.04710   0.45985   0.85270   0.00000  Uiso   1.00
H724   H     0.15032   0.45339   0.79042   0.00000  Uiso   1.00
H725   H     0.06086   0.03696   0.67823   0.00000  Uiso   1.00
H726   H     0.99336   0.30490   0.90165   0.00000  Uiso   1.00
H727   H     0.21101   0.29129   0.77032   0.00000  Uiso   1.00
O728   O     0.03605   0.06559   0.58840   0.00000  Uiso   1.00
O729   O     0.94750   0.10515   0.88151   0.00000  Uiso   1.00
O730   O     0.23306   0.08729   0.70921   0.00000  Uiso   1.00
N731   N     0.03774   0.81260   0.59735   0.00000  Uiso   1.00
N732   N     0.97463   0.12820   0.80622   0.00000  Uiso   1.00
N733   N     0.17811   0.11543   0.68345   0.00000  Uiso   1.00
N734   N     0.05517   0.94715   0.65873   0.00000  Uiso   1.00
N735   N     0.99206   0.26275   0.86760   0.00000  Uiso   1.00
N736   N     0.19555   0.24998   0.74483   0.00000  Uiso   1.00
