data_job_01334
_audit_creation_date              2018-12-19
_audit_creation_method            'Materials Studio'
_symmetry_space_group_name_H-M    'P1'
_symmetry_Int_Tables_number       1
_symmetry_cell_setting            triclinic
loop_
_symmetry_equiv_pos_as_xyz
  x,y,z
_cell_length_a                    30.1417
_cell_length_b                    30.1417
_cell_length_c                    13.8767
_cell_angle_alpha                 90.0000
_cell_angle_beta                  90.0000
_cell_angle_gamma                 90.0000
loop_
_atom_site_label
_atom_site_type_symbol
_atom_site_fract_x
_atom_site_fract_y
_atom_site_fract_z
_atom_site_U_iso_or_equiv
_atom_site_adp_type
_atom_site_occupancy
C1     C     0.16273   0.54519   0.33240   0.00000  Uiso   1.00
C2     C     0.20823   0.53366   0.37340   0.00000  Uiso   1.00
C3     C     0.24614   0.52497   0.31990   0.00000  Uiso   1.00
C4     C     0.28451   0.51506   0.37091   0.00000  Uiso   1.00
C5     C     0.35510   0.49731   0.41923   0.00000  Uiso   1.00
C6     C     0.13065   0.51097   0.37357   0.00000  Uiso   1.00
C7     C     0.10334   0.48321   0.32020   0.00000  Uiso   1.00
C8     C     0.07639   0.45421   0.37136   0.00000  Uiso   1.00
C9     C     0.02651   0.40125   0.41993   0.00000  Uiso   1.00
C10    C     0.14979   0.58947   0.37751   0.00000  Uiso   1.00
C11    C     0.13856   0.62772   0.32746   0.00000  Uiso   1.00
C12    C     0.12773   0.66481   0.38194   0.00000  Uiso   1.00
C13    C     0.10757   0.73374   0.43664   0.00000  Uiso   1.00
C14    C     0.16344   0.54304   0.51813   0.00000  Uiso   1.00
C15    C     0.20861   0.53249   0.47429   0.00000  Uiso   1.00
C16    C     0.24693   0.52259   0.52539   0.00000  Uiso   1.00
C17    C     0.28490   0.51389   0.47198   0.00000  Uiso   1.00
C18    C     0.13104   0.50980   0.47445   0.00000  Uiso   1.00
C19    C     0.10412   0.48083   0.52570   0.00000  Uiso   1.00
C20    C     0.07678   0.45304   0.47242   0.00000  Uiso   1.00
C21    C     0.15018   0.58831   0.47839   0.00000  Uiso   1.00
C22    C     0.13936   0.62534   0.53296   0.00000  Uiso   1.00
C23    C     0.12811   0.66364   0.48300   0.00000  Uiso   1.00
H24    H     0.16243   0.54610   0.25386   0.00000  Uiso   1.00
H25    H     0.24583   0.52588   0.24183   0.00000  Uiso   1.00
H26    H     0.10304   0.48413   0.24213   0.00000  Uiso   1.00
H27    H     0.13827   0.62862   0.24939   0.00000  Uiso   1.00
H28    H     0.33847   0.50292   0.27298   0.00000  Uiso   1.00
H29    H     0.03738   0.41490   0.27362   0.00000  Uiso   1.00
H30    H     0.11166   0.71958   0.28893   0.00000  Uiso   1.00
H31    H     0.16374   0.54213   0.59668   0.00000  Uiso   1.00
H32    H     0.24722   0.52169   0.60346   0.00000  Uiso   1.00
H33    H     0.10443   0.47994   0.60377   0.00000  Uiso   1.00
H34    H     0.13966   0.62443   0.61103   0.00000  Uiso   1.00
H35    H     0.33960   0.49952   0.56650   0.00000  Uiso   1.00
H36    H     0.03850   0.41150   0.56714   0.00000  Uiso   1.00
H37    H     0.11279   0.71618   0.58245   0.00000  Uiso   1.00
O38    O     0.39392   0.48783   0.41801   0.00000  Uiso   1.00
O39    O     0.99890   0.37236   0.41885   0.00000  Uiso   1.00
O40    O     0.09635   0.77209   0.43894   0.00000  Uiso   1.00
N41    N     0.32728   0.50494   0.34113   0.00000  Uiso   1.00
N42    N     0.04578   0.42264   0.34173   0.00000  Uiso   1.00
N43    N     0.11522   0.70748   0.35604   0.00000  Uiso   1.00
N44    N     0.32789   0.50311   0.49907   0.00000  Uiso   1.00
N45    N     0.04639   0.42081   0.49967   0.00000  Uiso   1.00
N46    N     0.11582   0.70565   0.51398   0.00000  Uiso   1.00
C47    C     0.66273   0.04519   0.83240   0.00000  Uiso   1.00
C48    C     0.70823   0.03366   0.87340   0.00000  Uiso   1.00
C49    C     0.74614   0.02497   0.81990   0.00000  Uiso   1.00
C50    C     0.78451   0.01506   0.87091   0.00000  Uiso   1.00
C51    C     0.85510   0.99731   0.91923   0.00000  Uiso   1.00
C52    C     0.63065   0.01097   0.87357   0.00000  Uiso   1.00
C53    C     0.60334   0.98321   0.82020   0.00000  Uiso   1.00
C54    C     0.57639   0.95421   0.87136   0.00000  Uiso   1.00
C55    C     0.52651   0.90125   0.91993   0.00000  Uiso   1.00
C56    C     0.64979   0.08947   0.87751   0.00000  Uiso   1.00
C57    C     0.63856   0.12772   0.82746   0.00000  Uiso   1.00
C58    C     0.62773   0.16481   0.88194   0.00000  Uiso   1.00
C59    C     0.60757   0.23374   0.93664   0.00000  Uiso   1.00
C60    C     0.66344   0.04304   0.01813   0.00000  Uiso   1.00
C61    C     0.70861   0.03249   0.97429   0.00000  Uiso   1.00
C62    C     0.74693   0.02259   0.02539   0.00000  Uiso   1.00
C63    C     0.78490   0.01389   0.97198   0.00000  Uiso   1.00
C64    C     0.63104   0.00980   0.97445   0.00000  Uiso   1.00
C65    C     0.60412   0.98083   0.02570   0.00000  Uiso   1.00
C66    C     0.57678   0.95304   0.97242   0.00000  Uiso   1.00
C67    C     0.65018   0.08831   0.97839   0.00000  Uiso   1.00
C68    C     0.63936   0.12534   0.03296   0.00000  Uiso   1.00
C69    C     0.62811   0.16364   0.98300   0.00000  Uiso   1.00
H70    H     0.66243   0.04610   0.75386   0.00000  Uiso   1.00
H71    H     0.74583   0.02588   0.74183   0.00000  Uiso   1.00
H72    H     0.60304   0.98413   0.74213   0.00000  Uiso   1.00
H73    H     0.63827   0.12862   0.74939   0.00000  Uiso   1.00
H74    H     0.83847   0.00292   0.77298   0.00000  Uiso   1.00
H75    H     0.53738   0.91490   0.77362   0.00000  Uiso   1.00
H76    H     0.61166   0.21958   0.78893   0.00000  Uiso   1.00
H77    H     0.66374   0.04213   0.09668   0.00000  Uiso   1.00
H78    H     0.74722   0.02169   0.10346   0.00000  Uiso   1.00
H79    H     0.60443   0.97994   0.10377   0.00000  Uiso   1.00
H80    H     0.63966   0.12443   0.11103   0.00000  Uiso   1.00
H81    H     0.83960   0.99952   0.06650   0.00000  Uiso   1.00
H82    H     0.53850   0.91150   0.06714   0.00000  Uiso   1.00
H83    H     0.61279   0.21618   0.08245   0.00000  Uiso   1.00
O84    O     0.89392   0.98783   0.91801   0.00000  Uiso   1.00
O85    O     0.49890   0.87236   0.91885   0.00000  Uiso   1.00
O86    O     0.59635   0.27209   0.93894   0.00000  Uiso   1.00
N87    N     0.82728   0.00494   0.84113   0.00000  Uiso   1.00
N88    N     0.54578   0.92264   0.84173   0.00000  Uiso   1.00
N89    N     0.61522   0.20748   0.85604   0.00000  Uiso   1.00
N90    N     0.82789   0.00311   0.99907   0.00000  Uiso   1.00
N91    N     0.54639   0.92081   0.99967   0.00000  Uiso   1.00
N92    N     0.61582   0.20565   0.01398   0.00000  Uiso   1.00
C93    C     0.33727   0.95481   0.83240   0.00000  Uiso   1.00
C94    C     0.29177   0.96634   0.87340   0.00000  Uiso   1.00
C95    C     0.25386   0.97503   0.81990   0.00000  Uiso   1.00
C96    C     0.21549   0.98494   0.87091   0.00000  Uiso   1.00
C97    C     0.14490   0.00269   0.91923   0.00000  Uiso   1.00
C98    C     0.36935   0.98903   0.87357   0.00000  Uiso   1.00
C99    C     0.39666   0.01679   0.82020   0.00000  Uiso   1.00
C100   C     0.42361   0.04579   0.87136   0.00000  Uiso   1.00
C101   C     0.47349   0.09875   0.91993   0.00000  Uiso   1.00
C102   C     0.35021   0.91053   0.87751   0.00000  Uiso   1.00
C103   C     0.36144   0.87228   0.82746   0.00000  Uiso   1.00
C104   C     0.37227   0.83519   0.88194   0.00000  Uiso   1.00
C105   C     0.39243   0.76626   0.93664   0.00000  Uiso   1.00
C106   C     0.33656   0.95696   0.01813   0.00000  Uiso   1.00
C107   C     0.29139   0.96751   0.97429   0.00000  Uiso   1.00
C108   C     0.25307   0.97741   0.02539   0.00000  Uiso   1.00
C109   C     0.21510   0.98611   0.97198   0.00000  Uiso   1.00
C110   C     0.36896   0.99020   0.97445   0.00000  Uiso   1.00
C111   C     0.39588   0.01917   0.02570   0.00000  Uiso   1.00
C112   C     0.42322   0.04696   0.97242   0.00000  Uiso   1.00
C113   C     0.34982   0.91169   0.97839   0.00000  Uiso   1.00
C114   C     0.36064   0.87466   0.03296   0.00000  Uiso   1.00
C115   C     0.37189   0.83636   0.98300   0.00000  Uiso   1.00
H116   H     0.33757   0.95390   0.75386   0.00000  Uiso   1.00
H117   H     0.25417   0.97412   0.74183   0.00000  Uiso   1.00
H118   H     0.39696   0.01587   0.74213   0.00000  Uiso   1.00
H119   H     0.36173   0.87138   0.74939   0.00000  Uiso   1.00
H120   H     0.16153   0.99708   0.77298   0.00000  Uiso   1.00
H121   H     0.46262   0.08510   0.77362   0.00000  Uiso   1.00
H122   H     0.38834   0.78042   0.78893   0.00000  Uiso   1.00
H123   H     0.33626   0.95787   0.09668   0.00000  Uiso   1.00
H124   H     0.25278   0.97831   0.10346   0.00000  Uiso   1.00
H125   H     0.39557   0.02006   0.10377   0.00000  Uiso   1.00
H126   H     0.36034   0.87557   0.11103   0.00000  Uiso   1.00
H127   H     0.16040   0.00048   0.06650   0.00000  Uiso   1.00
H128   H     0.46150   0.08850   0.06714   0.00000  Uiso   1.00
H129   H     0.38721   0.78382   0.08245   0.00000  Uiso   1.00
O130   O     0.10608   0.01217   0.91801   0.00000  Uiso   1.00
O131   O     0.50110   0.12764   0.91885   0.00000  Uiso   1.00
O132   O     0.40365   0.72791   0.93894   0.00000  Uiso   1.00
N133   N     0.17272   0.99506   0.84113   0.00000  Uiso   1.00
N134   N     0.45422   0.07736   0.84173   0.00000  Uiso   1.00
N135   N     0.38478   0.79252   0.85604   0.00000  Uiso   1.00
N136   N     0.17211   0.99689   0.99907   0.00000  Uiso   1.00
N137   N     0.45361   0.07919   0.99967   0.00000  Uiso   1.00
N138   N     0.38418   0.79435   0.01398   0.00000  Uiso   1.00
C139   C     0.83727   0.45481   0.33240   0.00000  Uiso   1.00
C140   C     0.79177   0.46634   0.37340   0.00000  Uiso   1.00
C141   C     0.75386   0.47503   0.31990   0.00000  Uiso   1.00
C142   C     0.71549   0.48494   0.37091   0.00000  Uiso   1.00
C143   C     0.64490   0.50269   0.41923   0.00000  Uiso   1.00
C144   C     0.86935   0.48903   0.37357   0.00000  Uiso   1.00
C145   C     0.89666   0.51679   0.32020   0.00000  Uiso   1.00
C146   C     0.92361   0.54579   0.37136   0.00000  Uiso   1.00
C147   C     0.97349   0.59875   0.41993   0.00000  Uiso   1.00
C148   C     0.85021   0.41053   0.37751   0.00000  Uiso   1.00
C149   C     0.86144   0.37228   0.32746   0.00000  Uiso   1.00
C150   C     0.87227   0.33519   0.38194   0.00000  Uiso   1.00
C151   C     0.89243   0.26626   0.43664   0.00000  Uiso   1.00
C152   C     0.83656   0.45696   0.51813   0.00000  Uiso   1.00
C153   C     0.79139   0.46751   0.47429   0.00000  Uiso   1.00
C154   C     0.75307   0.47741   0.52539   0.00000  Uiso   1.00
C155   C     0.71510   0.48611   0.47198   0.00000  Uiso   1.00
C156   C     0.86896   0.49020   0.47445   0.00000  Uiso   1.00
C157   C     0.89588   0.51917   0.52570   0.00000  Uiso   1.00
C158   C     0.92322   0.54696   0.47242   0.00000  Uiso   1.00
C159   C     0.84982   0.41169   0.47839   0.00000  Uiso   1.00
C160   C     0.86064   0.37466   0.53296   0.00000  Uiso   1.00
C161   C     0.87189   0.33636   0.48300   0.00000  Uiso   1.00
H162   H     0.83757   0.45390   0.25386   0.00000  Uiso   1.00
H163   H     0.75417   0.47412   0.24183   0.00000  Uiso   1.00
H164   H     0.89696   0.51587   0.24213   0.00000  Uiso   1.00
H165   H     0.86173   0.37138   0.24939   0.00000  Uiso   1.00
H166   H     0.66153   0.49708   0.27298   0.00000  Uiso   1.00
H167   H     0.96262   0.58510   0.27362   0.00000  Uiso   1.00
H168   H     0.88834   0.28042   0.28893   0.00000  Uiso   1.00
H169   H     0.83626   0.45787   0.59668   0.00000  Uiso   1.00
H170   H     0.75278   0.47831   0.60346   0.00000  Uiso   1.00
H171   H     0.89557   0.52006   0.60377   0.00000  Uiso   1.00
H172   H     0.86034   0.37557   0.61103   0.00000  Uiso   1.00
H173   H     0.66040   0.50048   0.56650   0.00000  Uiso   1.00
H174   H     0.96150   0.58850   0.56714   0.00000  Uiso   1.00
H175   H     0.88721   0.28382   0.58245   0.00000  Uiso   1.00
O176   O     0.60608   0.51217   0.41801   0.00000  Uiso   1.00
O177   O     0.00110   0.62764   0.41885   0.00000  Uiso   1.00
O178   O     0.90365   0.22791   0.43894   0.00000  Uiso   1.00
N179   N     0.67272   0.49506   0.34113   0.00000  Uiso   1.00
N180   N     0.95422   0.57736   0.34173   0.00000  Uiso   1.00
N181   N     0.88478   0.29252   0.35604   0.00000  Uiso   1.00
N182   N     0.67211   0.49689   0.49907   0.00000  Uiso   1.00
N183   N     0.95361   0.57919   0.49967   0.00000  Uiso   1.00
N184   N     0.88418   0.29435   0.51398   0.00000  Uiso   1.00
C185   C     0.45481   0.66273   0.58240   0.00000  Uiso   1.00
C186   C     0.46634   0.70823   0.62340   0.00000  Uiso   1.00
C187   C     0.47503   0.74614   0.56990   0.00000  Uiso   1.00
C188   C     0.48494   0.78451   0.62091   0.00000  Uiso   1.00
C189   C     0.50269   0.85510   0.66923   0.00000  Uiso   1.00
C190   C     0.48903   0.63065   0.62357   0.00000  Uiso   1.00
C191   C     0.51679   0.60334   0.57020   0.00000  Uiso   1.00
C192   C     0.54579   0.57639   0.62136   0.00000  Uiso   1.00
C193   C     0.59875   0.52651   0.66993   0.00000  Uiso   1.00
C194   C     0.41053   0.64979   0.62751   0.00000  Uiso   1.00
C195   C     0.37228   0.63856   0.57746   0.00000  Uiso   1.00
C196   C     0.33519   0.62773   0.63194   0.00000  Uiso   1.00
C197   C     0.26626   0.60757   0.68664   0.00000  Uiso   1.00
C198   C     0.45696   0.66344   0.76813   0.00000  Uiso   1.00
C199   C     0.46751   0.70861   0.72429   0.00000  Uiso   1.00
C200   C     0.47741   0.74693   0.77539   0.00000  Uiso   1.00
C201   C     0.48611   0.78490   0.72198   0.00000  Uiso   1.00
C202   C     0.49020   0.63104   0.72445   0.00000  Uiso   1.00
C203   C     0.51917   0.60412   0.77570   0.00000  Uiso   1.00
C204   C     0.54696   0.57678   0.72242   0.00000  Uiso   1.00
C205   C     0.41169   0.65018   0.72839   0.00000  Uiso   1.00
C206   C     0.37466   0.63936   0.78296   0.00000  Uiso   1.00
C207   C     0.33636   0.62811   0.73300   0.00000  Uiso   1.00
H208   H     0.45390   0.66243   0.50386   0.00000  Uiso   1.00
H209   H     0.47412   0.74583   0.49183   0.00000  Uiso   1.00
H210   H     0.51587   0.60304   0.49213   0.00000  Uiso   1.00
H211   H     0.37138   0.63827   0.49939   0.00000  Uiso   1.00
H212   H     0.49708   0.83847   0.52298   0.00000  Uiso   1.00
H213   H     0.58510   0.53738   0.52362   0.00000  Uiso   1.00
H214   H     0.28042   0.61166   0.53893   0.00000  Uiso   1.00
H215   H     0.45787   0.66374   0.84668   0.00000  Uiso   1.00
H216   H     0.47831   0.74722   0.85346   0.00000  Uiso   1.00
H217   H     0.52006   0.60443   0.85377   0.00000  Uiso   1.00
H218   H     0.37557   0.63966   0.86103   0.00000  Uiso   1.00
H219   H     0.50048   0.83960   0.81650   0.00000  Uiso   1.00
H220   H     0.58850   0.53850   0.81714   0.00000  Uiso   1.00
H221   H     0.28382   0.61279   0.83245   0.00000  Uiso   1.00
O222   O     0.51217   0.89392   0.66801   0.00000  Uiso   1.00
O223   O     0.62764   0.49890   0.66885   0.00000  Uiso   1.00
O224   O     0.22791   0.59635   0.68894   0.00000  Uiso   1.00
N225   N     0.49506   0.82728   0.59113   0.00000  Uiso   1.00
N226   N     0.57736   0.54578   0.59173   0.00000  Uiso   1.00
N227   N     0.29252   0.61522   0.60604   0.00000  Uiso   1.00
N228   N     0.49689   0.82789   0.74907   0.00000  Uiso   1.00
N229   N     0.57919   0.54639   0.74967   0.00000  Uiso   1.00
N230   N     0.29435   0.61582   0.76398   0.00000  Uiso   1.00
C231   C     0.95481   0.16273   0.08240   0.00000  Uiso   1.00
C232   C     0.96634   0.20823   0.12340   0.00000  Uiso   1.00
C233   C     0.97503   0.24614   0.06990   0.00000  Uiso   1.00
C234   C     0.98494   0.28451   0.12091   0.00000  Uiso   1.00
C235   C     0.00269   0.35510   0.16923   0.00000  Uiso   1.00
C236   C     0.98903   0.13065   0.12357   0.00000  Uiso   1.00
C237   C     0.01679   0.10334   0.07020   0.00000  Uiso   1.00
C238   C     0.04579   0.07639   0.12136   0.00000  Uiso   1.00
C239   C     0.09875   0.02651   0.16993   0.00000  Uiso   1.00
C240   C     0.91053   0.14979   0.12751   0.00000  Uiso   1.00
C241   C     0.87228   0.13856   0.07746   0.00000  Uiso   1.00
C242   C     0.83519   0.12773   0.13194   0.00000  Uiso   1.00
C243   C     0.76626   0.10757   0.18664   0.00000  Uiso   1.00
C244   C     0.95696   0.16344   0.26813   0.00000  Uiso   1.00
C245   C     0.96751   0.20861   0.22429   0.00000  Uiso   1.00
C246   C     0.97741   0.24693   0.27539   0.00000  Uiso   1.00
C247   C     0.98611   0.28490   0.22198   0.00000  Uiso   1.00
C248   C     0.99020   0.13104   0.22445   0.00000  Uiso   1.00
C249   C     0.01917   0.10412   0.27570   0.00000  Uiso   1.00
C250   C     0.04696   0.07678   0.22242   0.00000  Uiso   1.00
C251   C     0.91169   0.15018   0.22839   0.00000  Uiso   1.00
C252   C     0.87466   0.13936   0.28296   0.00000  Uiso   1.00
C253   C     0.83636   0.12811   0.23300   0.00000  Uiso   1.00
H254   H     0.95390   0.16243   0.00386   0.00000  Uiso   1.00
H255   H     0.97412   0.24583   0.99183   0.00000  Uiso   1.00
H256   H     0.01587   0.10304   0.99213   0.00000  Uiso   1.00
H257   H     0.87138   0.13827   0.99939   0.00000  Uiso   1.00
H258   H     0.99708   0.33847   0.02298   0.00000  Uiso   1.00
H259   H     0.08510   0.03738   0.02362   0.00000  Uiso   1.00
H260   H     0.78042   0.11166   0.03893   0.00000  Uiso   1.00
H261   H     0.95787   0.16374   0.34668   0.00000  Uiso   1.00
H262   H     0.97831   0.24722   0.35346   0.00000  Uiso   1.00
H263   H     0.02006   0.10443   0.35377   0.00000  Uiso   1.00
H264   H     0.87557   0.13966   0.36103   0.00000  Uiso   1.00
H265   H     0.00048   0.33960   0.31650   0.00000  Uiso   1.00
H266   H     0.08850   0.03850   0.31714   0.00000  Uiso   1.00
H267   H     0.78382   0.11279   0.33245   0.00000  Uiso   1.00
O268   O     0.01217   0.39392   0.16801   0.00000  Uiso   1.00
O269   O     0.12764   0.99890   0.16885   0.00000  Uiso   1.00
O270   O     0.72791   0.09635   0.18894   0.00000  Uiso   1.00
N271   N     0.99506   0.32728   0.09113   0.00000  Uiso   1.00
N272   N     0.07736   0.04578   0.09173   0.00000  Uiso   1.00
N273   N     0.79252   0.11522   0.10604   0.00000  Uiso   1.00
N274   N     0.99689   0.32789   0.24907   0.00000  Uiso   1.00
N275   N     0.07919   0.04639   0.24967   0.00000  Uiso   1.00
N276   N     0.79435   0.11582   0.26398   0.00000  Uiso   1.00
C277   C     0.04519   0.83727   0.08240   0.00000  Uiso   1.00
C278   C     0.03366   0.79177   0.12340   0.00000  Uiso   1.00
C279   C     0.02497   0.75386   0.06990   0.00000  Uiso   1.00
C280   C     0.01506   0.71549   0.12091   0.00000  Uiso   1.00
C281   C     0.99731   0.64490   0.16923   0.00000  Uiso   1.00
C282   C     0.01097   0.86935   0.12357   0.00000  Uiso   1.00
C283   C     0.98321   0.89666   0.07020   0.00000  Uiso   1.00
C284   C     0.95421   0.92361   0.12136   0.00000  Uiso   1.00
C285   C     0.90125   0.97349   0.16993   0.00000  Uiso   1.00
C286   C     0.08947   0.85021   0.12751   0.00000  Uiso   1.00
C287   C     0.12772   0.86144   0.07746   0.00000  Uiso   1.00
C288   C     0.16481   0.87227   0.13194   0.00000  Uiso   1.00
C289   C     0.23374   0.89243   0.18664   0.00000  Uiso   1.00
C290   C     0.04304   0.83656   0.26813   0.00000  Uiso   1.00
C291   C     0.03249   0.79139   0.22429   0.00000  Uiso   1.00
C292   C     0.02259   0.75307   0.27539   0.00000  Uiso   1.00
C293   C     0.01389   0.71510   0.22198   0.00000  Uiso   1.00
C294   C     0.00980   0.86896   0.22445   0.00000  Uiso   1.00
C295   C     0.98083   0.89588   0.27570   0.00000  Uiso   1.00
C296   C     0.95304   0.92322   0.22242   0.00000  Uiso   1.00
C297   C     0.08831   0.84982   0.22839   0.00000  Uiso   1.00
C298   C     0.12534   0.86064   0.28296   0.00000  Uiso   1.00
C299   C     0.16364   0.87189   0.23300   0.00000  Uiso   1.00
H300   H     0.04610   0.83757   0.00386   0.00000  Uiso   1.00
H301   H     0.02588   0.75417   0.99183   0.00000  Uiso   1.00
H302   H     0.98413   0.89696   0.99213   0.00000  Uiso   1.00
H303   H     0.12862   0.86173   0.99939   0.00000  Uiso   1.00
H304   H     0.00292   0.66153   0.02298   0.00000  Uiso   1.00
H305   H     0.91490   0.96262   0.02362   0.00000  Uiso   1.00
H306   H     0.21958   0.88834   0.03893   0.00000  Uiso   1.00
H307   H     0.04213   0.83626   0.34668   0.00000  Uiso   1.00
H308   H     0.02169   0.75278   0.35346   0.00000  Uiso   1.00
H309   H     0.97994   0.89557   0.35377   0.00000  Uiso   1.00
H310   H     0.12443   0.86034   0.36103   0.00000  Uiso   1.00
H311   H     0.99952   0.66040   0.31650   0.00000  Uiso   1.00
H312   H     0.91150   0.96150   0.31714   0.00000  Uiso   1.00
H313   H     0.21618   0.88721   0.33245   0.00000  Uiso   1.00
O314   O     0.98783   0.60608   0.16801   0.00000  Uiso   1.00
O315   O     0.87236   0.00110   0.16885   0.00000  Uiso   1.00
O316   O     0.27209   0.90365   0.18894   0.00000  Uiso   1.00
N317   N     0.00494   0.67272   0.09113   0.00000  Uiso   1.00
N318   N     0.92264   0.95422   0.09173   0.00000  Uiso   1.00
N319   N     0.20748   0.88478   0.10604   0.00000  Uiso   1.00
N320   N     0.00311   0.67211   0.24907   0.00000  Uiso   1.00
N321   N     0.92081   0.95361   0.24967   0.00000  Uiso   1.00
N322   N     0.20565   0.88418   0.26398   0.00000  Uiso   1.00
C323   C     0.54519   0.33727   0.58240   0.00000  Uiso   1.00
C324   C     0.53366   0.29177   0.62340   0.00000  Uiso   1.00
C325   C     0.52497   0.25386   0.56990   0.00000  Uiso   1.00
C326   C     0.51506   0.21549   0.62091   0.00000  Uiso   1.00
C327   C     0.49731   0.14490   0.66923   0.00000  Uiso   1.00
C328   C     0.51097   0.36935   0.62357   0.00000  Uiso   1.00
C329   C     0.48321   0.39666   0.57020   0.00000  Uiso   1.00
C330   C     0.45421   0.42361   0.62136   0.00000  Uiso   1.00
C331   C     0.40125   0.47349   0.66993   0.00000  Uiso   1.00
C332   C     0.58947   0.35021   0.62751   0.00000  Uiso   1.00
C333   C     0.62772   0.36144   0.57746   0.00000  Uiso   1.00
C334   C     0.66481   0.37227   0.63194   0.00000  Uiso   1.00
C335   C     0.73374   0.39243   0.68664   0.00000  Uiso   1.00
C336   C     0.54304   0.33656   0.76813   0.00000  Uiso   1.00
C337   C     0.53249   0.29139   0.72429   0.00000  Uiso   1.00
C338   C     0.52259   0.25307   0.77539   0.00000  Uiso   1.00
C339   C     0.51389   0.21510   0.72198   0.00000  Uiso   1.00
C340   C     0.50980   0.36896   0.72445   0.00000  Uiso   1.00
C341   C     0.48083   0.39588   0.77570   0.00000  Uiso   1.00
C342   C     0.45304   0.42322   0.72242   0.00000  Uiso   1.00
C343   C     0.58831   0.34982   0.72839   0.00000  Uiso   1.00
C344   C     0.62534   0.36064   0.78296   0.00000  Uiso   1.00
C345   C     0.66364   0.37189   0.73300   0.00000  Uiso   1.00
H346   H     0.54610   0.33757   0.50386   0.00000  Uiso   1.00
H347   H     0.52588   0.25417   0.49183   0.00000  Uiso   1.00
H348   H     0.48413   0.39696   0.49213   0.00000  Uiso   1.00
H349   H     0.62862   0.36173   0.49939   0.00000  Uiso   1.00
H350   H     0.50292   0.16153   0.52298   0.00000  Uiso   1.00
H351   H     0.41490   0.46262   0.52362   0.00000  Uiso   1.00
H352   H     0.71958   0.38834   0.53893   0.00000  Uiso   1.00
H353   H     0.54213   0.33626   0.84668   0.00000  Uiso   1.00
H354   H     0.52169   0.25278   0.85346   0.00000  Uiso   1.00
H355   H     0.47994   0.39557   0.85377   0.00000  Uiso   1.00
H356   H     0.62443   0.36034   0.86103   0.00000  Uiso   1.00
H357   H     0.49952   0.16040   0.81650   0.00000  Uiso   1.00
H358   H     0.41150   0.46150   0.81714   0.00000  Uiso   1.00
H359   H     0.71618   0.38721   0.83245   0.00000  Uiso   1.00
O360   O     0.48783   0.10608   0.66801   0.00000  Uiso   1.00
O361   O     0.37236   0.50110   0.66885   0.00000  Uiso   1.00
O362   O     0.77209   0.40365   0.68894   0.00000  Uiso   1.00
N363   N     0.50494   0.17272   0.59113   0.00000  Uiso   1.00
N364   N     0.42264   0.45422   0.59173   0.00000  Uiso   1.00
N365   N     0.70748   0.38478   0.60604   0.00000  Uiso   1.00
N366   N     0.50311   0.17211   0.74907   0.00000  Uiso   1.00
N367   N     0.42081   0.45361   0.74967   0.00000  Uiso   1.00
N368   N     0.70565   0.38418   0.76398   0.00000  Uiso   1.00
C369   C     0.16273   0.45481   0.83240   0.00000  Uiso   1.00
C370   C     0.20823   0.46634   0.87340   0.00000  Uiso   1.00
C371   C     0.24614   0.47503   0.81990   0.00000  Uiso   1.00
C372   C     0.28451   0.48494   0.87091   0.00000  Uiso   1.00
C373   C     0.35510   0.50269   0.91923   0.00000  Uiso   1.00
C374   C     0.13065   0.48903   0.87357   0.00000  Uiso   1.00
C375   C     0.10334   0.51679   0.82020   0.00000  Uiso   1.00
C376   C     0.07639   0.54579   0.87136   0.00000  Uiso   1.00
C377   C     0.02651   0.59875   0.91993   0.00000  Uiso   1.00
C378   C     0.14979   0.41053   0.87751   0.00000  Uiso   1.00
C379   C     0.13856   0.37228   0.82746   0.00000  Uiso   1.00
C380   C     0.12773   0.33519   0.88194   0.00000  Uiso   1.00
C381   C     0.10757   0.26626   0.93664   0.00000  Uiso   1.00
C382   C     0.16344   0.45696   0.01813   0.00000  Uiso   1.00
C383   C     0.20861   0.46751   0.97429   0.00000  Uiso   1.00
C384   C     0.24693   0.47741   0.02539   0.00000  Uiso   1.00
C385   C     0.28490   0.48611   0.97198   0.00000  Uiso   1.00
C386   C     0.13104   0.49020   0.97445   0.00000  Uiso   1.00
C387   C     0.10412   0.51917   0.02570   0.00000  Uiso   1.00
C388   C     0.07678   0.54696   0.97242   0.00000  Uiso   1.00
C389   C     0.15018   0.41169   0.97839   0.00000  Uiso   1.00
C390   C     0.13936   0.37466   0.03296   0.00000  Uiso   1.00
C391   C     0.12811   0.33636   0.98300   0.00000  Uiso   1.00
H392   H     0.16243   0.45390   0.75386   0.00000  Uiso   1.00
H393   H     0.24583   0.47412   0.74183   0.00000  Uiso   1.00
H394   H     0.10304   0.51587   0.74213   0.00000  Uiso   1.00
H395   H     0.13827   0.37138   0.74939   0.00000  Uiso   1.00
H396   H     0.33847   0.49708   0.77298   0.00000  Uiso   1.00
H397   H     0.03738   0.58510   0.77362   0.00000  Uiso   1.00
H398   H     0.11166   0.28042   0.78893   0.00000  Uiso   1.00
H399   H     0.16374   0.45787   0.09668   0.00000  Uiso   1.00
H400   H     0.24722   0.47831   0.10346   0.00000  Uiso   1.00
H401   H     0.10443   0.52006   0.10377   0.00000  Uiso   1.00
H402   H     0.13966   0.37557   0.11103   0.00000  Uiso   1.00
H403   H     0.33960   0.50048   0.06650   0.00000  Uiso   1.00
H404   H     0.03850   0.58850   0.06714   0.00000  Uiso   1.00
H405   H     0.11279   0.28382   0.08245   0.00000  Uiso   1.00
O406   O     0.39392   0.51217   0.91801   0.00000  Uiso   1.00
O407   O     0.99890   0.62764   0.91885   0.00000  Uiso   1.00
O408   O     0.09635   0.22791   0.93894   0.00000  Uiso   1.00
N409   N     0.32728   0.49506   0.84113   0.00000  Uiso   1.00
N410   N     0.04578   0.57736   0.84173   0.00000  Uiso   1.00
N411   N     0.11522   0.29252   0.85604   0.00000  Uiso   1.00
N412   N     0.32789   0.49689   0.99907   0.00000  Uiso   1.00
N413   N     0.04639   0.57919   0.99967   0.00000  Uiso   1.00
N414   N     0.11582   0.29435   0.01398   0.00000  Uiso   1.00
C415   C     0.66273   0.95481   0.33240   0.00000  Uiso   1.00
C416   C     0.70823   0.96634   0.37340   0.00000  Uiso   1.00
C417   C     0.74614   0.97503   0.31990   0.00000  Uiso   1.00
C418   C     0.78451   0.98494   0.37091   0.00000  Uiso   1.00
C419   C     0.85510   0.00269   0.41923   0.00000  Uiso   1.00
C420   C     0.63065   0.98903   0.37357   0.00000  Uiso   1.00
C421   C     0.60334   0.01679   0.32020   0.00000  Uiso   1.00
C422   C     0.57639   0.04579   0.37136   0.00000  Uiso   1.00
C423   C     0.52651   0.09875   0.41993   0.00000  Uiso   1.00
C424   C     0.64979   0.91053   0.37751   0.00000  Uiso   1.00
C425   C     0.63856   0.87228   0.32746   0.00000  Uiso   1.00
C426   C     0.62773   0.83519   0.38194   0.00000  Uiso   1.00
C427   C     0.60757   0.76626   0.43664   0.00000  Uiso   1.00
C428   C     0.66344   0.95696   0.51813   0.00000  Uiso   1.00
C429   C     0.70861   0.96751   0.47429   0.00000  Uiso   1.00
C430   C     0.74693   0.97741   0.52539   0.00000  Uiso   1.00
C431   C     0.78490   0.98611   0.47198   0.00000  Uiso   1.00
C432   C     0.63104   0.99020   0.47445   0.00000  Uiso   1.00
C433   C     0.60412   0.01917   0.52570   0.00000  Uiso   1.00
C434   C     0.57678   0.04696   0.47242   0.00000  Uiso   1.00
C435   C     0.65018   0.91169   0.47839   0.00000  Uiso   1.00
C436   C     0.63936   0.87466   0.53296   0.00000  Uiso   1.00
C437   C     0.62811   0.83636   0.48300   0.00000  Uiso   1.00
H438   H     0.66243   0.95390   0.25386   0.00000  Uiso   1.00
H439   H     0.74583   0.97412   0.24183   0.00000  Uiso   1.00
H440   H     0.60304   0.01587   0.24213   0.00000  Uiso   1.00
H441   H     0.63827   0.87138   0.24939   0.00000  Uiso   1.00
H442   H     0.83847   0.99708   0.27298   0.00000  Uiso   1.00
H443   H     0.53738   0.08510   0.27362   0.00000  Uiso   1.00
H444   H     0.61166   0.78042   0.28893   0.00000  Uiso   1.00
H445   H     0.66374   0.95787   0.59668   0.00000  Uiso   1.00
H446   H     0.74722   0.97831   0.60346   0.00000  Uiso   1.00
H447   H     0.60443   0.02006   0.60377   0.00000  Uiso   1.00
H448   H     0.63966   0.87557   0.61103   0.00000  Uiso   1.00
H449   H     0.83960   0.00048   0.56650   0.00000  Uiso   1.00
H450   H     0.53850   0.08850   0.56714   0.00000  Uiso   1.00
H451   H     0.61279   0.78382   0.58245   0.00000  Uiso   1.00
O452   O     0.89392   0.01217   0.41801   0.00000  Uiso   1.00
O453   O     0.49890   0.12764   0.41885   0.00000  Uiso   1.00
O454   O     0.59635   0.72791   0.43894   0.00000  Uiso   1.00
N455   N     0.82728   0.99506   0.34113   0.00000  Uiso   1.00
N456   N     0.54578   0.07736   0.34173   0.00000  Uiso   1.00
N457   N     0.61522   0.79252   0.35604   0.00000  Uiso   1.00
N458   N     0.82789   0.99689   0.49907   0.00000  Uiso   1.00
N459   N     0.54639   0.07919   0.49967   0.00000  Uiso   1.00
N460   N     0.61582   0.79435   0.51398   0.00000  Uiso   1.00
C461   C     0.33727   0.04519   0.33240   0.00000  Uiso   1.00
C462   C     0.29177   0.03366   0.37340   0.00000  Uiso   1.00
C463   C     0.25386   0.02497   0.31990   0.00000  Uiso   1.00
C464   C     0.21549   0.01506   0.37091   0.00000  Uiso   1.00
C465   C     0.14490   0.99731   0.41923   0.00000  Uiso   1.00
C466   C     0.36935   0.01097   0.37357   0.00000  Uiso   1.00
C467   C     0.39666   0.98321   0.32020   0.00000  Uiso   1.00
C468   C     0.42361   0.95421   0.37136   0.00000  Uiso   1.00
C469   C     0.47349   0.90125   0.41993   0.00000  Uiso   1.00
C470   C     0.35021   0.08947   0.37751   0.00000  Uiso   1.00
C471   C     0.36144   0.12772   0.32746   0.00000  Uiso   1.00
C472   C     0.37227   0.16481   0.38194   0.00000  Uiso   1.00
C473   C     0.39243   0.23374   0.43664   0.00000  Uiso   1.00
C474   C     0.33656   0.04304   0.51813   0.00000  Uiso   1.00
C475   C     0.29139   0.03249   0.47429   0.00000  Uiso   1.00
C476   C     0.25307   0.02259   0.52539   0.00000  Uiso   1.00
C477   C     0.21510   0.01389   0.47198   0.00000  Uiso   1.00
C478   C     0.36896   0.00980   0.47445   0.00000  Uiso   1.00
C479   C     0.39588   0.98083   0.52570   0.00000  Uiso   1.00
C480   C     0.42322   0.95304   0.47242   0.00000  Uiso   1.00
C481   C     0.34982   0.08831   0.47839   0.00000  Uiso   1.00
C482   C     0.36064   0.12534   0.53296   0.00000  Uiso   1.00
C483   C     0.37189   0.16364   0.48300   0.00000  Uiso   1.00
H484   H     0.33757   0.04610   0.25386   0.00000  Uiso   1.00
H485   H     0.25417   0.02588   0.24183   0.00000  Uiso   1.00
H486   H     0.39696   0.98413   0.24213   0.00000  Uiso   1.00
H487   H     0.36173   0.12862   0.24939   0.00000  Uiso   1.00
H488   H     0.16153   0.00292   0.27298   0.00000  Uiso   1.00
H489   H     0.46262   0.91490   0.27362   0.00000  Uiso   1.00
H490   H     0.38834   0.21958   0.28893   0.00000  Uiso   1.00
H491   H     0.33626   0.04213   0.59668   0.00000  Uiso   1.00
H492   H     0.25278   0.02169   0.60346   0.00000  Uiso   1.00
H493   H     0.39557   0.97994   0.60377   0.00000  Uiso   1.00
H494   H     0.36034   0.12443   0.61103   0.00000  Uiso   1.00
H495   H     0.16040   0.99952   0.56650   0.00000  Uiso   1.00
H496   H     0.46150   0.91150   0.56714   0.00000  Uiso   1.00
H497   H     0.38721   0.21618   0.58245   0.00000  Uiso   1.00
O498   O     0.10608   0.98783   0.41801   0.00000  Uiso   1.00
O499   O     0.50110   0.87236   0.41885   0.00000  Uiso   1.00
O500   O     0.40365   0.27209   0.43894   0.00000  Uiso   1.00
N501   N     0.17272   0.00494   0.34113   0.00000  Uiso   1.00
N502   N     0.45422   0.92264   0.34173   0.00000  Uiso   1.00
N503   N     0.38478   0.20748   0.35604   0.00000  Uiso   1.00
N504   N     0.17211   0.00311   0.49907   0.00000  Uiso   1.00
N505   N     0.45361   0.92081   0.49967   0.00000  Uiso   1.00
N506   N     0.38418   0.20565   0.51398   0.00000  Uiso   1.00
C507   C     0.83727   0.54519   0.83240   0.00000  Uiso   1.00
C508   C     0.79177   0.53366   0.87340   0.00000  Uiso   1.00
C509   C     0.75386   0.52497   0.81990   0.00000  Uiso   1.00
C510   C     0.71549   0.51506   0.87091   0.00000  Uiso   1.00
C511   C     0.64490   0.49731   0.91923   0.00000  Uiso   1.00
C512   C     0.86935   0.51097   0.87357   0.00000  Uiso   1.00
C513   C     0.89666   0.48321   0.82020   0.00000  Uiso   1.00
C514   C     0.92361   0.45421   0.87136   0.00000  Uiso   1.00
C515   C     0.97349   0.40125   0.91993   0.00000  Uiso   1.00
C516   C     0.85021   0.58947   0.87751   0.00000  Uiso   1.00
C517   C     0.86144   0.62772   0.82746   0.00000  Uiso   1.00
C518   C     0.87227   0.66481   0.88194   0.00000  Uiso   1.00
C519   C     0.89243   0.73374   0.93664   0.00000  Uiso   1.00
C520   C     0.83656   0.54304   0.01813   0.00000  Uiso   1.00
C521   C     0.79139   0.53249   0.97429   0.00000  Uiso   1.00
C522   C     0.75307   0.52259   0.02539   0.00000  Uiso   1.00
C523   C     0.71510   0.51389   0.97198   0.00000  Uiso   1.00
C524   C     0.86896   0.50980   0.97445   0.00000  Uiso   1.00
C525   C     0.89588   0.48083   0.02570   0.00000  Uiso   1.00
C526   C     0.92322   0.45304   0.97242   0.00000  Uiso   1.00
C527   C     0.84982   0.58831   0.97839   0.00000  Uiso   1.00
C528   C     0.86064   0.62534   0.03296   0.00000  Uiso   1.00
C529   C     0.87189   0.66364   0.98300   0.00000  Uiso   1.00
H530   H     0.83757   0.54610   0.75386   0.00000  Uiso   1.00
H531   H     0.75417   0.52588   0.74183   0.00000  Uiso   1.00
H532   H     0.89696   0.48413   0.74213   0.00000  Uiso   1.00
H533   H     0.86173   0.62862   0.74939   0.00000  Uiso   1.00
H534   H     0.66153   0.50292   0.77298   0.00000  Uiso   1.00
H535   H     0.96262   0.41490   0.77362   0.00000  Uiso   1.00
H536   H     0.88834   0.71958   0.78893   0.00000  Uiso   1.00
H537   H     0.83626   0.54213   0.09668   0.00000  Uiso   1.00
H538   H     0.75278   0.52169   0.10346   0.00000  Uiso   1.00
H539   H     0.89557   0.47994   0.10377   0.00000  Uiso   1.00
H540   H     0.86034   0.62443   0.11103   0.00000  Uiso   1.00
H541   H     0.66040   0.49952   0.06650   0.00000  Uiso   1.00
H542   H     0.96150   0.41150   0.06714   0.00000  Uiso   1.00
H543   H     0.88721   0.71618   0.08245   0.00000  Uiso   1.00
O544   O     0.60608   0.48783   0.91801   0.00000  Uiso   1.00
O545   O     0.00110   0.37236   0.91885   0.00000  Uiso   1.00
O546   O     0.90365   0.77209   0.93894   0.00000  Uiso   1.00
N547   N     0.67272   0.50494   0.84113   0.00000  Uiso   1.00
N548   N     0.95422   0.42264   0.84173   0.00000  Uiso   1.00
N549   N     0.88478   0.70748   0.85604   0.00000  Uiso   1.00
N550   N     0.67211   0.50311   0.99907   0.00000  Uiso   1.00
N551   N     0.95361   0.42081   0.99967   0.00000  Uiso   1.00
N552   N     0.88418   0.70565   0.01398   0.00000  Uiso   1.00
C553   C     0.45481   0.33727   0.08240   0.00000  Uiso   1.00
C554   C     0.46634   0.29177   0.12340   0.00000  Uiso   1.00
C555   C     0.47503   0.25386   0.06990   0.00000  Uiso   1.00
C556   C     0.48494   0.21549   0.12091   0.00000  Uiso   1.00
C557   C     0.50269   0.14490   0.16923   0.00000  Uiso   1.00
C558   C     0.48903   0.36935   0.12357   0.00000  Uiso   1.00
C559   C     0.51679   0.39666   0.07020   0.00000  Uiso   1.00
C560   C     0.54579   0.42361   0.12136   0.00000  Uiso   1.00
C561   C     0.59875   0.47349   0.16993   0.00000  Uiso   1.00
C562   C     0.41053   0.35021   0.12751   0.00000  Uiso   1.00
C563   C     0.37228   0.36144   0.07746   0.00000  Uiso   1.00
C564   C     0.33519   0.37227   0.13194   0.00000  Uiso   1.00
C565   C     0.26626   0.39243   0.18664   0.00000  Uiso   1.00
C566   C     0.45696   0.33656   0.26813   0.00000  Uiso   1.00
C567   C     0.46751   0.29139   0.22429   0.00000  Uiso   1.00
C568   C     0.47741   0.25307   0.27539   0.00000  Uiso   1.00
C569   C     0.48611   0.21510   0.22198   0.00000  Uiso   1.00
C570   C     0.49020   0.36896   0.22445   0.00000  Uiso   1.00
C571   C     0.51917   0.39588   0.27570   0.00000  Uiso   1.00
C572   C     0.54696   0.42322   0.22242   0.00000  Uiso   1.00
C573   C     0.41169   0.34982   0.22839   0.00000  Uiso   1.00
C574   C     0.37466   0.36064   0.28296   0.00000  Uiso   1.00
C575   C     0.33636   0.37189   0.23300   0.00000  Uiso   1.00
H576   H     0.45390   0.33757   0.00386   0.00000  Uiso   1.00
H577   H     0.47412   0.25417   0.99183   0.00000  Uiso   1.00
H578   H     0.51587   0.39696   0.99213   0.00000  Uiso   1.00
H579   H     0.37138   0.36173   0.99939   0.00000  Uiso   1.00
H580   H     0.49708   0.16153   0.02298   0.00000  Uiso   1.00
H581   H     0.58510   0.46262   0.02362   0.00000  Uiso   1.00
H582   H     0.28042   0.38834   0.03893   0.00000  Uiso   1.00
H583   H     0.45787   0.33626   0.34668   0.00000  Uiso   1.00
H584   H     0.47831   0.25278   0.35346   0.00000  Uiso   1.00
H585   H     0.52006   0.39557   0.35377   0.00000  Uiso   1.00
H586   H     0.37557   0.36034   0.36103   0.00000  Uiso   1.00
H587   H     0.50048   0.16040   0.31650   0.00000  Uiso   1.00
H588   H     0.58850   0.46150   0.31714   0.00000  Uiso   1.00
H589   H     0.28382   0.38721   0.33245   0.00000  Uiso   1.00
O590   O     0.51217   0.10608   0.16801   0.00000  Uiso   1.00
O591   O     0.62764   0.50110   0.16885   0.00000  Uiso   1.00
O592   O     0.22791   0.40365   0.18894   0.00000  Uiso   1.00
N593   N     0.49506   0.17272   0.09113   0.00000  Uiso   1.00
N594   N     0.57736   0.45422   0.09173   0.00000  Uiso   1.00
N595   N     0.29252   0.38478   0.10604   0.00000  Uiso   1.00
N596   N     0.49689   0.17211   0.24907   0.00000  Uiso   1.00
N597   N     0.57919   0.45361   0.24967   0.00000  Uiso   1.00
N598   N     0.29435   0.38418   0.26398   0.00000  Uiso   1.00
C599   C     0.95481   0.83727   0.58240   0.00000  Uiso   1.00
C600   C     0.96634   0.79177   0.62340   0.00000  Uiso   1.00
C601   C     0.97503   0.75386   0.56990   0.00000  Uiso   1.00
C602   C     0.98494   0.71549   0.62091   0.00000  Uiso   1.00
C603   C     0.00269   0.64490   0.66923   0.00000  Uiso   1.00
C604   C     0.98903   0.86935   0.62357   0.00000  Uiso   1.00
C605   C     0.01679   0.89666   0.57020   0.00000  Uiso   1.00
C606   C     0.04579   0.92361   0.62136   0.00000  Uiso   1.00
C607   C     0.09875   0.97349   0.66993   0.00000  Uiso   1.00
C608   C     0.91053   0.85021   0.62751   0.00000  Uiso   1.00
C609   C     0.87228   0.86144   0.57746   0.00000  Uiso   1.00
C610   C     0.83519   0.87227   0.63194   0.00000  Uiso   1.00
C611   C     0.76626   0.89243   0.68664   0.00000  Uiso   1.00
C612   C     0.95696   0.83656   0.76813   0.00000  Uiso   1.00
C613   C     0.96751   0.79139   0.72429   0.00000  Uiso   1.00
C614   C     0.97741   0.75307   0.77539   0.00000  Uiso   1.00
C615   C     0.98611   0.71510   0.72198   0.00000  Uiso   1.00
C616   C     0.99020   0.86896   0.72445   0.00000  Uiso   1.00
C617   C     0.01917   0.89588   0.77570   0.00000  Uiso   1.00
C618   C     0.04696   0.92322   0.72242   0.00000  Uiso   1.00
C619   C     0.91169   0.84982   0.72839   0.00000  Uiso   1.00
C620   C     0.87466   0.86064   0.78296   0.00000  Uiso   1.00
C621   C     0.83636   0.87189   0.73300   0.00000  Uiso   1.00
H622   H     0.95390   0.83757   0.50386   0.00000  Uiso   1.00
H623   H     0.97412   0.75417   0.49183   0.00000  Uiso   1.00
H624   H     0.01587   0.89696   0.49213   0.00000  Uiso   1.00
H625   H     0.87138   0.86173   0.49939   0.00000  Uiso   1.00
H626   H     0.99708   0.66153   0.52298   0.00000  Uiso   1.00
H627   H     0.08510   0.96262   0.52362   0.00000  Uiso   1.00
H628   H     0.78042   0.88834   0.53893   0.00000  Uiso   1.00
H629   H     0.95787   0.83626   0.84668   0.00000  Uiso   1.00
H630   H     0.97831   0.75278   0.85346   0.00000  Uiso   1.00
H631   H     0.02006   0.89557   0.85377   0.00000  Uiso   1.00
H632   H     0.87557   0.86034   0.86103   0.00000  Uiso   1.00
H633   H     0.00048   0.66040   0.81650   0.00000  Uiso   1.00
H634   H     0.08850   0.96150   0.81714   0.00000  Uiso   1.00
H635   H     0.78382   0.88721   0.83245   0.00000  Uiso   1.00
O636   O     0.01217   0.60608   0.66801   0.00000  Uiso   1.00
O637   O     0.12764   0.00110   0.66885   0.00000  Uiso   1.00
O638   O     0.72791   0.90365   0.68894   0.00000  Uiso   1.00
N639   N     0.99506   0.67272   0.59113   0.00000  Uiso   1.00
N640   N     0.07736   0.95422   0.59173   0.00000  Uiso   1.00
N641   N     0.79252   0.88478   0.60604   0.00000  Uiso   1.00
N642   N     0.99689   0.67211   0.74907   0.00000  Uiso   1.00
N643   N     0.07919   0.95361   0.74967   0.00000  Uiso   1.00
N644   N     0.79435   0.88418   0.76398   0.00000  Uiso   1.00
C645   C     0.04519   0.16273   0.58240   0.00000  Uiso   1.00
C646   C     0.03366   0.20823   0.62340   0.00000  Uiso   1.00
C647   C     0.02497   0.24614   0.56990   0.00000  Uiso   1.00
C648   C     0.01506   0.28451   0.62091   0.00000  Uiso   1.00
C649   C     0.99731   0.35510   0.66923   0.00000  Uiso   1.00
C650   C     0.01097   0.13065   0.62357   0.00000  Uiso   1.00
C651   C     0.98321   0.10334   0.57020   0.00000  Uiso   1.00
C652   C     0.95421   0.07639   0.62136   0.00000  Uiso   1.00
C653   C     0.90125   0.02651   0.66993   0.00000  Uiso   1.00
C654   C     0.08947   0.14979   0.62751   0.00000  Uiso   1.00
C655   C     0.12772   0.13856   0.57746   0.00000  Uiso   1.00
C656   C     0.16481   0.12773   0.63194   0.00000  Uiso   1.00
C657   C     0.23374   0.10757   0.68664   0.00000  Uiso   1.00
C658   C     0.04304   0.16344   0.76813   0.00000  Uiso   1.00
C659   C     0.03249   0.20861   0.72429   0.00000  Uiso   1.00
C660   C     0.02259   0.24693   0.77539   0.00000  Uiso   1.00
C661   C     0.01389   0.28490   0.72198   0.00000  Uiso   1.00
C662   C     0.00980   0.13104   0.72445   0.00000  Uiso   1.00
C663   C     0.98083   0.10412   0.77570   0.00000  Uiso   1.00
C664   C     0.95304   0.07678   0.72242   0.00000  Uiso   1.00
C665   C     0.08831   0.15018   0.72839   0.00000  Uiso   1.00
C666   C     0.12534   0.13936   0.78296   0.00000  Uiso   1.00
C667   C     0.16364   0.12811   0.73300   0.00000  Uiso   1.00
H668   H     0.04610   0.16243   0.50386   0.00000  Uiso   1.00
H669   H     0.02588   0.24583   0.49183   0.00000  Uiso   1.00
H670   H     0.98413   0.10304   0.49213   0.00000  Uiso   1.00
H671   H     0.12862   0.13827   0.49939   0.00000  Uiso   1.00
H672   H     0.00292   0.33847   0.52298   0.00000  Uiso   1.00
H673   H     0.91490   0.03738   0.52362   0.00000  Uiso   1.00
H674   H     0.21958   0.11166   0.53893   0.00000  Uiso   1.00
H675   H     0.04213   0.16374   0.84668   0.00000  Uiso   1.00
H676   H     0.02169   0.24722   0.85346   0.00000  Uiso   1.00
H677   H     0.97994   0.10443   0.85377   0.00000  Uiso   1.00
H678   H     0.12443   0.13966   0.86103   0.00000  Uiso   1.00
H679   H     0.99952   0.33960   0.81650   0.00000  Uiso   1.00
H680   H     0.91150   0.03850   0.81714   0.00000  Uiso   1.00
H681   H     0.21618   0.11279   0.83245   0.00000  Uiso   1.00
O682   O     0.98783   0.39392   0.66801   0.00000  Uiso   1.00
O683   O     0.87236   0.99890   0.66885   0.00000  Uiso   1.00
O684   O     0.27209   0.09635   0.68894   0.00000  Uiso   1.00
N685   N     0.00494   0.32728   0.59113   0.00000  Uiso   1.00
N686   N     0.92264   0.04578   0.59173   0.00000  Uiso   1.00
N687   N     0.20748   0.11522   0.60604   0.00000  Uiso   1.00
N688   N     0.00311   0.32789   0.74907   0.00000  Uiso   1.00
N689   N     0.92081   0.04639   0.74967   0.00000  Uiso   1.00
N690   N     0.20565   0.11582   0.76398   0.00000  Uiso   1.00
C691   C     0.54519   0.66273   0.08240   0.00000  Uiso   1.00
C692   C     0.53366   0.70823   0.12340   0.00000  Uiso   1.00
C693   C     0.52497   0.74614   0.06990   0.00000  Uiso   1.00
C694   C     0.51506   0.78451   0.12091   0.00000  Uiso   1.00
C695   C     0.49731   0.85510   0.16923   0.00000  Uiso   1.00
C696   C     0.51097   0.63065   0.12357   0.00000  Uiso   1.00
C697   C     0.48321   0.60334   0.07020   0.00000  Uiso   1.00
C698   C     0.45421   0.57639   0.12136   0.00000  Uiso   1.00
C699   C     0.40125   0.52651   0.16993   0.00000  Uiso   1.00
C700   C     0.58947   0.64979   0.12751   0.00000  Uiso   1.00
C701   C     0.62772   0.63856   0.07746   0.00000  Uiso   1.00
C702   C     0.66481   0.62773   0.13194   0.00000  Uiso   1.00
C703   C     0.73374   0.60757   0.18664   0.00000  Uiso   1.00
C704   C     0.54304   0.66344   0.26813   0.00000  Uiso   1.00
C705   C     0.53249   0.70861   0.22429   0.00000  Uiso   1.00
C706   C     0.52259   0.74693   0.27539   0.00000  Uiso   1.00
C707   C     0.51389   0.78490   0.22198   0.00000  Uiso   1.00
C708   C     0.50980   0.63104   0.22445   0.00000  Uiso   1.00
C709   C     0.48083   0.60412   0.27570   0.00000  Uiso   1.00
C710   C     0.45304   0.57678   0.22242   0.00000  Uiso   1.00
C711   C     0.58831   0.65018   0.22839   0.00000  Uiso   1.00
C712   C     0.62534   0.63936   0.28296   0.00000  Uiso   1.00
C713   C     0.66364   0.62811   0.23300   0.00000  Uiso   1.00
H714   H     0.54610   0.66243   0.00386   0.00000  Uiso   1.00
H715   H     0.52588   0.74583   0.99183   0.00000  Uiso   1.00
H716   H     0.48413   0.60304   0.99213   0.00000  Uiso   1.00
H717   H     0.62862   0.63827   0.99939   0.00000  Uiso   1.00
H718   H     0.50292   0.83847   0.02298   0.00000  Uiso   1.00
H719   H     0.41490   0.53738   0.02362   0.00000  Uiso   1.00
H720   H     0.71958   0.61166   0.03893   0.00000  Uiso   1.00
H721   H     0.54213   0.66374   0.34668   0.00000  Uiso   1.00
H722   H     0.52169   0.74722   0.35346   0.00000  Uiso   1.00
H723   H     0.47994   0.60443   0.35377   0.00000  Uiso   1.00
H724   H     0.62443   0.63966   0.36103   0.00000  Uiso   1.00
H725   H     0.49952   0.83960   0.31650   0.00000  Uiso   1.00
H726   H     0.41150   0.53850   0.31714   0.00000  Uiso   1.00
H727   H     0.71618   0.61279   0.33245   0.00000  Uiso   1.00
O728   O     0.48783   0.89392   0.16801   0.00000  Uiso   1.00
O729   O     0.37236   0.49890   0.16885   0.00000  Uiso   1.00
O730   O     0.77209   0.59635   0.18894   0.00000  Uiso   1.00
N731   N     0.50494   0.82728   0.09113   0.00000  Uiso   1.00
N732   N     0.42264   0.54578   0.09173   0.00000  Uiso   1.00
N733   N     0.70748   0.61522   0.10604   0.00000  Uiso   1.00
N734   N     0.50311   0.82789   0.24907   0.00000  Uiso   1.00
N735   N     0.42081   0.54639   0.24967   0.00000  Uiso   1.00
N736   N     0.70565   0.61582   0.26398   0.00000  Uiso   1.00
