data_job_05422
_audit_creation_date              2018-12-19
_audit_creation_method            'Materials Studio'
_symmetry_space_group_name_H-M    'P1'
_symmetry_Int_Tables_number       1
_symmetry_cell_setting            triclinic
loop_
_symmetry_equiv_pos_as_xyz
  x,y,z
_cell_length_a                    24.2449
_cell_length_b                    24.2449
_cell_length_c                    15.2006
_cell_angle_alpha                 90.0000
_cell_angle_beta                  90.0000
_cell_angle_gamma                 90.0000
loop_
_atom_site_label
_atom_site_type_symbol
_atom_site_fract_x
_atom_site_fract_y
_atom_site_fract_z
_atom_site_U_iso_or_equiv
_atom_site_adp_type
_atom_site_occupancy
C1     C     0.50086   0.68893   0.74613   0.00000  Uiso   1.00
C2     C     0.45093   0.68994   0.80713   0.00000  Uiso   1.00
C3     C     0.39716   0.70192   0.78236   0.00000  Uiso   1.00
C4     C     0.35734   0.70069   0.84798   0.00000  Uiso   1.00
C5     C     0.27777   0.70422   0.92944   0.00000  Uiso   1.00
C6     C     0.54249   0.72907   0.78557   0.00000  Uiso   1.00
C7     C     0.56571   0.77395   0.74266   0.00000  Uiso   1.00
C8     C     0.60297   0.80566   0.79012   0.00000  Uiso   1.00
C9     C     0.66558   0.86992   0.83807   0.00000  Uiso   1.00
C10    C     0.52622   0.63170   0.75575   0.00000  Uiso   1.00
C11    C     0.53576   0.59470   0.68776   0.00000  Uiso   1.00
C12    C     0.55933   0.54443   0.71011   0.00000  Uiso   1.00
C13    C     0.59667   0.45749   0.71176   0.00000  Uiso   1.00
C14    C     0.52577   0.66544   0.90672   0.00000  Uiso   1.00
C15    C     0.46447   0.67718   0.89436   0.00000  Uiso   1.00
C16    C     0.42472   0.67593   0.96003   0.00000  Uiso   1.00
C17    C     0.37090   0.68791   0.93536   0.00000  Uiso   1.00
C18    C     0.55602   0.71632   0.87279   0.00000  Uiso   1.00
C19    C     0.59327   0.74796   0.92032   0.00000  Uiso   1.00
C20    C     0.61653   0.79288   0.87750   0.00000  Uiso   1.00
C21    C     0.53975   0.61893   0.84297   0.00000  Uiso   1.00
C22    C     0.56332   0.56871   0.86543   0.00000  Uiso   1.00
C23    C     0.57289   0.53164   0.79749   0.00000  Uiso   1.00
H24    H     0.49032   0.69887   0.67823   0.00000  Uiso   1.00
H25    H     0.38670   0.71180   0.71485   0.00000  Uiso   1.00
H26    H     0.55523   0.78381   0.67516   0.00000  Uiso   1.00
H27    H     0.52528   0.60459   0.62027   0.00000  Uiso   1.00
H28    H     0.27779   0.72053   0.79394   0.00000  Uiso   1.00
H29    H     0.63315   0.87236   0.71022   0.00000  Uiso   1.00
H30    H     0.57001   0.49443   0.59447   0.00000  Uiso   1.00
H31    H     0.53630   0.65551   0.97463   0.00000  Uiso   1.00
H32    H     0.43520   0.66605   0.02752   0.00000  Uiso   1.00
H33    H     0.60373   0.73807   0.98782   0.00000  Uiso   1.00
H34    H     0.57378   0.55885   0.93293   0.00000  Uiso   1.00
H35    H     0.31716   0.68340   0.04771   0.00000  Uiso   1.00
H36    H     0.67252   0.83523   0.96398   0.00000  Uiso   1.00
H37    H     0.60937   0.45731   0.84824   0.00000  Uiso   1.00
O38    O     0.23014   0.70970   0.95028   0.00000  Uiso   1.00
O39    O     0.69637   0.90890   0.84043   0.00000  Uiso   1.00
O40    O     0.61352   0.41307   0.68858   0.00000  Uiso   1.00
N41    N     0.30093   0.71033   0.84640   0.00000  Uiso   1.00
N42    N     0.63316   0.85229   0.76813   0.00000  Uiso   1.00
N43    N     0.57414   0.49897   0.65992   0.00000  Uiso   1.00
N44    N     0.32211   0.69035   0.98295   0.00000  Uiso   1.00
N45    N     0.65435   0.83231   0.90468   0.00000  Uiso   1.00
N46    N     0.59532   0.47899   0.79647   0.00000  Uiso   1.00
C47    C     0.00086   0.18893   0.24613   0.00000  Uiso   1.00
C48    C     0.95093   0.18994   0.30713   0.00000  Uiso   1.00
C49    C     0.89716   0.20192   0.28236   0.00000  Uiso   1.00
C50    C     0.85734   0.20069   0.34798   0.00000  Uiso   1.00
C51    C     0.77777   0.20422   0.42944   0.00000  Uiso   1.00
C52    C     0.04249   0.22907   0.28557   0.00000  Uiso   1.00
C53    C     0.06571   0.27395   0.24266   0.00000  Uiso   1.00
C54    C     0.10297   0.30566   0.29012   0.00000  Uiso   1.00
C55    C     0.16558   0.36992   0.33807   0.00000  Uiso   1.00
C56    C     0.02622   0.13170   0.25575   0.00000  Uiso   1.00
C57    C     0.03576   0.09470   0.18776   0.00000  Uiso   1.00
C58    C     0.05933   0.04443   0.21011   0.00000  Uiso   1.00
C59    C     0.09667   0.95749   0.21176   0.00000  Uiso   1.00
C60    C     0.02577   0.16544   0.40672   0.00000  Uiso   1.00
C61    C     0.96447   0.17718   0.39436   0.00000  Uiso   1.00
C62    C     0.92472   0.17593   0.46003   0.00000  Uiso   1.00
C63    C     0.87090   0.18791   0.43536   0.00000  Uiso   1.00
C64    C     0.05602   0.21632   0.37279   0.00000  Uiso   1.00
C65    C     0.09327   0.24796   0.42032   0.00000  Uiso   1.00
C66    C     0.11653   0.29288   0.37750   0.00000  Uiso   1.00
C67    C     0.03975   0.11893   0.34297   0.00000  Uiso   1.00
C68    C     0.06332   0.06871   0.36543   0.00000  Uiso   1.00
C69    C     0.07289   0.03164   0.29749   0.00000  Uiso   1.00
H70    H     0.99032   0.19887   0.17823   0.00000  Uiso   1.00
H71    H     0.88670   0.21180   0.21485   0.00000  Uiso   1.00
H72    H     0.05523   0.28381   0.17516   0.00000  Uiso   1.00
H73    H     0.02528   0.10459   0.12027   0.00000  Uiso   1.00
H74    H     0.77779   0.22053   0.29394   0.00000  Uiso   1.00
H75    H     0.13315   0.37236   0.21022   0.00000  Uiso   1.00
H76    H     0.07001   0.99443   0.09447   0.00000  Uiso   1.00
H77    H     0.03630   0.15551   0.47463   0.00000  Uiso   1.00
H78    H     0.93520   0.16605   0.52752   0.00000  Uiso   1.00
H79    H     0.10373   0.23807   0.48782   0.00000  Uiso   1.00
H80    H     0.07378   0.05885   0.43293   0.00000  Uiso   1.00
H81    H     0.81716   0.18340   0.54771   0.00000  Uiso   1.00
H82    H     0.17252   0.33523   0.46398   0.00000  Uiso   1.00
H83    H     0.10937   0.95731   0.34824   0.00000  Uiso   1.00
O84    O     0.73014   0.20970   0.45028   0.00000  Uiso   1.00
O85    O     0.19637   0.40890   0.34043   0.00000  Uiso   1.00
O86    O     0.11352   0.91307   0.18858   0.00000  Uiso   1.00
N87    N     0.80093   0.21033   0.34640   0.00000  Uiso   1.00
N88    N     0.13316   0.35229   0.26813   0.00000  Uiso   1.00
N89    N     0.07414   0.99897   0.15992   0.00000  Uiso   1.00
N90    N     0.82211   0.19035   0.48295   0.00000  Uiso   1.00
N91    N     0.15435   0.33231   0.40468   0.00000  Uiso   1.00
N92    N     0.09532   0.97899   0.29647   0.00000  Uiso   1.00
C93    C     0.99914   0.81107   0.24613   0.00000  Uiso   1.00
C94    C     0.04907   0.81006   0.30713   0.00000  Uiso   1.00
C95    C     0.10284   0.79808   0.28236   0.00000  Uiso   1.00
C96    C     0.14266   0.79931   0.34798   0.00000  Uiso   1.00
C97    C     0.22223   0.79578   0.42944   0.00000  Uiso   1.00
C98    C     0.95751   0.77093   0.28557   0.00000  Uiso   1.00
C99    C     0.93429   0.72605   0.24266   0.00000  Uiso   1.00
C100   C     0.89703   0.69434   0.29012   0.00000  Uiso   1.00
C101   C     0.83442   0.63008   0.33807   0.00000  Uiso   1.00
C102   C     0.97378   0.86830   0.25575   0.00000  Uiso   1.00
C103   C     0.96424   0.90530   0.18776   0.00000  Uiso   1.00
C104   C     0.94067   0.95557   0.21011   0.00000  Uiso   1.00
C105   C     0.90333   0.04251   0.21176   0.00000  Uiso   1.00
C106   C     0.97423   0.83456   0.40672   0.00000  Uiso   1.00
C107   C     0.03553   0.82282   0.39436   0.00000  Uiso   1.00
C108   C     0.07528   0.82407   0.46003   0.00000  Uiso   1.00
C109   C     0.12910   0.81209   0.43536   0.00000  Uiso   1.00
C110   C     0.94398   0.78368   0.37279   0.00000  Uiso   1.00
C111   C     0.90673   0.75204   0.42032   0.00000  Uiso   1.00
C112   C     0.88347   0.70712   0.37750   0.00000  Uiso   1.00
C113   C     0.96025   0.88107   0.34297   0.00000  Uiso   1.00
C114   C     0.93668   0.93129   0.36543   0.00000  Uiso   1.00
C115   C     0.92711   0.96836   0.29749   0.00000  Uiso   1.00
H116   H     0.00968   0.80113   0.17823   0.00000  Uiso   1.00
H117   H     0.11330   0.78820   0.21485   0.00000  Uiso   1.00
H118   H     0.94477   0.71619   0.17516   0.00000  Uiso   1.00
H119   H     0.97472   0.89541   0.12027   0.00000  Uiso   1.00
H120   H     0.22221   0.77947   0.29394   0.00000  Uiso   1.00
H121   H     0.86685   0.62764   0.21022   0.00000  Uiso   1.00
H122   H     0.92999   0.00557   0.09447   0.00000  Uiso   1.00
H123   H     0.96370   0.84449   0.47463   0.00000  Uiso   1.00
H124   H     0.06480   0.83395   0.52752   0.00000  Uiso   1.00
H125   H     0.89627   0.76193   0.48782   0.00000  Uiso   1.00
H126   H     0.92622   0.94115   0.43293   0.00000  Uiso   1.00
H127   H     0.18284   0.81660   0.54771   0.00000  Uiso   1.00
H128   H     0.82748   0.66477   0.46398   0.00000  Uiso   1.00
H129   H     0.89063   0.04269   0.34824   0.00000  Uiso   1.00
O130   O     0.26986   0.79030   0.45028   0.00000  Uiso   1.00
O131   O     0.80363   0.59110   0.34043   0.00000  Uiso   1.00
O132   O     0.88648   0.08693   0.18858   0.00000  Uiso   1.00
N133   N     0.19907   0.78967   0.34640   0.00000  Uiso   1.00
N134   N     0.86684   0.64771   0.26813   0.00000  Uiso   1.00
N135   N     0.92586   0.00103   0.15992   0.00000  Uiso   1.00
N136   N     0.17789   0.80965   0.48295   0.00000  Uiso   1.00
N137   N     0.84565   0.66769   0.40468   0.00000  Uiso   1.00
N138   N     0.90468   0.02101   0.29647   0.00000  Uiso   1.00
C139   C     0.49914   0.31107   0.74613   0.00000  Uiso   1.00
C140   C     0.54907   0.31006   0.80713   0.00000  Uiso   1.00
C141   C     0.60284   0.29808   0.78236   0.00000  Uiso   1.00
C142   C     0.64266   0.29931   0.84798   0.00000  Uiso   1.00
C143   C     0.72223   0.29578   0.92944   0.00000  Uiso   1.00
C144   C     0.45751   0.27093   0.78557   0.00000  Uiso   1.00
C145   C     0.43429   0.22605   0.74266   0.00000  Uiso   1.00
C146   C     0.39703   0.19434   0.79012   0.00000  Uiso   1.00
C147   C     0.33442   0.13008   0.83807   0.00000  Uiso   1.00
C148   C     0.47378   0.36830   0.75575   0.00000  Uiso   1.00
C149   C     0.46424   0.40530   0.68776   0.00000  Uiso   1.00
C150   C     0.44067   0.45557   0.71011   0.00000  Uiso   1.00
C151   C     0.40333   0.54251   0.71176   0.00000  Uiso   1.00
C152   C     0.47423   0.33456   0.90672   0.00000  Uiso   1.00
C153   C     0.53553   0.32282   0.89436   0.00000  Uiso   1.00
C154   C     0.57528   0.32407   0.96003   0.00000  Uiso   1.00
C155   C     0.62910   0.31209   0.93536   0.00000  Uiso   1.00
C156   C     0.44398   0.28368   0.87279   0.00000  Uiso   1.00
C157   C     0.40673   0.25204   0.92032   0.00000  Uiso   1.00
C158   C     0.38347   0.20712   0.87750   0.00000  Uiso   1.00
C159   C     0.46025   0.38107   0.84297   0.00000  Uiso   1.00
C160   C     0.43668   0.43129   0.86543   0.00000  Uiso   1.00
C161   C     0.42711   0.46836   0.79749   0.00000  Uiso   1.00
H162   H     0.50968   0.30113   0.67823   0.00000  Uiso   1.00
H163   H     0.61330   0.28820   0.71485   0.00000  Uiso   1.00
H164   H     0.44477   0.21619   0.67516   0.00000  Uiso   1.00
H165   H     0.47472   0.39541   0.62027   0.00000  Uiso   1.00
H166   H     0.72221   0.27947   0.79394   0.00000  Uiso   1.00
H167   H     0.36685   0.12764   0.71022   0.00000  Uiso   1.00
H168   H     0.42999   0.50557   0.59447   0.00000  Uiso   1.00
H169   H     0.46370   0.34449   0.97463   0.00000  Uiso   1.00
H170   H     0.56480   0.33395   0.02752   0.00000  Uiso   1.00
H171   H     0.39627   0.26193   0.98782   0.00000  Uiso   1.00
H172   H     0.42622   0.44115   0.93293   0.00000  Uiso   1.00
H173   H     0.68284   0.31660   0.04771   0.00000  Uiso   1.00
H174   H     0.32748   0.16477   0.96398   0.00000  Uiso   1.00
H175   H     0.39063   0.54269   0.84824   0.00000  Uiso   1.00
O176   O     0.76986   0.29030   0.95028   0.00000  Uiso   1.00
O177   O     0.30363   0.09110   0.84043   0.00000  Uiso   1.00
O178   O     0.38648   0.58693   0.68858   0.00000  Uiso   1.00
N179   N     0.69907   0.28967   0.84640   0.00000  Uiso   1.00
N180   N     0.36684   0.14771   0.76813   0.00000  Uiso   1.00
N181   N     0.42586   0.50103   0.65992   0.00000  Uiso   1.00
N182   N     0.67789   0.30965   0.98295   0.00000  Uiso   1.00
N183   N     0.34565   0.16769   0.90468   0.00000  Uiso   1.00
N184   N     0.40468   0.52101   0.79647   0.00000  Uiso   1.00
C185   C     0.31107   0.00086   0.99613   0.00000  Uiso   1.00
C186   C     0.31006   0.95093   0.05713   0.00000  Uiso   1.00
C187   C     0.29808   0.89716   0.03236   0.00000  Uiso   1.00
C188   C     0.29931   0.85734   0.09798   0.00000  Uiso   1.00
C189   C     0.29578   0.77777   0.17944   0.00000  Uiso   1.00
C190   C     0.27093   0.04249   0.03557   0.00000  Uiso   1.00
C191   C     0.22605   0.06571   0.99266   0.00000  Uiso   1.00
C192   C     0.19434   0.10297   0.04012   0.00000  Uiso   1.00
C193   C     0.13008   0.16558   0.08807   0.00000  Uiso   1.00
C194   C     0.36830   0.02622   0.00575   0.00000  Uiso   1.00
C195   C     0.40530   0.03576   0.93776   0.00000  Uiso   1.00
C196   C     0.45557   0.05933   0.96011   0.00000  Uiso   1.00
C197   C     0.54251   0.09667   0.96176   0.00000  Uiso   1.00
C198   C     0.33456   0.02577   0.15672   0.00000  Uiso   1.00
C199   C     0.32282   0.96447   0.14436   0.00000  Uiso   1.00
C200   C     0.32407   0.92472   0.21003   0.00000  Uiso   1.00
C201   C     0.31209   0.87090   0.18536   0.00000  Uiso   1.00
C202   C     0.28368   0.05602   0.12279   0.00000  Uiso   1.00
C203   C     0.25204   0.09327   0.17032   0.00000  Uiso   1.00
C204   C     0.20712   0.11653   0.12750   0.00000  Uiso   1.00
C205   C     0.38107   0.03975   0.09297   0.00000  Uiso   1.00
C206   C     0.43129   0.06332   0.11543   0.00000  Uiso   1.00
C207   C     0.46836   0.07289   0.04749   0.00000  Uiso   1.00
H208   H     0.30113   0.99032   0.92823   0.00000  Uiso   1.00
H209   H     0.28820   0.88670   0.96485   0.00000  Uiso   1.00
H210   H     0.21619   0.05523   0.92516   0.00000  Uiso   1.00
H211   H     0.39541   0.02528   0.87027   0.00000  Uiso   1.00
H212   H     0.27947   0.77779   0.04394   0.00000  Uiso   1.00
H213   H     0.12764   0.13315   0.96022   0.00000  Uiso   1.00
H214   H     0.50557   0.07001   0.84447   0.00000  Uiso   1.00
H215   H     0.34449   0.03630   0.22463   0.00000  Uiso   1.00
H216   H     0.33395   0.93520   0.27752   0.00000  Uiso   1.00
H217   H     0.26193   0.10373   0.23782   0.00000  Uiso   1.00
H218   H     0.44115   0.07378   0.18293   0.00000  Uiso   1.00
H219   H     0.31660   0.81716   0.29771   0.00000  Uiso   1.00
H220   H     0.16477   0.17252   0.21398   0.00000  Uiso   1.00
H221   H     0.54269   0.10937   0.09824   0.00000  Uiso   1.00
O222   O     0.29030   0.73014   0.20028   0.00000  Uiso   1.00
O223   O     0.09110   0.19637   0.09043   0.00000  Uiso   1.00
O224   O     0.58693   0.11352   0.93858   0.00000  Uiso   1.00
N225   N     0.28967   0.80093   0.09640   0.00000  Uiso   1.00
N226   N     0.14771   0.13316   0.01813   0.00000  Uiso   1.00
N227   N     0.50103   0.07414   0.90992   0.00000  Uiso   1.00
N228   N     0.30965   0.82211   0.23295   0.00000  Uiso   1.00
N229   N     0.16769   0.15435   0.15468   0.00000  Uiso   1.00
N230   N     0.52101   0.09532   0.04647   0.00000  Uiso   1.00
C231   C     0.81107   0.50086   0.49613   0.00000  Uiso   1.00
C232   C     0.81006   0.45093   0.55713   0.00000  Uiso   1.00
C233   C     0.79808   0.39716   0.53236   0.00000  Uiso   1.00
C234   C     0.79931   0.35734   0.59798   0.00000  Uiso   1.00
C235   C     0.79578   0.27777   0.67944   0.00000  Uiso   1.00
C236   C     0.77093   0.54249   0.53557   0.00000  Uiso   1.00
C237   C     0.72605   0.56571   0.49266   0.00000  Uiso   1.00
C238   C     0.69434   0.60297   0.54012   0.00000  Uiso   1.00
C239   C     0.63008   0.66558   0.58807   0.00000  Uiso   1.00
C240   C     0.86830   0.52622   0.50575   0.00000  Uiso   1.00
C241   C     0.90530   0.53576   0.43776   0.00000  Uiso   1.00
C242   C     0.95557   0.55933   0.46011   0.00000  Uiso   1.00
C243   C     0.04251   0.59667   0.46176   0.00000  Uiso   1.00
C244   C     0.83456   0.52577   0.65672   0.00000  Uiso   1.00
C245   C     0.82282   0.46447   0.64436   0.00000  Uiso   1.00
C246   C     0.82407   0.42472   0.71003   0.00000  Uiso   1.00
C247   C     0.81209   0.37090   0.68536   0.00000  Uiso   1.00
C248   C     0.78368   0.55602   0.62279   0.00000  Uiso   1.00
C249   C     0.75204   0.59327   0.67032   0.00000  Uiso   1.00
C250   C     0.70712   0.61653   0.62750   0.00000  Uiso   1.00
C251   C     0.88107   0.53975   0.59297   0.00000  Uiso   1.00
C252   C     0.93129   0.56332   0.61543   0.00000  Uiso   1.00
C253   C     0.96836   0.57289   0.54749   0.00000  Uiso   1.00
H254   H     0.80113   0.49032   0.42823   0.00000  Uiso   1.00
H255   H     0.78820   0.38670   0.46485   0.00000  Uiso   1.00
H256   H     0.71619   0.55523   0.42516   0.00000  Uiso   1.00
H257   H     0.89541   0.52528   0.37027   0.00000  Uiso   1.00
H258   H     0.77947   0.27779   0.54394   0.00000  Uiso   1.00
H259   H     0.62764   0.63315   0.46022   0.00000  Uiso   1.00
H260   H     0.00557   0.57001   0.34447   0.00000  Uiso   1.00
H261   H     0.84449   0.53630   0.72463   0.00000  Uiso   1.00
H262   H     0.83395   0.43520   0.77752   0.00000  Uiso   1.00
H263   H     0.76193   0.60373   0.73782   0.00000  Uiso   1.00
H264   H     0.94115   0.57378   0.68293   0.00000  Uiso   1.00
H265   H     0.81660   0.31716   0.79771   0.00000  Uiso   1.00
H266   H     0.66477   0.67252   0.71398   0.00000  Uiso   1.00
H267   H     0.04269   0.60937   0.59824   0.00000  Uiso   1.00
O268   O     0.79030   0.23014   0.70028   0.00000  Uiso   1.00
O269   O     0.59110   0.69637   0.59043   0.00000  Uiso   1.00
O270   O     0.08693   0.61352   0.43858   0.00000  Uiso   1.00
N271   N     0.78967   0.30093   0.59640   0.00000  Uiso   1.00
N272   N     0.64771   0.63316   0.51813   0.00000  Uiso   1.00
N273   N     0.00103   0.57414   0.40992   0.00000  Uiso   1.00
N274   N     0.80965   0.32211   0.73295   0.00000  Uiso   1.00
N275   N     0.66769   0.65435   0.65468   0.00000  Uiso   1.00
N276   N     0.02101   0.59532   0.54647   0.00000  Uiso   1.00
C277   C     0.18893   0.49914   0.49613   0.00000  Uiso   1.00
C278   C     0.18994   0.54907   0.55713   0.00000  Uiso   1.00
C279   C     0.20192   0.60284   0.53236   0.00000  Uiso   1.00
C280   C     0.20069   0.64266   0.59798   0.00000  Uiso   1.00
C281   C     0.20422   0.72223   0.67944   0.00000  Uiso   1.00
C282   C     0.22907   0.45751   0.53557   0.00000  Uiso   1.00
C283   C     0.27395   0.43429   0.49266   0.00000  Uiso   1.00
C284   C     0.30566   0.39703   0.54012   0.00000  Uiso   1.00
C285   C     0.36992   0.33442   0.58807   0.00000  Uiso   1.00
C286   C     0.13170   0.47378   0.50575   0.00000  Uiso   1.00
C287   C     0.09470   0.46424   0.43776   0.00000  Uiso   1.00
C288   C     0.04443   0.44067   0.46011   0.00000  Uiso   1.00
C289   C     0.95749   0.40333   0.46176   0.00000  Uiso   1.00
C290   C     0.16544   0.47423   0.65672   0.00000  Uiso   1.00
C291   C     0.17718   0.53553   0.64436   0.00000  Uiso   1.00
C292   C     0.17593   0.57528   0.71003   0.00000  Uiso   1.00
C293   C     0.18791   0.62910   0.68536   0.00000  Uiso   1.00
C294   C     0.21632   0.44398   0.62279   0.00000  Uiso   1.00
C295   C     0.24796   0.40673   0.67032   0.00000  Uiso   1.00
C296   C     0.29288   0.38347   0.62750   0.00000  Uiso   1.00
C297   C     0.11893   0.46025   0.59297   0.00000  Uiso   1.00
C298   C     0.06871   0.43668   0.61543   0.00000  Uiso   1.00
C299   C     0.03164   0.42711   0.54749   0.00000  Uiso   1.00
H300   H     0.19887   0.50968   0.42823   0.00000  Uiso   1.00
H301   H     0.21180   0.61330   0.46485   0.00000  Uiso   1.00
H302   H     0.28381   0.44477   0.42516   0.00000  Uiso   1.00
H303   H     0.10459   0.47472   0.37027   0.00000  Uiso   1.00
H304   H     0.22053   0.72221   0.54394   0.00000  Uiso   1.00
H305   H     0.37236   0.36685   0.46022   0.00000  Uiso   1.00
H306   H     0.99443   0.42999   0.34447   0.00000  Uiso   1.00
H307   H     0.15551   0.46370   0.72463   0.00000  Uiso   1.00
H308   H     0.16605   0.56480   0.77752   0.00000  Uiso   1.00
H309   H     0.23807   0.39627   0.73782   0.00000  Uiso   1.00
H310   H     0.05885   0.42622   0.68293   0.00000  Uiso   1.00
H311   H     0.18340   0.68284   0.79771   0.00000  Uiso   1.00
H312   H     0.33523   0.32748   0.71398   0.00000  Uiso   1.00
H313   H     0.95731   0.39063   0.59824   0.00000  Uiso   1.00
O314   O     0.20970   0.76986   0.70028   0.00000  Uiso   1.00
O315   O     0.40890   0.30363   0.59043   0.00000  Uiso   1.00
O316   O     0.91307   0.38648   0.43858   0.00000  Uiso   1.00
N317   N     0.21033   0.69907   0.59640   0.00000  Uiso   1.00
N318   N     0.35229   0.36684   0.51813   0.00000  Uiso   1.00
N319   N     0.99897   0.42586   0.40992   0.00000  Uiso   1.00
N320   N     0.19035   0.67789   0.73295   0.00000  Uiso   1.00
N321   N     0.33231   0.34565   0.65468   0.00000  Uiso   1.00
N322   N     0.97899   0.40468   0.54647   0.00000  Uiso   1.00
C323   C     0.68893   0.99914   0.99613   0.00000  Uiso   1.00
C324   C     0.68994   0.04907   0.05713   0.00000  Uiso   1.00
C325   C     0.70192   0.10284   0.03236   0.00000  Uiso   1.00
C326   C     0.70069   0.14266   0.09798   0.00000  Uiso   1.00
C327   C     0.70422   0.22223   0.17944   0.00000  Uiso   1.00
C328   C     0.72907   0.95751   0.03557   0.00000  Uiso   1.00
C329   C     0.77395   0.93429   0.99266   0.00000  Uiso   1.00
C330   C     0.80566   0.89703   0.04012   0.00000  Uiso   1.00
C331   C     0.86992   0.83442   0.08807   0.00000  Uiso   1.00
C332   C     0.63170   0.97378   0.00575   0.00000  Uiso   1.00
C333   C     0.59470   0.96424   0.93776   0.00000  Uiso   1.00
C334   C     0.54443   0.94067   0.96011   0.00000  Uiso   1.00
C335   C     0.45749   0.90333   0.96176   0.00000  Uiso   1.00
C336   C     0.66544   0.97423   0.15672   0.00000  Uiso   1.00
C337   C     0.67718   0.03553   0.14436   0.00000  Uiso   1.00
C338   C     0.67593   0.07528   0.21003   0.00000  Uiso   1.00
C339   C     0.68791   0.12910   0.18536   0.00000  Uiso   1.00
C340   C     0.71632   0.94398   0.12279   0.00000  Uiso   1.00
C341   C     0.74796   0.90673   0.17032   0.00000  Uiso   1.00
C342   C     0.79288   0.88347   0.12750   0.00000  Uiso   1.00
C343   C     0.61893   0.96025   0.09297   0.00000  Uiso   1.00
C344   C     0.56871   0.93668   0.11543   0.00000  Uiso   1.00
C345   C     0.53164   0.92711   0.04749   0.00000  Uiso   1.00
H346   H     0.69887   0.00968   0.92823   0.00000  Uiso   1.00
H347   H     0.71180   0.11330   0.96485   0.00000  Uiso   1.00
H348   H     0.78381   0.94477   0.92516   0.00000  Uiso   1.00
H349   H     0.60459   0.97472   0.87027   0.00000  Uiso   1.00
H350   H     0.72053   0.22221   0.04394   0.00000  Uiso   1.00
H351   H     0.87236   0.86685   0.96022   0.00000  Uiso   1.00
H352   H     0.49443   0.92999   0.84447   0.00000  Uiso   1.00
H353   H     0.65551   0.96370   0.22463   0.00000  Uiso   1.00
H354   H     0.66605   0.06480   0.27752   0.00000  Uiso   1.00
H355   H     0.73807   0.89627   0.23782   0.00000  Uiso   1.00
H356   H     0.55885   0.92622   0.18293   0.00000  Uiso   1.00
H357   H     0.68340   0.18284   0.29771   0.00000  Uiso   1.00
H358   H     0.83523   0.82748   0.21398   0.00000  Uiso   1.00
H359   H     0.45731   0.89063   0.09824   0.00000  Uiso   1.00
O360   O     0.70970   0.26986   0.20028   0.00000  Uiso   1.00
O361   O     0.90890   0.80363   0.09043   0.00000  Uiso   1.00
O362   O     0.41307   0.88648   0.93858   0.00000  Uiso   1.00
N363   N     0.71033   0.19907   0.09640   0.00000  Uiso   1.00
N364   N     0.85229   0.86684   0.01813   0.00000  Uiso   1.00
N365   N     0.49897   0.92586   0.90992   0.00000  Uiso   1.00
N366   N     0.69035   0.17789   0.23295   0.00000  Uiso   1.00
N367   N     0.83231   0.84565   0.15468   0.00000  Uiso   1.00
N368   N     0.47899   0.90468   0.04647   0.00000  Uiso   1.00
C369   C     0.49914   0.81107   0.50387   0.00000  Uiso   1.00
C370   C     0.54907   0.81006   0.44287   0.00000  Uiso   1.00
C371   C     0.60284   0.79808   0.46764   0.00000  Uiso   1.00
C372   C     0.64266   0.79931   0.40202   0.00000  Uiso   1.00
C373   C     0.72223   0.79578   0.32056   0.00000  Uiso   1.00
C374   C     0.45751   0.77093   0.46443   0.00000  Uiso   1.00
C375   C     0.43429   0.72605   0.50734   0.00000  Uiso   1.00
C376   C     0.39703   0.69434   0.45988   0.00000  Uiso   1.00
C377   C     0.33442   0.63008   0.41193   0.00000  Uiso   1.00
C378   C     0.47378   0.86830   0.49425   0.00000  Uiso   1.00
C379   C     0.46424   0.90530   0.56224   0.00000  Uiso   1.00
C380   C     0.44067   0.95557   0.53989   0.00000  Uiso   1.00
C381   C     0.40333   0.04251   0.53824   0.00000  Uiso   1.00
C382   C     0.47423   0.83456   0.34328   0.00000  Uiso   1.00
C383   C     0.53553   0.82282   0.35564   0.00000  Uiso   1.00
C384   C     0.57528   0.82407   0.28997   0.00000  Uiso   1.00
C385   C     0.62910   0.81209   0.31464   0.00000  Uiso   1.00
C386   C     0.44398   0.78368   0.37721   0.00000  Uiso   1.00
C387   C     0.40673   0.75204   0.32968   0.00000  Uiso   1.00
C388   C     0.38347   0.70712   0.37250   0.00000  Uiso   1.00
C389   C     0.46025   0.88107   0.40703   0.00000  Uiso   1.00
C390   C     0.43668   0.93129   0.38457   0.00000  Uiso   1.00
C391   C     0.42711   0.96836   0.45251   0.00000  Uiso   1.00
H392   H     0.50968   0.80113   0.57177   0.00000  Uiso   1.00
H393   H     0.61330   0.78820   0.53515   0.00000  Uiso   1.00
H394   H     0.44477   0.71619   0.57484   0.00000  Uiso   1.00
H395   H     0.47472   0.89541   0.62973   0.00000  Uiso   1.00
H396   H     0.72221   0.77947   0.45606   0.00000  Uiso   1.00
H397   H     0.36685   0.62764   0.53978   0.00000  Uiso   1.00
H398   H     0.42999   0.00557   0.65553   0.00000  Uiso   1.00
H399   H     0.46370   0.84449   0.27537   0.00000  Uiso   1.00
H400   H     0.56480   0.83395   0.22248   0.00000  Uiso   1.00
H401   H     0.39627   0.76193   0.26218   0.00000  Uiso   1.00
H402   H     0.42622   0.94115   0.31707   0.00000  Uiso   1.00
H403   H     0.68284   0.81660   0.20229   0.00000  Uiso   1.00
H404   H     0.32748   0.66477   0.28602   0.00000  Uiso   1.00
H405   H     0.39063   0.04269   0.40176   0.00000  Uiso   1.00
O406   O     0.76986   0.79030   0.29972   0.00000  Uiso   1.00
O407   O     0.30363   0.59110   0.40957   0.00000  Uiso   1.00
O408   O     0.38648   0.08693   0.56142   0.00000  Uiso   1.00
N409   N     0.69907   0.78967   0.40360   0.00000  Uiso   1.00
N410   N     0.36684   0.64771   0.48187   0.00000  Uiso   1.00
N411   N     0.42586   0.00103   0.59008   0.00000  Uiso   1.00
N412   N     0.67789   0.80965   0.26705   0.00000  Uiso   1.00
N413   N     0.34565   0.66769   0.34532   0.00000  Uiso   1.00
N414   N     0.40468   0.02101   0.45353   0.00000  Uiso   1.00
C415   C     0.99914   0.31107   0.00387   0.00000  Uiso   1.00
C416   C     0.04907   0.31006   0.94287   0.00000  Uiso   1.00
C417   C     0.10284   0.29808   0.96764   0.00000  Uiso   1.00
C418   C     0.14266   0.29931   0.90202   0.00000  Uiso   1.00
C419   C     0.22223   0.29578   0.82056   0.00000  Uiso   1.00
C420   C     0.95751   0.27093   0.96443   0.00000  Uiso   1.00
C421   C     0.93429   0.22605   0.00734   0.00000  Uiso   1.00
C422   C     0.89703   0.19434   0.95988   0.00000  Uiso   1.00
C423   C     0.83442   0.13008   0.91193   0.00000  Uiso   1.00
C424   C     0.97378   0.36830   0.99425   0.00000  Uiso   1.00
C425   C     0.96424   0.40530   0.06224   0.00000  Uiso   1.00
C426   C     0.94067   0.45557   0.03989   0.00000  Uiso   1.00
C427   C     0.90333   0.54251   0.03824   0.00000  Uiso   1.00
C428   C     0.97423   0.33456   0.84328   0.00000  Uiso   1.00
C429   C     0.03553   0.32282   0.85564   0.00000  Uiso   1.00
C430   C     0.07528   0.32407   0.78997   0.00000  Uiso   1.00
C431   C     0.12910   0.31209   0.81464   0.00000  Uiso   1.00
C432   C     0.94398   0.28368   0.87721   0.00000  Uiso   1.00
C433   C     0.90673   0.25204   0.82968   0.00000  Uiso   1.00
C434   C     0.88347   0.20712   0.87250   0.00000  Uiso   1.00
C435   C     0.96025   0.38107   0.90703   0.00000  Uiso   1.00
C436   C     0.93668   0.43129   0.88457   0.00000  Uiso   1.00
C437   C     0.92711   0.46836   0.95251   0.00000  Uiso   1.00
H438   H     0.00968   0.30113   0.07177   0.00000  Uiso   1.00
H439   H     0.11330   0.28820   0.03515   0.00000  Uiso   1.00
H440   H     0.94477   0.21619   0.07484   0.00000  Uiso   1.00
H441   H     0.97472   0.39541   0.12973   0.00000  Uiso   1.00
H442   H     0.22221   0.27947   0.95606   0.00000  Uiso   1.00
H443   H     0.86685   0.12764   0.03978   0.00000  Uiso   1.00
H444   H     0.92999   0.50557   0.15553   0.00000  Uiso   1.00
H445   H     0.96370   0.34449   0.77537   0.00000  Uiso   1.00
H446   H     0.06480   0.33395   0.72248   0.00000  Uiso   1.00
H447   H     0.89627   0.26193   0.76218   0.00000  Uiso   1.00
H448   H     0.92622   0.44115   0.81707   0.00000  Uiso   1.00
H449   H     0.18284   0.31660   0.70229   0.00000  Uiso   1.00
H450   H     0.82748   0.16477   0.78602   0.00000  Uiso   1.00
H451   H     0.89063   0.54269   0.90176   0.00000  Uiso   1.00
O452   O     0.26986   0.29030   0.79972   0.00000  Uiso   1.00
O453   O     0.80363   0.09110   0.90957   0.00000  Uiso   1.00
O454   O     0.88648   0.58693   0.06142   0.00000  Uiso   1.00
N455   N     0.19907   0.28967   0.90360   0.00000  Uiso   1.00
N456   N     0.86684   0.14771   0.98187   0.00000  Uiso   1.00
N457   N     0.92586   0.50103   0.09008   0.00000  Uiso   1.00
N458   N     0.17789   0.30965   0.76705   0.00000  Uiso   1.00
N459   N     0.84565   0.16769   0.84532   0.00000  Uiso   1.00
N460   N     0.90468   0.52101   0.95353   0.00000  Uiso   1.00
C461   C     0.00086   0.68893   0.00387   0.00000  Uiso   1.00
C462   C     0.95093   0.68994   0.94287   0.00000  Uiso   1.00
C463   C     0.89716   0.70192   0.96764   0.00000  Uiso   1.00
C464   C     0.85734   0.70069   0.90202   0.00000  Uiso   1.00
C465   C     0.77777   0.70422   0.82056   0.00000  Uiso   1.00
C466   C     0.04249   0.72907   0.96443   0.00000  Uiso   1.00
C467   C     0.06571   0.77395   0.00734   0.00000  Uiso   1.00
C468   C     0.10297   0.80566   0.95988   0.00000  Uiso   1.00
C469   C     0.16558   0.86992   0.91193   0.00000  Uiso   1.00
C470   C     0.02622   0.63170   0.99425   0.00000  Uiso   1.00
C471   C     0.03576   0.59470   0.06224   0.00000  Uiso   1.00
C472   C     0.05933   0.54443   0.03989   0.00000  Uiso   1.00
C473   C     0.09667   0.45749   0.03824   0.00000  Uiso   1.00
C474   C     0.02577   0.66544   0.84328   0.00000  Uiso   1.00
C475   C     0.96447   0.67718   0.85564   0.00000  Uiso   1.00
C476   C     0.92472   0.67593   0.78997   0.00000  Uiso   1.00
C477   C     0.87090   0.68791   0.81464   0.00000  Uiso   1.00
C478   C     0.05602   0.71632   0.87721   0.00000  Uiso   1.00
C479   C     0.09327   0.74796   0.82968   0.00000  Uiso   1.00
C480   C     0.11653   0.79288   0.87250   0.00000  Uiso   1.00
C481   C     0.03975   0.61893   0.90703   0.00000  Uiso   1.00
C482   C     0.06332   0.56871   0.88457   0.00000  Uiso   1.00
C483   C     0.07289   0.53164   0.95251   0.00000  Uiso   1.00
H484   H     0.99032   0.69887   0.07177   0.00000  Uiso   1.00
H485   H     0.88670   0.71180   0.03515   0.00000  Uiso   1.00
H486   H     0.05523   0.78381   0.07484   0.00000  Uiso   1.00
H487   H     0.02528   0.60459   0.12973   0.00000  Uiso   1.00
H488   H     0.77779   0.72053   0.95606   0.00000  Uiso   1.00
H489   H     0.13315   0.87236   0.03978   0.00000  Uiso   1.00
H490   H     0.07001   0.49443   0.15553   0.00000  Uiso   1.00
H491   H     0.03630   0.65551   0.77537   0.00000  Uiso   1.00
H492   H     0.93520   0.66605   0.72248   0.00000  Uiso   1.00
H493   H     0.10373   0.73807   0.76218   0.00000  Uiso   1.00
H494   H     0.07378   0.55885   0.81707   0.00000  Uiso   1.00
H495   H     0.81716   0.68340   0.70229   0.00000  Uiso   1.00
H496   H     0.17252   0.83523   0.78602   0.00000  Uiso   1.00
H497   H     0.10937   0.45731   0.90176   0.00000  Uiso   1.00
O498   O     0.73014   0.70970   0.79972   0.00000  Uiso   1.00
O499   O     0.19637   0.90890   0.90957   0.00000  Uiso   1.00
O500   O     0.11352   0.41307   0.06142   0.00000  Uiso   1.00
N501   N     0.80093   0.71033   0.90360   0.00000  Uiso   1.00
N502   N     0.13316   0.85229   0.98187   0.00000  Uiso   1.00
N503   N     0.07414   0.49897   0.09008   0.00000  Uiso   1.00
N504   N     0.82211   0.69035   0.76705   0.00000  Uiso   1.00
N505   N     0.15435   0.83231   0.84532   0.00000  Uiso   1.00
N506   N     0.09532   0.47899   0.95353   0.00000  Uiso   1.00
C507   C     0.50086   0.18893   0.50387   0.00000  Uiso   1.00
C508   C     0.45093   0.18994   0.44287   0.00000  Uiso   1.00
C509   C     0.39716   0.20192   0.46764   0.00000  Uiso   1.00
C510   C     0.35734   0.20069   0.40202   0.00000  Uiso   1.00
C511   C     0.27777   0.20422   0.32056   0.00000  Uiso   1.00
C512   C     0.54249   0.22907   0.46443   0.00000  Uiso   1.00
C513   C     0.56571   0.27395   0.50734   0.00000  Uiso   1.00
C514   C     0.60297   0.30566   0.45988   0.00000  Uiso   1.00
C515   C     0.66558   0.36992   0.41193   0.00000  Uiso   1.00
C516   C     0.52622   0.13170   0.49425   0.00000  Uiso   1.00
C517   C     0.53576   0.09470   0.56224   0.00000  Uiso   1.00
C518   C     0.55933   0.04443   0.53989   0.00000  Uiso   1.00
C519   C     0.59667   0.95749   0.53824   0.00000  Uiso   1.00
C520   C     0.52577   0.16544   0.34328   0.00000  Uiso   1.00
C521   C     0.46447   0.17718   0.35564   0.00000  Uiso   1.00
C522   C     0.42472   0.17593   0.28997   0.00000  Uiso   1.00
C523   C     0.37090   0.18791   0.31464   0.00000  Uiso   1.00
C524   C     0.55602   0.21632   0.37721   0.00000  Uiso   1.00
C525   C     0.59327   0.24796   0.32968   0.00000  Uiso   1.00
C526   C     0.61653   0.29288   0.37250   0.00000  Uiso   1.00
C527   C     0.53975   0.11893   0.40703   0.00000  Uiso   1.00
C528   C     0.56332   0.06871   0.38457   0.00000  Uiso   1.00
C529   C     0.57289   0.03164   0.45251   0.00000  Uiso   1.00
H530   H     0.49032   0.19887   0.57177   0.00000  Uiso   1.00
H531   H     0.38670   0.21180   0.53515   0.00000  Uiso   1.00
H532   H     0.55523   0.28381   0.57484   0.00000  Uiso   1.00
H533   H     0.52528   0.10459   0.62973   0.00000  Uiso   1.00
H534   H     0.27779   0.22053   0.45606   0.00000  Uiso   1.00
H535   H     0.63315   0.37236   0.53978   0.00000  Uiso   1.00
H536   H     0.57001   0.99443   0.65553   0.00000  Uiso   1.00
H537   H     0.53630   0.15551   0.27537   0.00000  Uiso   1.00
H538   H     0.43520   0.16605   0.22248   0.00000  Uiso   1.00
H539   H     0.60373   0.23807   0.26218   0.00000  Uiso   1.00
H540   H     0.57378   0.05885   0.31707   0.00000  Uiso   1.00
H541   H     0.31716   0.18340   0.20229   0.00000  Uiso   1.00
H542   H     0.67252   0.33523   0.28602   0.00000  Uiso   1.00
H543   H     0.60937   0.95731   0.40176   0.00000  Uiso   1.00
O544   O     0.23014   0.20970   0.29972   0.00000  Uiso   1.00
O545   O     0.69637   0.40890   0.40957   0.00000  Uiso   1.00
O546   O     0.61352   0.91307   0.56142   0.00000  Uiso   1.00
N547   N     0.30093   0.21033   0.40360   0.00000  Uiso   1.00
N548   N     0.63316   0.35229   0.48187   0.00000  Uiso   1.00
N549   N     0.57414   0.99897   0.59008   0.00000  Uiso   1.00
N550   N     0.32211   0.19035   0.26705   0.00000  Uiso   1.00
N551   N     0.65435   0.33231   0.34532   0.00000  Uiso   1.00
N552   N     0.59532   0.97899   0.45353   0.00000  Uiso   1.00
C553   C     0.68893   0.49914   0.25387   0.00000  Uiso   1.00
C554   C     0.68994   0.54907   0.19287   0.00000  Uiso   1.00
C555   C     0.70192   0.60284   0.21764   0.00000  Uiso   1.00
C556   C     0.70069   0.64266   0.15202   0.00000  Uiso   1.00
C557   C     0.70422   0.72223   0.07056   0.00000  Uiso   1.00
C558   C     0.72907   0.45751   0.21443   0.00000  Uiso   1.00
C559   C     0.77395   0.43429   0.25734   0.00000  Uiso   1.00
C560   C     0.80566   0.39703   0.20988   0.00000  Uiso   1.00
C561   C     0.86992   0.33442   0.16193   0.00000  Uiso   1.00
C562   C     0.63170   0.47378   0.24425   0.00000  Uiso   1.00
C563   C     0.59470   0.46424   0.31224   0.00000  Uiso   1.00
C564   C     0.54443   0.44067   0.28989   0.00000  Uiso   1.00
C565   C     0.45749   0.40333   0.28824   0.00000  Uiso   1.00
C566   C     0.66544   0.47423   0.09328   0.00000  Uiso   1.00
C567   C     0.67718   0.53553   0.10564   0.00000  Uiso   1.00
C568   C     0.67593   0.57528   0.03997   0.00000  Uiso   1.00
C569   C     0.68791   0.62910   0.06464   0.00000  Uiso   1.00
C570   C     0.71632   0.44398   0.12721   0.00000  Uiso   1.00
C571   C     0.74796   0.40673   0.07968   0.00000  Uiso   1.00
C572   C     0.79288   0.38347   0.12250   0.00000  Uiso   1.00
C573   C     0.61893   0.46025   0.15703   0.00000  Uiso   1.00
C574   C     0.56871   0.43668   0.13457   0.00000  Uiso   1.00
C575   C     0.53164   0.42711   0.20251   0.00000  Uiso   1.00
H576   H     0.69887   0.50968   0.32177   0.00000  Uiso   1.00
H577   H     0.71180   0.61330   0.28515   0.00000  Uiso   1.00
H578   H     0.78381   0.44477   0.32484   0.00000  Uiso   1.00
H579   H     0.60459   0.47472   0.37973   0.00000  Uiso   1.00
H580   H     0.72053   0.72221   0.20606   0.00000  Uiso   1.00
H581   H     0.87236   0.36685   0.28978   0.00000  Uiso   1.00
H582   H     0.49443   0.42999   0.40553   0.00000  Uiso   1.00
H583   H     0.65551   0.46370   0.02537   0.00000  Uiso   1.00
H584   H     0.66605   0.56480   0.97248   0.00000  Uiso   1.00
H585   H     0.73807   0.39627   0.01218   0.00000  Uiso   1.00
H586   H     0.55885   0.42622   0.06707   0.00000  Uiso   1.00
H587   H     0.68340   0.68284   0.95229   0.00000  Uiso   1.00
H588   H     0.83523   0.32748   0.03602   0.00000  Uiso   1.00
H589   H     0.45731   0.39063   0.15176   0.00000  Uiso   1.00
O590   O     0.70970   0.76986   0.04972   0.00000  Uiso   1.00
O591   O     0.90890   0.30363   0.15957   0.00000  Uiso   1.00
O592   O     0.41307   0.38648   0.31142   0.00000  Uiso   1.00
N593   N     0.71033   0.69907   0.15360   0.00000  Uiso   1.00
N594   N     0.85229   0.36684   0.23187   0.00000  Uiso   1.00
N595   N     0.49897   0.42586   0.34008   0.00000  Uiso   1.00
N596   N     0.69035   0.67789   0.01705   0.00000  Uiso   1.00
N597   N     0.83231   0.34565   0.09532   0.00000  Uiso   1.00
N598   N     0.47899   0.40468   0.20353   0.00000  Uiso   1.00
C599   C     0.18893   0.99914   0.75387   0.00000  Uiso   1.00
C600   C     0.18994   0.04907   0.69287   0.00000  Uiso   1.00
C601   C     0.20192   0.10284   0.71764   0.00000  Uiso   1.00
C602   C     0.20069   0.14266   0.65202   0.00000  Uiso   1.00
C603   C     0.20422   0.22223   0.57056   0.00000  Uiso   1.00
C604   C     0.22907   0.95751   0.71443   0.00000  Uiso   1.00
C605   C     0.27395   0.93429   0.75734   0.00000  Uiso   1.00
C606   C     0.30566   0.89703   0.70988   0.00000  Uiso   1.00
C607   C     0.36992   0.83442   0.66193   0.00000  Uiso   1.00
C608   C     0.13170   0.97378   0.74425   0.00000  Uiso   1.00
C609   C     0.09470   0.96424   0.81224   0.00000  Uiso   1.00
C610   C     0.04443   0.94067   0.78989   0.00000  Uiso   1.00
C611   C     0.95749   0.90333   0.78824   0.00000  Uiso   1.00
C612   C     0.16544   0.97423   0.59328   0.00000  Uiso   1.00
C613   C     0.17718   0.03553   0.60564   0.00000  Uiso   1.00
C614   C     0.17593   0.07528   0.53997   0.00000  Uiso   1.00
C615   C     0.18791   0.12910   0.56464   0.00000  Uiso   1.00
C616   C     0.21632   0.94398   0.62721   0.00000  Uiso   1.00
C617   C     0.24796   0.90673   0.57968   0.00000  Uiso   1.00
C618   C     0.29288   0.88347   0.62250   0.00000  Uiso   1.00
C619   C     0.11893   0.96025   0.65703   0.00000  Uiso   1.00
C620   C     0.06871   0.93668   0.63457   0.00000  Uiso   1.00
C621   C     0.03164   0.92711   0.70251   0.00000  Uiso   1.00
H622   H     0.19887   0.00968   0.82177   0.00000  Uiso   1.00
H623   H     0.21180   0.11330   0.78515   0.00000  Uiso   1.00
H624   H     0.28381   0.94477   0.82484   0.00000  Uiso   1.00
H625   H     0.10459   0.97472   0.87973   0.00000  Uiso   1.00
H626   H     0.22053   0.22221   0.70606   0.00000  Uiso   1.00
H627   H     0.37236   0.86685   0.78978   0.00000  Uiso   1.00
H628   H     0.99443   0.92999   0.90553   0.00000  Uiso   1.00
H629   H     0.15551   0.96370   0.52537   0.00000  Uiso   1.00
H630   H     0.16605   0.06480   0.47248   0.00000  Uiso   1.00
H631   H     0.23807   0.89627   0.51218   0.00000  Uiso   1.00
H632   H     0.05885   0.92622   0.56707   0.00000  Uiso   1.00
H633   H     0.18340   0.18284   0.45229   0.00000  Uiso   1.00
H634   H     0.33523   0.82748   0.53602   0.00000  Uiso   1.00
H635   H     0.95731   0.89063   0.65176   0.00000  Uiso   1.00
O636   O     0.20970   0.26986   0.54972   0.00000  Uiso   1.00
O637   O     0.40890   0.80363   0.65957   0.00000  Uiso   1.00
O638   O     0.91307   0.88648   0.81142   0.00000  Uiso   1.00
N639   N     0.21033   0.19907   0.65360   0.00000  Uiso   1.00
N640   N     0.35229   0.86684   0.73187   0.00000  Uiso   1.00
N641   N     0.99897   0.92586   0.84008   0.00000  Uiso   1.00
N642   N     0.19035   0.17789   0.51705   0.00000  Uiso   1.00
N643   N     0.33231   0.84565   0.59532   0.00000  Uiso   1.00
N644   N     0.97899   0.90468   0.70353   0.00000  Uiso   1.00
C645   C     0.81107   0.00086   0.75387   0.00000  Uiso   1.00
C646   C     0.81006   0.95093   0.69287   0.00000  Uiso   1.00
C647   C     0.79808   0.89716   0.71764   0.00000  Uiso   1.00
C648   C     0.79931   0.85734   0.65202   0.00000  Uiso   1.00
C649   C     0.79578   0.77777   0.57056   0.00000  Uiso   1.00
C650   C     0.77093   0.04249   0.71443   0.00000  Uiso   1.00
C651   C     0.72605   0.06571   0.75734   0.00000  Uiso   1.00
C652   C     0.69434   0.10297   0.70988   0.00000  Uiso   1.00
C653   C     0.63008   0.16558   0.66193   0.00000  Uiso   1.00
C654   C     0.86830   0.02622   0.74425   0.00000  Uiso   1.00
C655   C     0.90530   0.03576   0.81224   0.00000  Uiso   1.00
C656   C     0.95557   0.05933   0.78989   0.00000  Uiso   1.00
C657   C     0.04251   0.09667   0.78824   0.00000  Uiso   1.00
C658   C     0.83456   0.02577   0.59328   0.00000  Uiso   1.00
C659   C     0.82282   0.96447   0.60564   0.00000  Uiso   1.00
C660   C     0.82407   0.92472   0.53997   0.00000  Uiso   1.00
C661   C     0.81209   0.87090   0.56464   0.00000  Uiso   1.00
C662   C     0.78368   0.05602   0.62721   0.00000  Uiso   1.00
C663   C     0.75204   0.09327   0.57968   0.00000  Uiso   1.00
C664   C     0.70712   0.11653   0.62250   0.00000  Uiso   1.00
C665   C     0.88107   0.03975   0.65703   0.00000  Uiso   1.00
C666   C     0.93129   0.06332   0.63457   0.00000  Uiso   1.00
C667   C     0.96836   0.07289   0.70251   0.00000  Uiso   1.00
H668   H     0.80113   0.99032   0.82177   0.00000  Uiso   1.00
H669   H     0.78820   0.88670   0.78515   0.00000  Uiso   1.00
H670   H     0.71619   0.05523   0.82484   0.00000  Uiso   1.00
H671   H     0.89541   0.02528   0.87973   0.00000  Uiso   1.00
H672   H     0.77947   0.77779   0.70606   0.00000  Uiso   1.00
H673   H     0.62764   0.13315   0.78978   0.00000  Uiso   1.00
H674   H     0.00557   0.07001   0.90553   0.00000  Uiso   1.00
H675   H     0.84449   0.03630   0.52537   0.00000  Uiso   1.00
H676   H     0.83395   0.93520   0.47248   0.00000  Uiso   1.00
H677   H     0.76193   0.10373   0.51218   0.00000  Uiso   1.00
H678   H     0.94115   0.07378   0.56707   0.00000  Uiso   1.00
H679   H     0.81660   0.81716   0.45229   0.00000  Uiso   1.00
H680   H     0.66477   0.17252   0.53602   0.00000  Uiso   1.00
H681   H     0.04269   0.10937   0.65176   0.00000  Uiso   1.00
O682   O     0.79030   0.73014   0.54972   0.00000  Uiso   1.00
O683   O     0.59110   0.19637   0.65957   0.00000  Uiso   1.00
O684   O     0.08693   0.11352   0.81142   0.00000  Uiso   1.00
N685   N     0.78967   0.80093   0.65360   0.00000  Uiso   1.00
N686   N     0.64771   0.13316   0.73187   0.00000  Uiso   1.00
N687   N     0.00103   0.07414   0.84008   0.00000  Uiso   1.00
N688   N     0.80965   0.82211   0.51705   0.00000  Uiso   1.00
N689   N     0.66769   0.15435   0.59532   0.00000  Uiso   1.00
N690   N     0.02101   0.09532   0.70353   0.00000  Uiso   1.00
C691   C     0.31107   0.50086   0.25387   0.00000  Uiso   1.00
C692   C     0.31006   0.45093   0.19287   0.00000  Uiso   1.00
C693   C     0.29808   0.39716   0.21764   0.00000  Uiso   1.00
C694   C     0.29931   0.35734   0.15202   0.00000  Uiso   1.00
C695   C     0.29578   0.27777   0.07056   0.00000  Uiso   1.00
C696   C     0.27093   0.54249   0.21443   0.00000  Uiso   1.00
C697   C     0.22605   0.56571   0.25734   0.00000  Uiso   1.00
C698   C     0.19434   0.60297   0.20988   0.00000  Uiso   1.00
C699   C     0.13008   0.66558   0.16193   0.00000  Uiso   1.00
C700   C     0.36830   0.52622   0.24425   0.00000  Uiso   1.00
C701   C     0.40530   0.53576   0.31224   0.00000  Uiso   1.00
C702   C     0.45557   0.55933   0.28989   0.00000  Uiso   1.00
C703   C     0.54251   0.59667   0.28824   0.00000  Uiso   1.00
C704   C     0.33456   0.52577   0.09328   0.00000  Uiso   1.00
C705   C     0.32282   0.46447   0.10564   0.00000  Uiso   1.00
C706   C     0.32407   0.42472   0.03997   0.00000  Uiso   1.00
C707   C     0.31209   0.37090   0.06464   0.00000  Uiso   1.00
C708   C     0.28368   0.55602   0.12721   0.00000  Uiso   1.00
C709   C     0.25204   0.59327   0.07968   0.00000  Uiso   1.00
C710   C     0.20712   0.61653   0.12250   0.00000  Uiso   1.00
C711   C     0.38107   0.53975   0.15703   0.00000  Uiso   1.00
C712   C     0.43129   0.56332   0.13457   0.00000  Uiso   1.00
C713   C     0.46836   0.57289   0.20251   0.00000  Uiso   1.00
H714   H     0.30113   0.49032   0.32177   0.00000  Uiso   1.00
H715   H     0.28820   0.38670   0.28515   0.00000  Uiso   1.00
H716   H     0.21619   0.55523   0.32484   0.00000  Uiso   1.00
H717   H     0.39541   0.52528   0.37973   0.00000  Uiso   1.00
H718   H     0.27947   0.27779   0.20606   0.00000  Uiso   1.00
H719   H     0.12764   0.63315   0.28978   0.00000  Uiso   1.00
H720   H     0.50557   0.57001   0.40553   0.00000  Uiso   1.00
H721   H     0.34449   0.53630   0.02537   0.00000  Uiso   1.00
H722   H     0.33395   0.43520   0.97248   0.00000  Uiso   1.00
H723   H     0.26193   0.60373   0.01218   0.00000  Uiso   1.00
H724   H     0.44115   0.57378   0.06707   0.00000  Uiso   1.00
H725   H     0.31660   0.31716   0.95229   0.00000  Uiso   1.00
H726   H     0.16477   0.67252   0.03602   0.00000  Uiso   1.00
H727   H     0.54269   0.60937   0.15176   0.00000  Uiso   1.00
O728   O     0.29030   0.23014   0.04972   0.00000  Uiso   1.00
O729   O     0.09110   0.69637   0.15957   0.00000  Uiso   1.00
O730   O     0.58693   0.61352   0.31142   0.00000  Uiso   1.00
N731   N     0.28967   0.30093   0.15360   0.00000  Uiso   1.00
N732   N     0.14771   0.63316   0.23187   0.00000  Uiso   1.00
N733   N     0.50103   0.57414   0.34008   0.00000  Uiso   1.00
N734   N     0.30965   0.32211   0.01705   0.00000  Uiso   1.00
N735   N     0.16769   0.65435   0.09532   0.00000  Uiso   1.00
N736   N     0.52101   0.59532   0.20353   0.00000  Uiso   1.00
