data_job_05596
_audit_creation_date              2018-12-19
_audit_creation_method            'Materials Studio'
_symmetry_space_group_name_H-M    'P1'
_symmetry_Int_Tables_number       1
_symmetry_cell_setting            triclinic
loop_
_symmetry_equiv_pos_as_xyz
  x,y,z
_cell_length_a                    23.8790
_cell_length_b                    23.8790
_cell_length_c                    16.8598
_cell_angle_alpha                 90.0000
_cell_angle_beta                  90.0000
_cell_angle_gamma                 90.0000
loop_
_atom_site_label
_atom_site_type_symbol
_atom_site_fract_x
_atom_site_fract_y
_atom_site_fract_z
_atom_site_U_iso_or_equiv
_atom_site_adp_type
_atom_site_occupancy
C1     C     0.04857   0.28495   0.34281   0.00000  Uiso   1.00
C2     C     0.01432   0.33337   0.37632   0.00000  Uiso   1.00
C3     C     0.96468   0.35387   0.34486   0.00000  Uiso   1.00
C4     C     0.93975   0.39843   0.38425   0.00000  Uiso   1.00
C5     C     0.88294   0.47011   0.42587   0.00000  Uiso   1.00
C6     C     0.10720   0.30814   0.32837   0.00000  Uiso   1.00
C7     C     0.13565   0.30742   0.25660   0.00000  Uiso   1.00
C8     C     0.18891   0.33073   0.25563   0.00000  Uiso   1.00
C9     C     0.27631   0.36320   0.22282   0.00000  Uiso   1.00
C10    C     0.05436   0.24259   0.40999   0.00000  Uiso   1.00
C11    C     0.03841   0.18675   0.40684   0.00000  Uiso   1.00
C12    C     0.04720   0.15487   0.47458   0.00000  Uiso   1.00
C13    C     0.05257   0.08557   0.56850   0.00000  Uiso   1.00
C14    C     0.09257   0.32763   0.46870   0.00000  Uiso   1.00
C15    C     0.03822   0.35656   0.44470   0.00000  Uiso   1.00
C16    C     0.01335   0.40110   0.48415   0.00000  Uiso   1.00
C17    C     0.96369   0.42166   0.45275   0.00000  Uiso   1.00
C18    C     0.13109   0.33132   0.39675   0.00000  Uiso   1.00
C19    C     0.18433   0.35464   0.39589   0.00000  Uiso   1.00
C20    C     0.21285   0.35396   0.32413   0.00000  Uiso   1.00
C21    C     0.07826   0.26578   0.47837   0.00000  Uiso   1.00
C22    C     0.08708   0.23398   0.54613   0.00000  Uiso   1.00
C23    C     0.07114   0.17810   0.54309   0.00000  Uiso   1.00
H24    H     0.02997   0.26690   0.28957   0.00000  Uiso   1.00
H25    H     0.94620   0.33592   0.29194   0.00000  Uiso   1.00
H26    H     0.11715   0.28947   0.20370   0.00000  Uiso   1.00
H27    H     0.01992   0.16882   0.35392   0.00000  Uiso   1.00
H28    H     0.86387   0.42268   0.32471   0.00000  Uiso   1.00
H29    H     0.22433   0.32472   0.13865   0.00000  Uiso   1.00
H30    H     0.01931   0.07031   0.45541   0.00000  Uiso   1.00
H31    H     0.11118   0.34568   0.52194   0.00000  Uiso   1.00
H32    H     0.03186   0.41903   0.53706   0.00000  Uiso   1.00
H33    H     0.20281   0.37258   0.44882   0.00000  Uiso   1.00
H34    H     0.10558   0.25193   0.59903   0.00000  Uiso   1.00
H35    H     0.93340   0.49014   0.52366   0.00000  Uiso   1.00
H36    H     0.29386   0.39217   0.33760   0.00000  Uiso   1.00
H37    H     0.08883   0.13777   0.65436   0.00000  Uiso   1.00
O38    O     0.84500   0.50325   0.42992   0.00000  Uiso   1.00
O39    O     0.31791   0.37471   0.18583   0.00000  Uiso   1.00
O40    O     0.04892   0.04094   0.60141   0.00000  Uiso   1.00
N41    N     0.89112   0.42848   0.36947   0.00000  Uiso   1.00
N42    N     0.22812   0.33690   0.19551   0.00000  Uiso   1.00
N43    N     0.03645   0.09905   0.49165   0.00000  Uiso   1.00
N44    N     0.92853   0.46478   0.47652   0.00000  Uiso   1.00
N45    N     0.26553   0.37320   0.30256   0.00000  Uiso   1.00
N46    N     0.07386   0.13534   0.59870   0.00000  Uiso   1.00
C47    C     0.54857   0.78495   0.84281   0.00000  Uiso   1.00
C48    C     0.51432   0.83337   0.87632   0.00000  Uiso   1.00
C49    C     0.46468   0.85387   0.84486   0.00000  Uiso   1.00
C50    C     0.43975   0.89843   0.88425   0.00000  Uiso   1.00
C51    C     0.38294   0.97011   0.92587   0.00000  Uiso   1.00
C52    C     0.60720   0.80814   0.82837   0.00000  Uiso   1.00
C53    C     0.63565   0.80742   0.75660   0.00000  Uiso   1.00
C54    C     0.68891   0.83073   0.75563   0.00000  Uiso   1.00
C55    C     0.77631   0.86320   0.72282   0.00000  Uiso   1.00
C56    C     0.55436   0.74259   0.90999   0.00000  Uiso   1.00
C57    C     0.53841   0.68675   0.90684   0.00000  Uiso   1.00
C58    C     0.54720   0.65487   0.97458   0.00000  Uiso   1.00
C59    C     0.55257   0.58557   0.06850   0.00000  Uiso   1.00
C60    C     0.59257   0.82763   0.96870   0.00000  Uiso   1.00
C61    C     0.53822   0.85656   0.94470   0.00000  Uiso   1.00
C62    C     0.51335   0.90110   0.98415   0.00000  Uiso   1.00
C63    C     0.46369   0.92166   0.95275   0.00000  Uiso   1.00
C64    C     0.63109   0.83132   0.89675   0.00000  Uiso   1.00
C65    C     0.68433   0.85464   0.89589   0.00000  Uiso   1.00
C66    C     0.71285   0.85396   0.82413   0.00000  Uiso   1.00
C67    C     0.57826   0.76578   0.97837   0.00000  Uiso   1.00
C68    C     0.58708   0.73398   0.04613   0.00000  Uiso   1.00
C69    C     0.57114   0.67810   0.04309   0.00000  Uiso   1.00
H70    H     0.52997   0.76690   0.78957   0.00000  Uiso   1.00
H71    H     0.44620   0.83592   0.79194   0.00000  Uiso   1.00
H72    H     0.61715   0.78947   0.70370   0.00000  Uiso   1.00
H73    H     0.51992   0.66882   0.85392   0.00000  Uiso   1.00
H74    H     0.36387   0.92268   0.82471   0.00000  Uiso   1.00
H75    H     0.72433   0.82472   0.63865   0.00000  Uiso   1.00
H76    H     0.51931   0.57031   0.95541   0.00000  Uiso   1.00
H77    H     0.61118   0.84568   0.02194   0.00000  Uiso   1.00
H78    H     0.53186   0.91903   0.03706   0.00000  Uiso   1.00
H79    H     0.70281   0.87258   0.94882   0.00000  Uiso   1.00
H80    H     0.60558   0.75193   0.09903   0.00000  Uiso   1.00
H81    H     0.43340   0.99014   0.02366   0.00000  Uiso   1.00
H82    H     0.79386   0.89217   0.83760   0.00000  Uiso   1.00
H83    H     0.58883   0.63777   0.15436   0.00000  Uiso   1.00
O84    O     0.34500   0.00325   0.92992   0.00000  Uiso   1.00
O85    O     0.81791   0.87471   0.68583   0.00000  Uiso   1.00
O86    O     0.54892   0.54094   0.10141   0.00000  Uiso   1.00
N87    N     0.39112   0.92848   0.86947   0.00000  Uiso   1.00
N88    N     0.72812   0.83690   0.69551   0.00000  Uiso   1.00
N89    N     0.53645   0.59905   0.99165   0.00000  Uiso   1.00
N90    N     0.42853   0.96478   0.97652   0.00000  Uiso   1.00
N91    N     0.76553   0.87320   0.80256   0.00000  Uiso   1.00
N92    N     0.57386   0.63534   0.09870   0.00000  Uiso   1.00
C93    C     0.45143   0.21505   0.84281   0.00000  Uiso   1.00
C94    C     0.48568   0.16663   0.87632   0.00000  Uiso   1.00
C95    C     0.53532   0.14613   0.84486   0.00000  Uiso   1.00
C96    C     0.56025   0.10157   0.88425   0.00000  Uiso   1.00
C97    C     0.61706   0.02989   0.92587   0.00000  Uiso   1.00
C98    C     0.39280   0.19186   0.82837   0.00000  Uiso   1.00
C99    C     0.36435   0.19258   0.75660   0.00000  Uiso   1.00
C100   C     0.31109   0.16927   0.75563   0.00000  Uiso   1.00
C101   C     0.22369   0.13680   0.72282   0.00000  Uiso   1.00
C102   C     0.44564   0.25741   0.90999   0.00000  Uiso   1.00
C103   C     0.46159   0.31325   0.90684   0.00000  Uiso   1.00
C104   C     0.45280   0.34513   0.97458   0.00000  Uiso   1.00
C105   C     0.44743   0.41443   0.06850   0.00000  Uiso   1.00
C106   C     0.40743   0.17237   0.96870   0.00000  Uiso   1.00
C107   C     0.46178   0.14344   0.94470   0.00000  Uiso   1.00
C108   C     0.48665   0.09890   0.98415   0.00000  Uiso   1.00
C109   C     0.53631   0.07834   0.95275   0.00000  Uiso   1.00
C110   C     0.36891   0.16868   0.89675   0.00000  Uiso   1.00
C111   C     0.31567   0.14536   0.89589   0.00000  Uiso   1.00
C112   C     0.28715   0.14604   0.82413   0.00000  Uiso   1.00
C113   C     0.42174   0.23422   0.97837   0.00000  Uiso   1.00
C114   C     0.41292   0.26602   0.04613   0.00000  Uiso   1.00
C115   C     0.42886   0.32190   0.04309   0.00000  Uiso   1.00
H116   H     0.47003   0.23310   0.78957   0.00000  Uiso   1.00
H117   H     0.55380   0.16408   0.79194   0.00000  Uiso   1.00
H118   H     0.38285   0.21053   0.70370   0.00000  Uiso   1.00
H119   H     0.48008   0.33118   0.85392   0.00000  Uiso   1.00
H120   H     0.63613   0.07732   0.82471   0.00000  Uiso   1.00
H121   H     0.27567   0.17528   0.63865   0.00000  Uiso   1.00
H122   H     0.48069   0.42969   0.95541   0.00000  Uiso   1.00
H123   H     0.38882   0.15432   0.02194   0.00000  Uiso   1.00
H124   H     0.46814   0.08097   0.03706   0.00000  Uiso   1.00
H125   H     0.29719   0.12742   0.94882   0.00000  Uiso   1.00
H126   H     0.39442   0.24807   0.09903   0.00000  Uiso   1.00
H127   H     0.56660   0.00986   0.02366   0.00000  Uiso   1.00
H128   H     0.20614   0.10783   0.83760   0.00000  Uiso   1.00
H129   H     0.41117   0.36223   0.15436   0.00000  Uiso   1.00
O130   O     0.65500   0.99675   0.92992   0.00000  Uiso   1.00
O131   O     0.18209   0.12529   0.68583   0.00000  Uiso   1.00
O132   O     0.45108   0.45906   0.10141   0.00000  Uiso   1.00
N133   N     0.60888   0.07152   0.86947   0.00000  Uiso   1.00
N134   N     0.27188   0.16310   0.69551   0.00000  Uiso   1.00
N135   N     0.46355   0.40095   0.99165   0.00000  Uiso   1.00
N136   N     0.57147   0.03522   0.97652   0.00000  Uiso   1.00
N137   N     0.23447   0.12680   0.80256   0.00000  Uiso   1.00
N138   N     0.42614   0.36466   0.09870   0.00000  Uiso   1.00
C139   C     0.95143   0.71505   0.34281   0.00000  Uiso   1.00
C140   C     0.98568   0.66663   0.37632   0.00000  Uiso   1.00
C141   C     0.03532   0.64613   0.34486   0.00000  Uiso   1.00
C142   C     0.06025   0.60157   0.38425   0.00000  Uiso   1.00
C143   C     0.11706   0.52989   0.42587   0.00000  Uiso   1.00
C144   C     0.89280   0.69186   0.32837   0.00000  Uiso   1.00
C145   C     0.86435   0.69258   0.25660   0.00000  Uiso   1.00
C146   C     0.81109   0.66927   0.25563   0.00000  Uiso   1.00
C147   C     0.72369   0.63680   0.22282   0.00000  Uiso   1.00
C148   C     0.94564   0.75741   0.40999   0.00000  Uiso   1.00
C149   C     0.96159   0.81325   0.40684   0.00000  Uiso   1.00
C150   C     0.95280   0.84513   0.47458   0.00000  Uiso   1.00
C151   C     0.94743   0.91443   0.56850   0.00000  Uiso   1.00
C152   C     0.90743   0.67237   0.46870   0.00000  Uiso   1.00
C153   C     0.96178   0.64344   0.44470   0.00000  Uiso   1.00
C154   C     0.98665   0.59890   0.48415   0.00000  Uiso   1.00
C155   C     0.03631   0.57834   0.45275   0.00000  Uiso   1.00
C156   C     0.86891   0.66868   0.39675   0.00000  Uiso   1.00
C157   C     0.81567   0.64536   0.39589   0.00000  Uiso   1.00
C158   C     0.78715   0.64604   0.32413   0.00000  Uiso   1.00
C159   C     0.92174   0.73422   0.47837   0.00000  Uiso   1.00
C160   C     0.91292   0.76602   0.54613   0.00000  Uiso   1.00
C161   C     0.92886   0.82190   0.54309   0.00000  Uiso   1.00
H162   H     0.97003   0.73310   0.28957   0.00000  Uiso   1.00
H163   H     0.05380   0.66408   0.29194   0.00000  Uiso   1.00
H164   H     0.88285   0.71053   0.20370   0.00000  Uiso   1.00
H165   H     0.98008   0.83118   0.35392   0.00000  Uiso   1.00
H166   H     0.13613   0.57732   0.32471   0.00000  Uiso   1.00
H167   H     0.77567   0.67528   0.13865   0.00000  Uiso   1.00
H168   H     0.98069   0.92969   0.45541   0.00000  Uiso   1.00
H169   H     0.88882   0.65432   0.52194   0.00000  Uiso   1.00
H170   H     0.96814   0.58097   0.53706   0.00000  Uiso   1.00
H171   H     0.79719   0.62742   0.44882   0.00000  Uiso   1.00
H172   H     0.89442   0.74807   0.59903   0.00000  Uiso   1.00
H173   H     0.06660   0.50986   0.52366   0.00000  Uiso   1.00
H174   H     0.70614   0.60783   0.33760   0.00000  Uiso   1.00
H175   H     0.91117   0.86223   0.65436   0.00000  Uiso   1.00
O176   O     0.15500   0.49675   0.42992   0.00000  Uiso   1.00
O177   O     0.68209   0.62529   0.18583   0.00000  Uiso   1.00
O178   O     0.95108   0.95906   0.60141   0.00000  Uiso   1.00
N179   N     0.10888   0.57152   0.36947   0.00000  Uiso   1.00
N180   N     0.77188   0.66310   0.19551   0.00000  Uiso   1.00
N181   N     0.96355   0.90095   0.49165   0.00000  Uiso   1.00
N182   N     0.07147   0.53522   0.47652   0.00000  Uiso   1.00
N183   N     0.73447   0.62680   0.30256   0.00000  Uiso   1.00
N184   N     0.92614   0.86466   0.59870   0.00000  Uiso   1.00
C185   C     0.71505   0.54857   0.59281   0.00000  Uiso   1.00
C186   C     0.66663   0.51432   0.62632   0.00000  Uiso   1.00
C187   C     0.64613   0.46468   0.59486   0.00000  Uiso   1.00
C188   C     0.60157   0.43975   0.63425   0.00000  Uiso   1.00
C189   C     0.52989   0.38294   0.67587   0.00000  Uiso   1.00
C190   C     0.69186   0.60720   0.57837   0.00000  Uiso   1.00
C191   C     0.69258   0.63565   0.50660   0.00000  Uiso   1.00
C192   C     0.66927   0.68891   0.50563   0.00000  Uiso   1.00
C193   C     0.63680   0.77631   0.47282   0.00000  Uiso   1.00
C194   C     0.75741   0.55436   0.65999   0.00000  Uiso   1.00
C195   C     0.81325   0.53841   0.65684   0.00000  Uiso   1.00
C196   C     0.84513   0.54720   0.72458   0.00000  Uiso   1.00
C197   C     0.91443   0.55257   0.81850   0.00000  Uiso   1.00
C198   C     0.67237   0.59257   0.71870   0.00000  Uiso   1.00
C199   C     0.64344   0.53822   0.69470   0.00000  Uiso   1.00
C200   C     0.59890   0.51335   0.73415   0.00000  Uiso   1.00
C201   C     0.57834   0.46369   0.70275   0.00000  Uiso   1.00
C202   C     0.66868   0.63109   0.64675   0.00000  Uiso   1.00
C203   C     0.64536   0.68433   0.64589   0.00000  Uiso   1.00
C204   C     0.64604   0.71285   0.57413   0.00000  Uiso   1.00
C205   C     0.73422   0.57826   0.72837   0.00000  Uiso   1.00
C206   C     0.76602   0.58708   0.79613   0.00000  Uiso   1.00
C207   C     0.82190   0.57114   0.79309   0.00000  Uiso   1.00
H208   H     0.73310   0.52997   0.53957   0.00000  Uiso   1.00
H209   H     0.66408   0.44620   0.54194   0.00000  Uiso   1.00
H210   H     0.71053   0.61715   0.45370   0.00000  Uiso   1.00
H211   H     0.83118   0.51992   0.60392   0.00000  Uiso   1.00
H212   H     0.57732   0.36387   0.57471   0.00000  Uiso   1.00
H213   H     0.67528   0.72433   0.38865   0.00000  Uiso   1.00
H214   H     0.92969   0.51931   0.70541   0.00000  Uiso   1.00
H215   H     0.65432   0.61118   0.77194   0.00000  Uiso   1.00
H216   H     0.58097   0.53186   0.78706   0.00000  Uiso   1.00
H217   H     0.62742   0.70281   0.69882   0.00000  Uiso   1.00
H218   H     0.74807   0.60558   0.84903   0.00000  Uiso   1.00
H219   H     0.50986   0.43340   0.77366   0.00000  Uiso   1.00
H220   H     0.60783   0.79386   0.58760   0.00000  Uiso   1.00
H221   H     0.86223   0.58883   0.90436   0.00000  Uiso   1.00
O222   O     0.49675   0.34500   0.67992   0.00000  Uiso   1.00
O223   O     0.62529   0.81791   0.43583   0.00000  Uiso   1.00
O224   O     0.95906   0.54892   0.85141   0.00000  Uiso   1.00
N225   N     0.57152   0.39112   0.61947   0.00000  Uiso   1.00
N226   N     0.66310   0.72812   0.44551   0.00000  Uiso   1.00
N227   N     0.90095   0.53645   0.74165   0.00000  Uiso   1.00
N228   N     0.53522   0.42853   0.72652   0.00000  Uiso   1.00
N229   N     0.62680   0.76553   0.55256   0.00000  Uiso   1.00
N230   N     0.86466   0.57386   0.84870   0.00000  Uiso   1.00
C231   C     0.21505   0.04857   0.09281   0.00000  Uiso   1.00
C232   C     0.16663   0.01432   0.12632   0.00000  Uiso   1.00
C233   C     0.14613   0.96468   0.09486   0.00000  Uiso   1.00
C234   C     0.10157   0.93975   0.13425   0.00000  Uiso   1.00
C235   C     0.02989   0.88294   0.17587   0.00000  Uiso   1.00
C236   C     0.19186   0.10720   0.07837   0.00000  Uiso   1.00
C237   C     0.19258   0.13565   0.00660   0.00000  Uiso   1.00
C238   C     0.16927   0.18891   0.00563   0.00000  Uiso   1.00
C239   C     0.13680   0.27631   0.97282   0.00000  Uiso   1.00
C240   C     0.25741   0.05436   0.15999   0.00000  Uiso   1.00
C241   C     0.31325   0.03841   0.15684   0.00000  Uiso   1.00
C242   C     0.34513   0.04720   0.22458   0.00000  Uiso   1.00
C243   C     0.41443   0.05257   0.31850   0.00000  Uiso   1.00
C244   C     0.17237   0.09257   0.21870   0.00000  Uiso   1.00
C245   C     0.14344   0.03822   0.19470   0.00000  Uiso   1.00
C246   C     0.09890   0.01335   0.23415   0.00000  Uiso   1.00
C247   C     0.07834   0.96369   0.20275   0.00000  Uiso   1.00
C248   C     0.16868   0.13109   0.14675   0.00000  Uiso   1.00
C249   C     0.14536   0.18433   0.14589   0.00000  Uiso   1.00
C250   C     0.14604   0.21285   0.07413   0.00000  Uiso   1.00
C251   C     0.23422   0.07826   0.22837   0.00000  Uiso   1.00
C252   C     0.26602   0.08708   0.29613   0.00000  Uiso   1.00
C253   C     0.32190   0.07114   0.29309   0.00000  Uiso   1.00
H254   H     0.23310   0.02997   0.03957   0.00000  Uiso   1.00
H255   H     0.16408   0.94620   0.04194   0.00000  Uiso   1.00
H256   H     0.21053   0.11715   0.95370   0.00000  Uiso   1.00
H257   H     0.33118   0.01992   0.10392   0.00000  Uiso   1.00
H258   H     0.07732   0.86387   0.07471   0.00000  Uiso   1.00
H259   H     0.17528   0.22433   0.88865   0.00000  Uiso   1.00
H260   H     0.42969   0.01931   0.20541   0.00000  Uiso   1.00
H261   H     0.15432   0.11118   0.27194   0.00000  Uiso   1.00
H262   H     0.08097   0.03186   0.28706   0.00000  Uiso   1.00
H263   H     0.12742   0.20281   0.19882   0.00000  Uiso   1.00
H264   H     0.24807   0.10558   0.34903   0.00000  Uiso   1.00
H265   H     0.00986   0.93340   0.27366   0.00000  Uiso   1.00
H266   H     0.10783   0.29386   0.08760   0.00000  Uiso   1.00
H267   H     0.36223   0.08883   0.40436   0.00000  Uiso   1.00
O268   O     0.99675   0.84500   0.17992   0.00000  Uiso   1.00
O269   O     0.12529   0.31791   0.93583   0.00000  Uiso   1.00
O270   O     0.45906   0.04892   0.35141   0.00000  Uiso   1.00
N271   N     0.07152   0.89112   0.11947   0.00000  Uiso   1.00
N272   N     0.16310   0.22812   0.94551   0.00000  Uiso   1.00
N273   N     0.40095   0.03645   0.24165   0.00000  Uiso   1.00
N274   N     0.03522   0.92853   0.22652   0.00000  Uiso   1.00
N275   N     0.12680   0.26553   0.05256   0.00000  Uiso   1.00
N276   N     0.36466   0.07386   0.34870   0.00000  Uiso   1.00
C277   C     0.78495   0.95143   0.09281   0.00000  Uiso   1.00
C278   C     0.83337   0.98568   0.12632   0.00000  Uiso   1.00
C279   C     0.85387   0.03532   0.09486   0.00000  Uiso   1.00
C280   C     0.89843   0.06025   0.13425   0.00000  Uiso   1.00
C281   C     0.97011   0.11706   0.17587   0.00000  Uiso   1.00
C282   C     0.80814   0.89280   0.07837   0.00000  Uiso   1.00
C283   C     0.80742   0.86435   0.00660   0.00000  Uiso   1.00
C284   C     0.83073   0.81109   0.00563   0.00000  Uiso   1.00
C285   C     0.86320   0.72369   0.97282   0.00000  Uiso   1.00
C286   C     0.74259   0.94564   0.15999   0.00000  Uiso   1.00
C287   C     0.68675   0.96159   0.15684   0.00000  Uiso   1.00
C288   C     0.65487   0.95280   0.22458   0.00000  Uiso   1.00
C289   C     0.58557   0.94743   0.31850   0.00000  Uiso   1.00
C290   C     0.82763   0.90743   0.21870   0.00000  Uiso   1.00
C291   C     0.85656   0.96178   0.19470   0.00000  Uiso   1.00
C292   C     0.90110   0.98665   0.23415   0.00000  Uiso   1.00
C293   C     0.92166   0.03631   0.20275   0.00000  Uiso   1.00
C294   C     0.83132   0.86891   0.14675   0.00000  Uiso   1.00
C295   C     0.85464   0.81567   0.14589   0.00000  Uiso   1.00
C296   C     0.85396   0.78715   0.07413   0.00000  Uiso   1.00
C297   C     0.76578   0.92174   0.22837   0.00000  Uiso   1.00
C298   C     0.73398   0.91292   0.29613   0.00000  Uiso   1.00
C299   C     0.67810   0.92886   0.29309   0.00000  Uiso   1.00
H300   H     0.76690   0.97003   0.03957   0.00000  Uiso   1.00
H301   H     0.83592   0.05380   0.04194   0.00000  Uiso   1.00
H302   H     0.78947   0.88285   0.95370   0.00000  Uiso   1.00
H303   H     0.66882   0.98008   0.10392   0.00000  Uiso   1.00
H304   H     0.92268   0.13613   0.07471   0.00000  Uiso   1.00
H305   H     0.82472   0.77567   0.88865   0.00000  Uiso   1.00
H306   H     0.57031   0.98069   0.20541   0.00000  Uiso   1.00
H307   H     0.84568   0.88882   0.27194   0.00000  Uiso   1.00
H308   H     0.91903   0.96814   0.28706   0.00000  Uiso   1.00
H309   H     0.87258   0.79719   0.19882   0.00000  Uiso   1.00
H310   H     0.75193   0.89442   0.34903   0.00000  Uiso   1.00
H311   H     0.99014   0.06660   0.27366   0.00000  Uiso   1.00
H312   H     0.89217   0.70614   0.08760   0.00000  Uiso   1.00
H313   H     0.63777   0.91117   0.40436   0.00000  Uiso   1.00
O314   O     0.00325   0.15500   0.17992   0.00000  Uiso   1.00
O315   O     0.87471   0.68209   0.93583   0.00000  Uiso   1.00
O316   O     0.54094   0.95108   0.35141   0.00000  Uiso   1.00
N317   N     0.92848   0.10888   0.11947   0.00000  Uiso   1.00
N318   N     0.83690   0.77188   0.94551   0.00000  Uiso   1.00
N319   N     0.59905   0.96355   0.24165   0.00000  Uiso   1.00
N320   N     0.96478   0.07147   0.22652   0.00000  Uiso   1.00
N321   N     0.87320   0.73447   0.05256   0.00000  Uiso   1.00
N322   N     0.63534   0.92614   0.34870   0.00000  Uiso   1.00
C323   C     0.28495   0.45143   0.59281   0.00000  Uiso   1.00
C324   C     0.33337   0.48568   0.62632   0.00000  Uiso   1.00
C325   C     0.35387   0.53532   0.59486   0.00000  Uiso   1.00
C326   C     0.39843   0.56025   0.63425   0.00000  Uiso   1.00
C327   C     0.47011   0.61706   0.67587   0.00000  Uiso   1.00
C328   C     0.30814   0.39280   0.57837   0.00000  Uiso   1.00
C329   C     0.30742   0.36435   0.50660   0.00000  Uiso   1.00
C330   C     0.33073   0.31109   0.50563   0.00000  Uiso   1.00
C331   C     0.36320   0.22369   0.47282   0.00000  Uiso   1.00
C332   C     0.24259   0.44564   0.65999   0.00000  Uiso   1.00
C333   C     0.18675   0.46159   0.65684   0.00000  Uiso   1.00
C334   C     0.15487   0.45280   0.72458   0.00000  Uiso   1.00
C335   C     0.08557   0.44743   0.81850   0.00000  Uiso   1.00
C336   C     0.32763   0.40743   0.71870   0.00000  Uiso   1.00
C337   C     0.35656   0.46178   0.69470   0.00000  Uiso   1.00
C338   C     0.40110   0.48665   0.73415   0.00000  Uiso   1.00
C339   C     0.42166   0.53631   0.70275   0.00000  Uiso   1.00
C340   C     0.33132   0.36891   0.64675   0.00000  Uiso   1.00
C341   C     0.35464   0.31567   0.64589   0.00000  Uiso   1.00
C342   C     0.35396   0.28715   0.57413   0.00000  Uiso   1.00
C343   C     0.26578   0.42174   0.72837   0.00000  Uiso   1.00
C344   C     0.23398   0.41292   0.79613   0.00000  Uiso   1.00
C345   C     0.17810   0.42886   0.79309   0.00000  Uiso   1.00
H346   H     0.26690   0.47003   0.53957   0.00000  Uiso   1.00
H347   H     0.33592   0.55380   0.54194   0.00000  Uiso   1.00
H348   H     0.28947   0.38285   0.45370   0.00000  Uiso   1.00
H349   H     0.16882   0.48008   0.60392   0.00000  Uiso   1.00
H350   H     0.42268   0.63613   0.57471   0.00000  Uiso   1.00
H351   H     0.32472   0.27567   0.38865   0.00000  Uiso   1.00
H352   H     0.07031   0.48069   0.70541   0.00000  Uiso   1.00
H353   H     0.34568   0.38882   0.77194   0.00000  Uiso   1.00
H354   H     0.41903   0.46814   0.78706   0.00000  Uiso   1.00
H355   H     0.37258   0.29719   0.69882   0.00000  Uiso   1.00
H356   H     0.25193   0.39442   0.84903   0.00000  Uiso   1.00
H357   H     0.49014   0.56660   0.77366   0.00000  Uiso   1.00
H358   H     0.39217   0.20614   0.58760   0.00000  Uiso   1.00
H359   H     0.13777   0.41117   0.90436   0.00000  Uiso   1.00
O360   O     0.50325   0.65500   0.67992   0.00000  Uiso   1.00
O361   O     0.37471   0.18209   0.43583   0.00000  Uiso   1.00
O362   O     0.04094   0.45108   0.85141   0.00000  Uiso   1.00
N363   N     0.42848   0.60888   0.61947   0.00000  Uiso   1.00
N364   N     0.33690   0.27188   0.44551   0.00000  Uiso   1.00
N365   N     0.09905   0.46355   0.74165   0.00000  Uiso   1.00
N366   N     0.46478   0.57147   0.72652   0.00000  Uiso   1.00
N367   N     0.37320   0.23447   0.55256   0.00000  Uiso   1.00
N368   N     0.13534   0.42614   0.84870   0.00000  Uiso   1.00
C369   C     0.95143   0.21505   0.90719   0.00000  Uiso   1.00
C370   C     0.98568   0.16663   0.87368   0.00000  Uiso   1.00
C371   C     0.03532   0.14613   0.90514   0.00000  Uiso   1.00
C372   C     0.06025   0.10157   0.86575   0.00000  Uiso   1.00
C373   C     0.11706   0.02989   0.82413   0.00000  Uiso   1.00
C374   C     0.89280   0.19186   0.92163   0.00000  Uiso   1.00
C375   C     0.86435   0.19258   0.99340   0.00000  Uiso   1.00
C376   C     0.81109   0.16927   0.99437   0.00000  Uiso   1.00
C377   C     0.72369   0.13680   0.02718   0.00000  Uiso   1.00
C378   C     0.94564   0.25741   0.84001   0.00000  Uiso   1.00
C379   C     0.96159   0.31325   0.84316   0.00000  Uiso   1.00
C380   C     0.95280   0.34513   0.77542   0.00000  Uiso   1.00
C381   C     0.94743   0.41443   0.68150   0.00000  Uiso   1.00
C382   C     0.90743   0.17237   0.78130   0.00000  Uiso   1.00
C383   C     0.96178   0.14344   0.80530   0.00000  Uiso   1.00
C384   C     0.98665   0.09890   0.76585   0.00000  Uiso   1.00
C385   C     0.03631   0.07834   0.79725   0.00000  Uiso   1.00
C386   C     0.86891   0.16868   0.85325   0.00000  Uiso   1.00
C387   C     0.81567   0.14536   0.85411   0.00000  Uiso   1.00
C388   C     0.78715   0.14604   0.92587   0.00000  Uiso   1.00
C389   C     0.92174   0.23422   0.77163   0.00000  Uiso   1.00
C390   C     0.91292   0.26602   0.70387   0.00000  Uiso   1.00
C391   C     0.92886   0.32190   0.70691   0.00000  Uiso   1.00
H392   H     0.97003   0.23310   0.96043   0.00000  Uiso   1.00
H393   H     0.05380   0.16408   0.95806   0.00000  Uiso   1.00
H394   H     0.88285   0.21053   0.04630   0.00000  Uiso   1.00
H395   H     0.98008   0.33118   0.89608   0.00000  Uiso   1.00
H396   H     0.13613   0.07732   0.92529   0.00000  Uiso   1.00
H397   H     0.77567   0.17528   0.11135   0.00000  Uiso   1.00
H398   H     0.98069   0.42969   0.79459   0.00000  Uiso   1.00
H399   H     0.88882   0.15432   0.72806   0.00000  Uiso   1.00
H400   H     0.96814   0.08097   0.71294   0.00000  Uiso   1.00
H401   H     0.79719   0.12742   0.80118   0.00000  Uiso   1.00
H402   H     0.89442   0.24807   0.65097   0.00000  Uiso   1.00
H403   H     0.06660   0.00986   0.72634   0.00000  Uiso   1.00
H404   H     0.70614   0.10783   0.91240   0.00000  Uiso   1.00
H405   H     0.91117   0.36223   0.59564   0.00000  Uiso   1.00
O406   O     0.15500   0.99675   0.82008   0.00000  Uiso   1.00
O407   O     0.68209   0.12529   0.06417   0.00000  Uiso   1.00
O408   O     0.95108   0.45906   0.64859   0.00000  Uiso   1.00
N409   N     0.10888   0.07152   0.88053   0.00000  Uiso   1.00
N410   N     0.77188   0.16310   0.05449   0.00000  Uiso   1.00
N411   N     0.96355   0.40095   0.75835   0.00000  Uiso   1.00
N412   N     0.07147   0.03522   0.77348   0.00000  Uiso   1.00
N413   N     0.73447   0.12680   0.94744   0.00000  Uiso   1.00
N414   N     0.92614   0.36466   0.65130   0.00000  Uiso   1.00
C415   C     0.45143   0.71505   0.40719   0.00000  Uiso   1.00
C416   C     0.48568   0.66663   0.37368   0.00000  Uiso   1.00
C417   C     0.53532   0.64613   0.40514   0.00000  Uiso   1.00
C418   C     0.56025   0.60157   0.36575   0.00000  Uiso   1.00
C419   C     0.61706   0.52989   0.32413   0.00000  Uiso   1.00
C420   C     0.39280   0.69186   0.42163   0.00000  Uiso   1.00
C421   C     0.36435   0.69258   0.49340   0.00000  Uiso   1.00
C422   C     0.31109   0.66927   0.49437   0.00000  Uiso   1.00
C423   C     0.22369   0.63680   0.52718   0.00000  Uiso   1.00
C424   C     0.44564   0.75741   0.34001   0.00000  Uiso   1.00
C425   C     0.46159   0.81325   0.34316   0.00000  Uiso   1.00
C426   C     0.45280   0.84513   0.27542   0.00000  Uiso   1.00
C427   C     0.44743   0.91443   0.18150   0.00000  Uiso   1.00
C428   C     0.40743   0.67237   0.28130   0.00000  Uiso   1.00
C429   C     0.46178   0.64344   0.30530   0.00000  Uiso   1.00
C430   C     0.48665   0.59890   0.26585   0.00000  Uiso   1.00
C431   C     0.53631   0.57834   0.29725   0.00000  Uiso   1.00
C432   C     0.36891   0.66868   0.35325   0.00000  Uiso   1.00
C433   C     0.31567   0.64536   0.35411   0.00000  Uiso   1.00
C434   C     0.28715   0.64604   0.42587   0.00000  Uiso   1.00
C435   C     0.42174   0.73422   0.27163   0.00000  Uiso   1.00
C436   C     0.41292   0.76602   0.20387   0.00000  Uiso   1.00
C437   C     0.42886   0.82190   0.20691   0.00000  Uiso   1.00
H438   H     0.47003   0.73310   0.46043   0.00000  Uiso   1.00
H439   H     0.55380   0.66408   0.45806   0.00000  Uiso   1.00
H440   H     0.38285   0.71053   0.54630   0.00000  Uiso   1.00
H441   H     0.48008   0.83118   0.39608   0.00000  Uiso   1.00
H442   H     0.63613   0.57732   0.42529   0.00000  Uiso   1.00
H443   H     0.27567   0.67528   0.61135   0.00000  Uiso   1.00
H444   H     0.48069   0.92969   0.29459   0.00000  Uiso   1.00
H445   H     0.38882   0.65432   0.22806   0.00000  Uiso   1.00
H446   H     0.46814   0.58097   0.21294   0.00000  Uiso   1.00
H447   H     0.29719   0.62742   0.30118   0.00000  Uiso   1.00
H448   H     0.39442   0.74807   0.15097   0.00000  Uiso   1.00
H449   H     0.56660   0.50986   0.22634   0.00000  Uiso   1.00
H450   H     0.20614   0.60783   0.41240   0.00000  Uiso   1.00
H451   H     0.41117   0.86223   0.09564   0.00000  Uiso   1.00
O452   O     0.65500   0.49675   0.32008   0.00000  Uiso   1.00
O453   O     0.18209   0.62529   0.56417   0.00000  Uiso   1.00
O454   O     0.45108   0.95906   0.14859   0.00000  Uiso   1.00
N455   N     0.60888   0.57152   0.38053   0.00000  Uiso   1.00
N456   N     0.27188   0.66310   0.55449   0.00000  Uiso   1.00
N457   N     0.46355   0.90095   0.25835   0.00000  Uiso   1.00
N458   N     0.57147   0.53522   0.27348   0.00000  Uiso   1.00
N459   N     0.23447   0.62680   0.44744   0.00000  Uiso   1.00
N460   N     0.42614   0.86466   0.15130   0.00000  Uiso   1.00
C461   C     0.54857   0.28495   0.40719   0.00000  Uiso   1.00
C462   C     0.51432   0.33337   0.37368   0.00000  Uiso   1.00
C463   C     0.46468   0.35387   0.40514   0.00000  Uiso   1.00
C464   C     0.43975   0.39843   0.36575   0.00000  Uiso   1.00
C465   C     0.38294   0.47011   0.32413   0.00000  Uiso   1.00
C466   C     0.60720   0.30814   0.42163   0.00000  Uiso   1.00
C467   C     0.63565   0.30742   0.49340   0.00000  Uiso   1.00
C468   C     0.68891   0.33073   0.49437   0.00000  Uiso   1.00
C469   C     0.77631   0.36320   0.52718   0.00000  Uiso   1.00
C470   C     0.55436   0.24259   0.34001   0.00000  Uiso   1.00
C471   C     0.53841   0.18675   0.34316   0.00000  Uiso   1.00
C472   C     0.54720   0.15487   0.27542   0.00000  Uiso   1.00
C473   C     0.55257   0.08557   0.18150   0.00000  Uiso   1.00
C474   C     0.59257   0.32763   0.28130   0.00000  Uiso   1.00
C475   C     0.53822   0.35656   0.30530   0.00000  Uiso   1.00
C476   C     0.51335   0.40110   0.26585   0.00000  Uiso   1.00
C477   C     0.46369   0.42166   0.29725   0.00000  Uiso   1.00
C478   C     0.63109   0.33132   0.35325   0.00000  Uiso   1.00
C479   C     0.68433   0.35464   0.35411   0.00000  Uiso   1.00
C480   C     0.71285   0.35396   0.42587   0.00000  Uiso   1.00
C481   C     0.57826   0.26578   0.27163   0.00000  Uiso   1.00
C482   C     0.58708   0.23398   0.20387   0.00000  Uiso   1.00
C483   C     0.57114   0.17810   0.20691   0.00000  Uiso   1.00
H484   H     0.52997   0.26690   0.46043   0.00000  Uiso   1.00
H485   H     0.44620   0.33592   0.45806   0.00000  Uiso   1.00
H486   H     0.61715   0.28947   0.54630   0.00000  Uiso   1.00
H487   H     0.51992   0.16882   0.39608   0.00000  Uiso   1.00
H488   H     0.36387   0.42268   0.42529   0.00000  Uiso   1.00
H489   H     0.72433   0.32472   0.61135   0.00000  Uiso   1.00
H490   H     0.51931   0.07031   0.29459   0.00000  Uiso   1.00
H491   H     0.61118   0.34568   0.22806   0.00000  Uiso   1.00
H492   H     0.53186   0.41903   0.21294   0.00000  Uiso   1.00
H493   H     0.70281   0.37258   0.30118   0.00000  Uiso   1.00
H494   H     0.60558   0.25193   0.15097   0.00000  Uiso   1.00
H495   H     0.43340   0.49014   0.22634   0.00000  Uiso   1.00
H496   H     0.79386   0.39217   0.41240   0.00000  Uiso   1.00
H497   H     0.58883   0.13777   0.09564   0.00000  Uiso   1.00
O498   O     0.34500   0.50325   0.32008   0.00000  Uiso   1.00
O499   O     0.81791   0.37471   0.56417   0.00000  Uiso   1.00
O500   O     0.54892   0.04094   0.14859   0.00000  Uiso   1.00
N501   N     0.39112   0.42848   0.38053   0.00000  Uiso   1.00
N502   N     0.72812   0.33690   0.55449   0.00000  Uiso   1.00
N503   N     0.53645   0.09905   0.25835   0.00000  Uiso   1.00
N504   N     0.42853   0.46478   0.27348   0.00000  Uiso   1.00
N505   N     0.76553   0.37320   0.44744   0.00000  Uiso   1.00
N506   N     0.57386   0.13534   0.15130   0.00000  Uiso   1.00
C507   C     0.04857   0.78495   0.90719   0.00000  Uiso   1.00
C508   C     0.01432   0.83337   0.87368   0.00000  Uiso   1.00
C509   C     0.96468   0.85387   0.90514   0.00000  Uiso   1.00
C510   C     0.93975   0.89843   0.86575   0.00000  Uiso   1.00
C511   C     0.88294   0.97011   0.82413   0.00000  Uiso   1.00
C512   C     0.10720   0.80814   0.92163   0.00000  Uiso   1.00
C513   C     0.13565   0.80742   0.99340   0.00000  Uiso   1.00
C514   C     0.18891   0.83073   0.99437   0.00000  Uiso   1.00
C515   C     0.27631   0.86320   0.02718   0.00000  Uiso   1.00
C516   C     0.05436   0.74259   0.84001   0.00000  Uiso   1.00
C517   C     0.03841   0.68675   0.84316   0.00000  Uiso   1.00
C518   C     0.04720   0.65487   0.77542   0.00000  Uiso   1.00
C519   C     0.05257   0.58557   0.68150   0.00000  Uiso   1.00
C520   C     0.09257   0.82763   0.78130   0.00000  Uiso   1.00
C521   C     0.03822   0.85656   0.80530   0.00000  Uiso   1.00
C522   C     0.01335   0.90110   0.76585   0.00000  Uiso   1.00
C523   C     0.96369   0.92166   0.79725   0.00000  Uiso   1.00
C524   C     0.13109   0.83132   0.85325   0.00000  Uiso   1.00
C525   C     0.18433   0.85464   0.85411   0.00000  Uiso   1.00
C526   C     0.21285   0.85396   0.92587   0.00000  Uiso   1.00
C527   C     0.07826   0.76578   0.77163   0.00000  Uiso   1.00
C528   C     0.08708   0.73398   0.70387   0.00000  Uiso   1.00
C529   C     0.07114   0.67810   0.70691   0.00000  Uiso   1.00
H530   H     0.02997   0.76690   0.96043   0.00000  Uiso   1.00
H531   H     0.94620   0.83592   0.95806   0.00000  Uiso   1.00
H532   H     0.11715   0.78947   0.04630   0.00000  Uiso   1.00
H533   H     0.01992   0.66882   0.89608   0.00000  Uiso   1.00
H534   H     0.86387   0.92268   0.92529   0.00000  Uiso   1.00
H535   H     0.22433   0.82472   0.11135   0.00000  Uiso   1.00
H536   H     0.01931   0.57031   0.79459   0.00000  Uiso   1.00
H537   H     0.11118   0.84568   0.72806   0.00000  Uiso   1.00
H538   H     0.03186   0.91903   0.71294   0.00000  Uiso   1.00
H539   H     0.20281   0.87258   0.80118   0.00000  Uiso   1.00
H540   H     0.10558   0.75193   0.65097   0.00000  Uiso   1.00
H541   H     0.93340   0.99014   0.72634   0.00000  Uiso   1.00
H542   H     0.29386   0.89217   0.91240   0.00000  Uiso   1.00
H543   H     0.08883   0.63777   0.59564   0.00000  Uiso   1.00
O544   O     0.84500   0.00325   0.82008   0.00000  Uiso   1.00
O545   O     0.31791   0.87471   0.06417   0.00000  Uiso   1.00
O546   O     0.04892   0.54094   0.64859   0.00000  Uiso   1.00
N547   N     0.89112   0.92848   0.88053   0.00000  Uiso   1.00
N548   N     0.22812   0.83690   0.05449   0.00000  Uiso   1.00
N549   N     0.03645   0.59905   0.75835   0.00000  Uiso   1.00
N550   N     0.92853   0.96478   0.77348   0.00000  Uiso   1.00
N551   N     0.26553   0.87320   0.94744   0.00000  Uiso   1.00
N552   N     0.07386   0.63534   0.65130   0.00000  Uiso   1.00
C553   C     0.28495   0.95143   0.65719   0.00000  Uiso   1.00
C554   C     0.33337   0.98568   0.62368   0.00000  Uiso   1.00
C555   C     0.35387   0.03532   0.65514   0.00000  Uiso   1.00
C556   C     0.39843   0.06025   0.61575   0.00000  Uiso   1.00
C557   C     0.47011   0.11706   0.57413   0.00000  Uiso   1.00
C558   C     0.30814   0.89280   0.67163   0.00000  Uiso   1.00
C559   C     0.30742   0.86435   0.74340   0.00000  Uiso   1.00
C560   C     0.33073   0.81109   0.74437   0.00000  Uiso   1.00
C561   C     0.36320   0.72369   0.77718   0.00000  Uiso   1.00
C562   C     0.24259   0.94564   0.59001   0.00000  Uiso   1.00
C563   C     0.18675   0.96159   0.59316   0.00000  Uiso   1.00
C564   C     0.15487   0.95280   0.52542   0.00000  Uiso   1.00
C565   C     0.08557   0.94743   0.43150   0.00000  Uiso   1.00
C566   C     0.32763   0.90743   0.53130   0.00000  Uiso   1.00
C567   C     0.35656   0.96178   0.55530   0.00000  Uiso   1.00
C568   C     0.40110   0.98665   0.51585   0.00000  Uiso   1.00
C569   C     0.42166   0.03631   0.54725   0.00000  Uiso   1.00
C570   C     0.33132   0.86891   0.60325   0.00000  Uiso   1.00
C571   C     0.35464   0.81567   0.60411   0.00000  Uiso   1.00
C572   C     0.35396   0.78715   0.67587   0.00000  Uiso   1.00
C573   C     0.26578   0.92174   0.52163   0.00000  Uiso   1.00
C574   C     0.23398   0.91292   0.45387   0.00000  Uiso   1.00
C575   C     0.17810   0.92886   0.45691   0.00000  Uiso   1.00
H576   H     0.26690   0.97003   0.71043   0.00000  Uiso   1.00
H577   H     0.33592   0.05380   0.70806   0.00000  Uiso   1.00
H578   H     0.28947   0.88285   0.79630   0.00000  Uiso   1.00
H579   H     0.16882   0.98008   0.64608   0.00000  Uiso   1.00
H580   H     0.42268   0.13613   0.67529   0.00000  Uiso   1.00
H581   H     0.32472   0.77567   0.86135   0.00000  Uiso   1.00
H582   H     0.07031   0.98069   0.54459   0.00000  Uiso   1.00
H583   H     0.34568   0.88882   0.47806   0.00000  Uiso   1.00
H584   H     0.41903   0.96814   0.46294   0.00000  Uiso   1.00
H585   H     0.37258   0.79719   0.55118   0.00000  Uiso   1.00
H586   H     0.25193   0.89442   0.40097   0.00000  Uiso   1.00
H587   H     0.49014   0.06660   0.47634   0.00000  Uiso   1.00
H588   H     0.39217   0.70614   0.66240   0.00000  Uiso   1.00
H589   H     0.13777   0.91117   0.34564   0.00000  Uiso   1.00
O590   O     0.50325   0.15500   0.57008   0.00000  Uiso   1.00
O591   O     0.37471   0.68209   0.81417   0.00000  Uiso   1.00
O592   O     0.04094   0.95108   0.39859   0.00000  Uiso   1.00
N593   N     0.42848   0.10888   0.63053   0.00000  Uiso   1.00
N594   N     0.33690   0.77188   0.80449   0.00000  Uiso   1.00
N595   N     0.09905   0.96355   0.50835   0.00000  Uiso   1.00
N596   N     0.46478   0.07147   0.52348   0.00000  Uiso   1.00
N597   N     0.37320   0.73447   0.69744   0.00000  Uiso   1.00
N598   N     0.13534   0.92614   0.40130   0.00000  Uiso   1.00
C599   C     0.78495   0.45143   0.15719   0.00000  Uiso   1.00
C600   C     0.83337   0.48568   0.12368   0.00000  Uiso   1.00
C601   C     0.85387   0.53532   0.15514   0.00000  Uiso   1.00
C602   C     0.89843   0.56025   0.11575   0.00000  Uiso   1.00
C603   C     0.97011   0.61706   0.07413   0.00000  Uiso   1.00
C604   C     0.80814   0.39280   0.17163   0.00000  Uiso   1.00
C605   C     0.80742   0.36435   0.24340   0.00000  Uiso   1.00
C606   C     0.83073   0.31109   0.24437   0.00000  Uiso   1.00
C607   C     0.86320   0.22369   0.27718   0.00000  Uiso   1.00
C608   C     0.74259   0.44564   0.09001   0.00000  Uiso   1.00
C609   C     0.68675   0.46159   0.09316   0.00000  Uiso   1.00
C610   C     0.65487   0.45280   0.02542   0.00000  Uiso   1.00
C611   C     0.58557   0.44743   0.93150   0.00000  Uiso   1.00
C612   C     0.82763   0.40743   0.03130   0.00000  Uiso   1.00
C613   C     0.85656   0.46178   0.05530   0.00000  Uiso   1.00
C614   C     0.90110   0.48665   0.01585   0.00000  Uiso   1.00
C615   C     0.92166   0.53631   0.04725   0.00000  Uiso   1.00
C616   C     0.83132   0.36891   0.10325   0.00000  Uiso   1.00
C617   C     0.85464   0.31567   0.10411   0.00000  Uiso   1.00
C618   C     0.85396   0.28715   0.17587   0.00000  Uiso   1.00
C619   C     0.76578   0.42174   0.02163   0.00000  Uiso   1.00
C620   C     0.73398   0.41292   0.95387   0.00000  Uiso   1.00
C621   C     0.67810   0.42886   0.95691   0.00000  Uiso   1.00
H622   H     0.76690   0.47003   0.21043   0.00000  Uiso   1.00
H623   H     0.83592   0.55380   0.20806   0.00000  Uiso   1.00
H624   H     0.78947   0.38285   0.29630   0.00000  Uiso   1.00
H625   H     0.66882   0.48008   0.14608   0.00000  Uiso   1.00
H626   H     0.92268   0.63613   0.17529   0.00000  Uiso   1.00
H627   H     0.82472   0.27567   0.36135   0.00000  Uiso   1.00
H628   H     0.57031   0.48069   0.04459   0.00000  Uiso   1.00
H629   H     0.84568   0.38882   0.97806   0.00000  Uiso   1.00
H630   H     0.91903   0.46814   0.96294   0.00000  Uiso   1.00
H631   H     0.87258   0.29719   0.05118   0.00000  Uiso   1.00
H632   H     0.75193   0.39442   0.90097   0.00000  Uiso   1.00
H633   H     0.99014   0.56660   0.97634   0.00000  Uiso   1.00
H634   H     0.89217   0.20614   0.16240   0.00000  Uiso   1.00
H635   H     0.63777   0.41117   0.84564   0.00000  Uiso   1.00
O636   O     0.00325   0.65500   0.07008   0.00000  Uiso   1.00
O637   O     0.87471   0.18209   0.31417   0.00000  Uiso   1.00
O638   O     0.54094   0.45108   0.89859   0.00000  Uiso   1.00
N639   N     0.92848   0.60888   0.13053   0.00000  Uiso   1.00
N640   N     0.83690   0.27188   0.30449   0.00000  Uiso   1.00
N641   N     0.59905   0.46355   0.00835   0.00000  Uiso   1.00
N642   N     0.96478   0.57147   0.02348   0.00000  Uiso   1.00
N643   N     0.87320   0.23447   0.19744   0.00000  Uiso   1.00
N644   N     0.63534   0.42614   0.90130   0.00000  Uiso   1.00
C645   C     0.21505   0.54857   0.15719   0.00000  Uiso   1.00
C646   C     0.16663   0.51432   0.12368   0.00000  Uiso   1.00
C647   C     0.14613   0.46468   0.15514   0.00000  Uiso   1.00
C648   C     0.10157   0.43975   0.11575   0.00000  Uiso   1.00
C649   C     0.02989   0.38294   0.07413   0.00000  Uiso   1.00
C650   C     0.19186   0.60720   0.17163   0.00000  Uiso   1.00
C651   C     0.19258   0.63565   0.24340   0.00000  Uiso   1.00
C652   C     0.16927   0.68891   0.24437   0.00000  Uiso   1.00
C653   C     0.13680   0.77631   0.27718   0.00000  Uiso   1.00
C654   C     0.25741   0.55436   0.09001   0.00000  Uiso   1.00
C655   C     0.31325   0.53841   0.09316   0.00000  Uiso   1.00
C656   C     0.34513   0.54720   0.02542   0.00000  Uiso   1.00
C657   C     0.41443   0.55257   0.93150   0.00000  Uiso   1.00
C658   C     0.17237   0.59257   0.03130   0.00000  Uiso   1.00
C659   C     0.14344   0.53822   0.05530   0.00000  Uiso   1.00
C660   C     0.09890   0.51335   0.01585   0.00000  Uiso   1.00
C661   C     0.07834   0.46369   0.04725   0.00000  Uiso   1.00
C662   C     0.16868   0.63109   0.10325   0.00000  Uiso   1.00
C663   C     0.14536   0.68433   0.10411   0.00000  Uiso   1.00
C664   C     0.14604   0.71285   0.17587   0.00000  Uiso   1.00
C665   C     0.23422   0.57826   0.02163   0.00000  Uiso   1.00
C666   C     0.26602   0.58708   0.95387   0.00000  Uiso   1.00
C667   C     0.32190   0.57114   0.95691   0.00000  Uiso   1.00
H668   H     0.23310   0.52997   0.21043   0.00000  Uiso   1.00
H669   H     0.16408   0.44620   0.20806   0.00000  Uiso   1.00
H670   H     0.21053   0.61715   0.29630   0.00000  Uiso   1.00
H671   H     0.33118   0.51992   0.14608   0.00000  Uiso   1.00
H672   H     0.07732   0.36387   0.17529   0.00000  Uiso   1.00
H673   H     0.17528   0.72433   0.36135   0.00000  Uiso   1.00
H674   H     0.42969   0.51931   0.04459   0.00000  Uiso   1.00
H675   H     0.15432   0.61118   0.97806   0.00000  Uiso   1.00
H676   H     0.08097   0.53186   0.96294   0.00000  Uiso   1.00
H677   H     0.12742   0.70281   0.05118   0.00000  Uiso   1.00
H678   H     0.24807   0.60558   0.90097   0.00000  Uiso   1.00
H679   H     0.00986   0.43340   0.97634   0.00000  Uiso   1.00
H680   H     0.10783   0.79386   0.16240   0.00000  Uiso   1.00
H681   H     0.36223   0.58883   0.84564   0.00000  Uiso   1.00
O682   O     0.99675   0.34500   0.07008   0.00000  Uiso   1.00
O683   O     0.12529   0.81791   0.31417   0.00000  Uiso   1.00
O684   O     0.45906   0.54892   0.89859   0.00000  Uiso   1.00
N685   N     0.07152   0.39112   0.13053   0.00000  Uiso   1.00
N686   N     0.16310   0.72812   0.30449   0.00000  Uiso   1.00
N687   N     0.40095   0.53645   0.00835   0.00000  Uiso   1.00
N688   N     0.03522   0.42853   0.02348   0.00000  Uiso   1.00
N689   N     0.12680   0.76553   0.19744   0.00000  Uiso   1.00
N690   N     0.36466   0.57386   0.90130   0.00000  Uiso   1.00
C691   C     0.71505   0.04857   0.65719   0.00000  Uiso   1.00
C692   C     0.66663   0.01432   0.62368   0.00000  Uiso   1.00
C693   C     0.64613   0.96468   0.65514   0.00000  Uiso   1.00
C694   C     0.60157   0.93975   0.61575   0.00000  Uiso   1.00
C695   C     0.52989   0.88294   0.57413   0.00000  Uiso   1.00
C696   C     0.69186   0.10720   0.67163   0.00000  Uiso   1.00
C697   C     0.69258   0.13565   0.74340   0.00000  Uiso   1.00
C698   C     0.66927   0.18891   0.74437   0.00000  Uiso   1.00
C699   C     0.63680   0.27631   0.77718   0.00000  Uiso   1.00
C700   C     0.75741   0.05436   0.59001   0.00000  Uiso   1.00
C701   C     0.81325   0.03841   0.59316   0.00000  Uiso   1.00
C702   C     0.84513   0.04720   0.52542   0.00000  Uiso   1.00
C703   C     0.91443   0.05257   0.43150   0.00000  Uiso   1.00
C704   C     0.67237   0.09257   0.53130   0.00000  Uiso   1.00
C705   C     0.64344   0.03822   0.55530   0.00000  Uiso   1.00
C706   C     0.59890   0.01335   0.51585   0.00000  Uiso   1.00
C707   C     0.57834   0.96369   0.54725   0.00000  Uiso   1.00
C708   C     0.66868   0.13109   0.60325   0.00000  Uiso   1.00
C709   C     0.64536   0.18433   0.60411   0.00000  Uiso   1.00
C710   C     0.64604   0.21285   0.67587   0.00000  Uiso   1.00
C711   C     0.73422   0.07826   0.52163   0.00000  Uiso   1.00
C712   C     0.76602   0.08708   0.45387   0.00000  Uiso   1.00
C713   C     0.82190   0.07114   0.45691   0.00000  Uiso   1.00
H714   H     0.73310   0.02997   0.71043   0.00000  Uiso   1.00
H715   H     0.66408   0.94620   0.70806   0.00000  Uiso   1.00
H716   H     0.71053   0.11715   0.79630   0.00000  Uiso   1.00
H717   H     0.83118   0.01992   0.64608   0.00000  Uiso   1.00
H718   H     0.57732   0.86387   0.67529   0.00000  Uiso   1.00
H719   H     0.67528   0.22433   0.86135   0.00000  Uiso   1.00
H720   H     0.92969   0.01931   0.54459   0.00000  Uiso   1.00
H721   H     0.65432   0.11118   0.47806   0.00000  Uiso   1.00
H722   H     0.58097   0.03186   0.46294   0.00000  Uiso   1.00
H723   H     0.62742   0.20281   0.55118   0.00000  Uiso   1.00
H724   H     0.74807   0.10558   0.40097   0.00000  Uiso   1.00
H725   H     0.50986   0.93340   0.47634   0.00000  Uiso   1.00
H726   H     0.60783   0.29386   0.66240   0.00000  Uiso   1.00
H727   H     0.86223   0.08883   0.34564   0.00000  Uiso   1.00
O728   O     0.49675   0.84500   0.57008   0.00000  Uiso   1.00
O729   O     0.62529   0.31791   0.81417   0.00000  Uiso   1.00
O730   O     0.95906   0.04892   0.39859   0.00000  Uiso   1.00
N731   N     0.57152   0.89112   0.63053   0.00000  Uiso   1.00
N732   N     0.66310   0.22812   0.80449   0.00000  Uiso   1.00
N733   N     0.90095   0.03645   0.50835   0.00000  Uiso   1.00
N734   N     0.53522   0.92853   0.52348   0.00000  Uiso   1.00
N735   N     0.62680   0.26553   0.69744   0.00000  Uiso   1.00
N736   N     0.86466   0.07386   0.40130   0.00000  Uiso   1.00
