data_job_01894
_audit_creation_date              2018-12-19
_audit_creation_method            'Materials Studio'
_symmetry_space_group_name_H-M    'P1'
_symmetry_Int_Tables_number       1
_symmetry_cell_setting            triclinic
loop_
_symmetry_equiv_pos_as_xyz
  x,y,z
_cell_length_a                    54.2807
_cell_length_b                    21.9826
_cell_length_c                    8.6466
_cell_angle_alpha                 90.0000
_cell_angle_beta                  90.0000
_cell_angle_gamma                 90.0000
loop_
_atom_site_label
_atom_site_type_symbol
_atom_site_fract_x
_atom_site_fract_y
_atom_site_fract_z
_atom_site_U_iso_or_equiv
_atom_site_adp_type
_atom_site_occupancy
C1     C     0.43536   0.15922   0.30987   0.00000  Uiso   1.00
C2     C     0.42258   0.17319   0.15687   0.00000  Uiso   1.00
C3     C     0.40728   0.22250   0.12827   0.00000  Uiso   1.00
C4     C     0.39738   0.22721   0.98072   0.00000  Uiso   1.00
C5     C     0.37673   0.25544   0.76062   0.00000  Uiso   1.00
C6     C     0.42730   0.09516   0.35476   0.00000  Uiso   1.00
C7     C     0.41596   0.07887   0.49255   0.00000  Uiso   1.00
C8     C     0.41003   0.01789   0.51159   0.00000  Uiso   1.00
C9     C     0.39672   0.92497   0.59877   0.00000  Uiso   1.00
C10    C     0.46279   0.15495   0.27326   0.00000  Uiso   1.00
C11    C     0.48130   0.18891   0.34256   0.00000  Uiso   1.00
C12    C     0.50524   0.17826   0.29300   0.00000  Uiso   1.00
C13    C     0.54703   0.17817   0.25364   0.00000  Uiso   1.00
C14    C     0.44497   0.07989   0.09868   0.00000  Uiso   1.00
C15    C     0.42780   0.13010   0.04217   0.00000  Uiso   1.00
C16    C     0.41792   0.13473   0.89461   0.00000  Uiso   1.00
C17    C     0.40261   0.18405   0.86580   0.00000  Uiso   1.00
C18    C     0.43252   0.05207   0.24006   0.00000  Uiso   1.00
C19    C     0.42660   0.99110   0.25890   0.00000  Uiso   1.00
C20    C     0.41526   0.97472   0.39668   0.00000  Uiso   1.00
C21    C     0.46801   0.11186   0.15855   0.00000  Uiso   1.00
C22    C     0.49193   0.10115   0.10889   0.00000  Uiso   1.00
C23    C     0.51047   0.13509   0.17808   0.00000  Uiso   1.00
H24    H     0.43130   0.19276   0.39918   0.00000  Uiso   1.00
H25    H     0.40325   0.25583   0.21708   0.00000  Uiso   1.00
H26    H     0.41193   0.11222   0.58131   0.00000  Uiso   1.00
H27    H     0.47725   0.22225   0.43132   0.00000  Uiso   1.00
H28    H     0.37445   0.30675   0.96461   0.00000  Uiso   1.00
H29    H     0.39276   0.00393   0.73263   0.00000  Uiso   1.00
H30    H     0.53050   0.23595   0.41636   0.00000  Uiso   1.00
H31    H     0.44904   0.04634   0.00938   0.00000  Uiso   1.00
H32    H     0.42196   0.10138   0.80587   0.00000  Uiso   1.00
H33    H     0.43064   0.95777   0.17011   0.00000  Uiso   1.00
H34    H     0.49596   0.06780   0.02012   0.00000  Uiso   1.00
H35    H     0.38963   0.18139   0.63086   0.00000  Uiso   1.00
H36    H     0.40794   0.87857   0.39889   0.00000  Uiso   1.00
H37    H     0.54569   0.11059   0.08261   0.00000  Uiso   1.00
O38    O     0.36390   0.28290   0.67091   0.00000  Uiso   1.00
O39    O     0.38793   0.88562   0.67854   0.00000  Uiso   1.00
O40    O     0.56864   0.19003   0.26359   0.00000  Uiso   1.00
N41    N     0.38174   0.26970   0.91398   0.00000  Uiso   1.00
N42    N     0.39886   0.98658   0.63202   0.00000  Uiso   1.00
N43    N     0.52763   0.20349   0.33637   0.00000  Uiso   1.00
N44    N     0.38991   0.20224   0.73439   0.00000  Uiso   1.00
N45    N     0.40703   0.91913   0.45244   0.00000  Uiso   1.00
N46    N     0.53581   0.13604   0.15678   0.00000  Uiso   1.00
C47    C     0.43536   0.65922   0.80987   0.00000  Uiso   1.00
C48    C     0.42258   0.67319   0.65687   0.00000  Uiso   1.00
C49    C     0.40728   0.72250   0.62827   0.00000  Uiso   1.00
C50    C     0.39738   0.72721   0.48072   0.00000  Uiso   1.00
C51    C     0.37673   0.75544   0.26062   0.00000  Uiso   1.00
C52    C     0.42730   0.59516   0.85476   0.00000  Uiso   1.00
C53    C     0.41596   0.57887   0.99255   0.00000  Uiso   1.00
C54    C     0.41003   0.51789   0.01159   0.00000  Uiso   1.00
C55    C     0.39672   0.42497   0.09877   0.00000  Uiso   1.00
C56    C     0.46279   0.65495   0.77326   0.00000  Uiso   1.00
C57    C     0.48130   0.68891   0.84256   0.00000  Uiso   1.00
C58    C     0.50524   0.67826   0.79300   0.00000  Uiso   1.00
C59    C     0.54703   0.67817   0.75364   0.00000  Uiso   1.00
C60    C     0.44497   0.57989   0.59868   0.00000  Uiso   1.00
C61    C     0.42780   0.63010   0.54217   0.00000  Uiso   1.00
C62    C     0.41792   0.63473   0.39461   0.00000  Uiso   1.00
C63    C     0.40261   0.68405   0.36580   0.00000  Uiso   1.00
C64    C     0.43252   0.55207   0.74006   0.00000  Uiso   1.00
C65    C     0.42660   0.49110   0.75890   0.00000  Uiso   1.00
C66    C     0.41526   0.47472   0.89668   0.00000  Uiso   1.00
C67    C     0.46801   0.61186   0.65855   0.00000  Uiso   1.00
C68    C     0.49193   0.60115   0.60889   0.00000  Uiso   1.00
C69    C     0.51047   0.63509   0.67808   0.00000  Uiso   1.00
H70    H     0.43130   0.69276   0.89918   0.00000  Uiso   1.00
H71    H     0.40325   0.75583   0.71708   0.00000  Uiso   1.00
H72    H     0.41193   0.61222   0.08131   0.00000  Uiso   1.00
H73    H     0.47725   0.72225   0.93132   0.00000  Uiso   1.00
H74    H     0.37445   0.80675   0.46461   0.00000  Uiso   1.00
H75    H     0.39276   0.50393   0.23263   0.00000  Uiso   1.00
H76    H     0.53050   0.73595   0.91636   0.00000  Uiso   1.00
H77    H     0.44904   0.54634   0.50938   0.00000  Uiso   1.00
H78    H     0.42196   0.60138   0.30587   0.00000  Uiso   1.00
H79    H     0.43064   0.45777   0.67011   0.00000  Uiso   1.00
H80    H     0.49596   0.56780   0.52012   0.00000  Uiso   1.00
H81    H     0.38963   0.68139   0.13086   0.00000  Uiso   1.00
H82    H     0.40794   0.37857   0.89889   0.00000  Uiso   1.00
H83    H     0.54569   0.61059   0.58261   0.00000  Uiso   1.00
O84    O     0.36390   0.78290   0.17091   0.00000  Uiso   1.00
O85    O     0.38793   0.38562   0.17854   0.00000  Uiso   1.00
O86    O     0.56864   0.69003   0.76359   0.00000  Uiso   1.00
N87    N     0.38174   0.76970   0.41398   0.00000  Uiso   1.00
N88    N     0.39886   0.48658   0.13202   0.00000  Uiso   1.00
N89    N     0.52763   0.70349   0.83637   0.00000  Uiso   1.00
N90    N     0.38991   0.70224   0.23439   0.00000  Uiso   1.00
N91    N     0.40703   0.41913   0.95244   0.00000  Uiso   1.00
N92    N     0.53581   0.63604   0.65678   0.00000  Uiso   1.00
C93    C     0.93536   0.15922   0.80987   0.00000  Uiso   1.00
C94    C     0.92258   0.17319   0.65687   0.00000  Uiso   1.00
C95    C     0.90728   0.22250   0.62827   0.00000  Uiso   1.00
C96    C     0.89738   0.22721   0.48072   0.00000  Uiso   1.00
C97    C     0.87673   0.25544   0.26062   0.00000  Uiso   1.00
C98    C     0.92730   0.09516   0.85476   0.00000  Uiso   1.00
C99    C     0.91596   0.07887   0.99255   0.00000  Uiso   1.00
C100   C     0.91003   0.01789   0.01159   0.00000  Uiso   1.00
C101   C     0.89672   0.92497   0.09877   0.00000  Uiso   1.00
C102   C     0.96279   0.15495   0.77326   0.00000  Uiso   1.00
C103   C     0.98130   0.18891   0.84256   0.00000  Uiso   1.00
C104   C     0.00524   0.17826   0.79300   0.00000  Uiso   1.00
C105   C     0.04703   0.17817   0.75364   0.00000  Uiso   1.00
C106   C     0.94497   0.07989   0.59868   0.00000  Uiso   1.00
C107   C     0.92780   0.13010   0.54217   0.00000  Uiso   1.00
C108   C     0.91792   0.13473   0.39461   0.00000  Uiso   1.00
C109   C     0.90261   0.18405   0.36580   0.00000  Uiso   1.00
C110   C     0.93252   0.05207   0.74006   0.00000  Uiso   1.00
C111   C     0.92660   0.99110   0.75890   0.00000  Uiso   1.00
C112   C     0.91526   0.97472   0.89668   0.00000  Uiso   1.00
C113   C     0.96801   0.11186   0.65855   0.00000  Uiso   1.00
C114   C     0.99193   0.10115   0.60889   0.00000  Uiso   1.00
C115   C     0.01047   0.13509   0.67808   0.00000  Uiso   1.00
H116   H     0.93130   0.19276   0.89918   0.00000  Uiso   1.00
H117   H     0.90325   0.25583   0.71708   0.00000  Uiso   1.00
H118   H     0.91193   0.11222   0.08131   0.00000  Uiso   1.00
H119   H     0.97725   0.22225   0.93132   0.00000  Uiso   1.00
H120   H     0.87445   0.30675   0.46461   0.00000  Uiso   1.00
H121   H     0.89276   0.00393   0.23263   0.00000  Uiso   1.00
H122   H     0.03050   0.23595   0.91636   0.00000  Uiso   1.00
H123   H     0.94904   0.04634   0.50938   0.00000  Uiso   1.00
H124   H     0.92196   0.10138   0.30587   0.00000  Uiso   1.00
H125   H     0.93064   0.95777   0.67011   0.00000  Uiso   1.00
H126   H     0.99596   0.06780   0.52012   0.00000  Uiso   1.00
H127   H     0.88963   0.18139   0.13086   0.00000  Uiso   1.00
H128   H     0.90794   0.87857   0.89889   0.00000  Uiso   1.00
H129   H     0.04569   0.11059   0.58261   0.00000  Uiso   1.00
O130   O     0.86390   0.28290   0.17091   0.00000  Uiso   1.00
O131   O     0.88793   0.88562   0.17854   0.00000  Uiso   1.00
O132   O     0.06864   0.19003   0.76359   0.00000  Uiso   1.00
N133   N     0.88174   0.26970   0.41398   0.00000  Uiso   1.00
N134   N     0.89886   0.98658   0.13202   0.00000  Uiso   1.00
N135   N     0.02763   0.20349   0.83637   0.00000  Uiso   1.00
N136   N     0.88991   0.20224   0.23439   0.00000  Uiso   1.00
N137   N     0.90703   0.91913   0.95244   0.00000  Uiso   1.00
N138   N     0.03581   0.13604   0.65678   0.00000  Uiso   1.00
C139   C     0.93536   0.65922   0.30987   0.00000  Uiso   1.00
C140   C     0.92258   0.67319   0.15687   0.00000  Uiso   1.00
C141   C     0.90728   0.72250   0.12827   0.00000  Uiso   1.00
C142   C     0.89738   0.72721   0.98072   0.00000  Uiso   1.00
C143   C     0.87673   0.75544   0.76062   0.00000  Uiso   1.00
C144   C     0.92730   0.59516   0.35476   0.00000  Uiso   1.00
C145   C     0.91596   0.57887   0.49255   0.00000  Uiso   1.00
C146   C     0.91003   0.51789   0.51159   0.00000  Uiso   1.00
C147   C     0.89672   0.42497   0.59877   0.00000  Uiso   1.00
C148   C     0.96279   0.65495   0.27326   0.00000  Uiso   1.00
C149   C     0.98130   0.68891   0.34256   0.00000  Uiso   1.00
C150   C     0.00524   0.67826   0.29300   0.00000  Uiso   1.00
C151   C     0.04703   0.67817   0.25364   0.00000  Uiso   1.00
C152   C     0.94497   0.57989   0.09868   0.00000  Uiso   1.00
C153   C     0.92780   0.63010   0.04217   0.00000  Uiso   1.00
C154   C     0.91792   0.63473   0.89461   0.00000  Uiso   1.00
C155   C     0.90261   0.68405   0.86580   0.00000  Uiso   1.00
C156   C     0.93252   0.55207   0.24006   0.00000  Uiso   1.00
C157   C     0.92660   0.49110   0.25890   0.00000  Uiso   1.00
C158   C     0.91526   0.47472   0.39668   0.00000  Uiso   1.00
C159   C     0.96801   0.61186   0.15855   0.00000  Uiso   1.00
C160   C     0.99193   0.60115   0.10889   0.00000  Uiso   1.00
C161   C     0.01047   0.63509   0.17808   0.00000  Uiso   1.00
H162   H     0.93130   0.69276   0.39918   0.00000  Uiso   1.00
H163   H     0.90325   0.75583   0.21708   0.00000  Uiso   1.00
H164   H     0.91193   0.61222   0.58131   0.00000  Uiso   1.00
H165   H     0.97725   0.72225   0.43132   0.00000  Uiso   1.00
H166   H     0.87445   0.80675   0.96461   0.00000  Uiso   1.00
H167   H     0.89276   0.50393   0.73263   0.00000  Uiso   1.00
H168   H     0.03050   0.73595   0.41636   0.00000  Uiso   1.00
H169   H     0.94904   0.54634   0.00938   0.00000  Uiso   1.00
H170   H     0.92196   0.60138   0.80587   0.00000  Uiso   1.00
H171   H     0.93064   0.45777   0.17011   0.00000  Uiso   1.00
H172   H     0.99596   0.56780   0.02012   0.00000  Uiso   1.00
H173   H     0.88963   0.68139   0.63086   0.00000  Uiso   1.00
H174   H     0.90794   0.37857   0.39889   0.00000  Uiso   1.00
H175   H     0.04569   0.61059   0.08261   0.00000  Uiso   1.00
O176   O     0.86390   0.78290   0.67091   0.00000  Uiso   1.00
O177   O     0.88793   0.38562   0.67854   0.00000  Uiso   1.00
O178   O     0.06864   0.69003   0.26359   0.00000  Uiso   1.00
N179   N     0.88174   0.76970   0.91398   0.00000  Uiso   1.00
N180   N     0.89886   0.48658   0.63202   0.00000  Uiso   1.00
N181   N     0.02763   0.70349   0.33637   0.00000  Uiso   1.00
N182   N     0.88991   0.70224   0.73439   0.00000  Uiso   1.00
N183   N     0.90703   0.41913   0.45244   0.00000  Uiso   1.00
N184   N     0.03581   0.63604   0.15678   0.00000  Uiso   1.00
C185   C     0.56464   0.84078   0.30987   0.00000  Uiso   1.00
C186   C     0.57742   0.82681   0.15687   0.00000  Uiso   1.00
C187   C     0.59272   0.77750   0.12827   0.00000  Uiso   1.00
C188   C     0.60262   0.77279   0.98072   0.00000  Uiso   1.00
C189   C     0.62327   0.74456   0.76062   0.00000  Uiso   1.00
C190   C     0.57270   0.90484   0.35476   0.00000  Uiso   1.00
C191   C     0.58404   0.92113   0.49255   0.00000  Uiso   1.00
C192   C     0.58997   0.98211   0.51159   0.00000  Uiso   1.00
C193   C     0.60328   0.07503   0.59877   0.00000  Uiso   1.00
C194   C     0.53721   0.84505   0.27326   0.00000  Uiso   1.00
C195   C     0.51870   0.81109   0.34256   0.00000  Uiso   1.00
C196   C     0.49476   0.82174   0.29300   0.00000  Uiso   1.00
C197   C     0.45297   0.82183   0.25364   0.00000  Uiso   1.00
C198   C     0.55503   0.92011   0.09868   0.00000  Uiso   1.00
C199   C     0.57220   0.86990   0.04217   0.00000  Uiso   1.00
C200   C     0.58208   0.86527   0.89461   0.00000  Uiso   1.00
C201   C     0.59739   0.81595   0.86580   0.00000  Uiso   1.00
C202   C     0.56748   0.94793   0.24006   0.00000  Uiso   1.00
C203   C     0.57340   0.00890   0.25890   0.00000  Uiso   1.00
C204   C     0.58474   0.02528   0.39668   0.00000  Uiso   1.00
C205   C     0.53199   0.88814   0.15855   0.00000  Uiso   1.00
C206   C     0.50807   0.89885   0.10889   0.00000  Uiso   1.00
C207   C     0.48953   0.86491   0.17808   0.00000  Uiso   1.00
H208   H     0.56870   0.80724   0.39918   0.00000  Uiso   1.00
H209   H     0.59675   0.74417   0.21708   0.00000  Uiso   1.00
H210   H     0.58807   0.88778   0.58131   0.00000  Uiso   1.00
H211   H     0.52275   0.77775   0.43132   0.00000  Uiso   1.00
H212   H     0.62555   0.69325   0.96461   0.00000  Uiso   1.00
H213   H     0.60724   0.99607   0.73263   0.00000  Uiso   1.00
H214   H     0.46950   0.76405   0.41636   0.00000  Uiso   1.00
H215   H     0.55096   0.95366   0.00938   0.00000  Uiso   1.00
H216   H     0.57804   0.89862   0.80587   0.00000  Uiso   1.00
H217   H     0.56936   0.04223   0.17011   0.00000  Uiso   1.00
H218   H     0.50404   0.93220   0.02012   0.00000  Uiso   1.00
H219   H     0.61037   0.81861   0.63086   0.00000  Uiso   1.00
H220   H     0.59206   0.12143   0.39889   0.00000  Uiso   1.00
H221   H     0.45431   0.88941   0.08261   0.00000  Uiso   1.00
O222   O     0.63610   0.71710   0.67091   0.00000  Uiso   1.00
O223   O     0.61207   0.11438   0.67854   0.00000  Uiso   1.00
O224   O     0.43136   0.80997   0.26359   0.00000  Uiso   1.00
N225   N     0.61826   0.73030   0.91398   0.00000  Uiso   1.00
N226   N     0.60114   0.01342   0.63202   0.00000  Uiso   1.00
N227   N     0.47237   0.79651   0.33637   0.00000  Uiso   1.00
N228   N     0.61009   0.79776   0.73439   0.00000  Uiso   1.00
N229   N     0.59297   0.08087   0.45244   0.00000  Uiso   1.00
N230   N     0.46419   0.86396   0.15678   0.00000  Uiso   1.00
C231   C     0.56464   0.34078   0.80987   0.00000  Uiso   1.00
C232   C     0.57742   0.32681   0.65687   0.00000  Uiso   1.00
C233   C     0.59272   0.27750   0.62827   0.00000  Uiso   1.00
C234   C     0.60262   0.27279   0.48072   0.00000  Uiso   1.00
C235   C     0.62327   0.24456   0.26062   0.00000  Uiso   1.00
C236   C     0.57270   0.40484   0.85476   0.00000  Uiso   1.00
C237   C     0.58404   0.42113   0.99255   0.00000  Uiso   1.00
C238   C     0.58997   0.48211   0.01159   0.00000  Uiso   1.00
C239   C     0.60328   0.57503   0.09877   0.00000  Uiso   1.00
C240   C     0.53721   0.34505   0.77326   0.00000  Uiso   1.00
C241   C     0.51870   0.31109   0.84256   0.00000  Uiso   1.00
C242   C     0.49476   0.32174   0.79300   0.00000  Uiso   1.00
C243   C     0.45297   0.32183   0.75364   0.00000  Uiso   1.00
C244   C     0.55503   0.42011   0.59868   0.00000  Uiso   1.00
C245   C     0.57220   0.36990   0.54217   0.00000  Uiso   1.00
C246   C     0.58208   0.36527   0.39461   0.00000  Uiso   1.00
C247   C     0.59739   0.31595   0.36580   0.00000  Uiso   1.00
C248   C     0.56748   0.44793   0.74006   0.00000  Uiso   1.00
C249   C     0.57340   0.50890   0.75890   0.00000  Uiso   1.00
C250   C     0.58474   0.52528   0.89668   0.00000  Uiso   1.00
C251   C     0.53199   0.38814   0.65855   0.00000  Uiso   1.00
C252   C     0.50807   0.39885   0.60889   0.00000  Uiso   1.00
C253   C     0.48953   0.36491   0.67808   0.00000  Uiso   1.00
H254   H     0.56870   0.30724   0.89918   0.00000  Uiso   1.00
H255   H     0.59675   0.24417   0.71708   0.00000  Uiso   1.00
H256   H     0.58807   0.38778   0.08131   0.00000  Uiso   1.00
H257   H     0.52275   0.27775   0.93132   0.00000  Uiso   1.00
H258   H     0.62555   0.19325   0.46461   0.00000  Uiso   1.00
H259   H     0.60724   0.49607   0.23263   0.00000  Uiso   1.00
H260   H     0.46950   0.26405   0.91636   0.00000  Uiso   1.00
H261   H     0.55096   0.45366   0.50938   0.00000  Uiso   1.00
H262   H     0.57804   0.39862   0.30587   0.00000  Uiso   1.00
H263   H     0.56936   0.54223   0.67011   0.00000  Uiso   1.00
H264   H     0.50404   0.43220   0.52012   0.00000  Uiso   1.00
H265   H     0.61037   0.31861   0.13086   0.00000  Uiso   1.00
H266   H     0.59206   0.62143   0.89889   0.00000  Uiso   1.00
H267   H     0.45431   0.38941   0.58261   0.00000  Uiso   1.00
O268   O     0.63610   0.21710   0.17091   0.00000  Uiso   1.00
O269   O     0.61207   0.61438   0.17854   0.00000  Uiso   1.00
O270   O     0.43136   0.30997   0.76359   0.00000  Uiso   1.00
N271   N     0.61826   0.23030   0.41398   0.00000  Uiso   1.00
N272   N     0.60114   0.51342   0.13202   0.00000  Uiso   1.00
N273   N     0.47237   0.29651   0.83637   0.00000  Uiso   1.00
N274   N     0.61009   0.29776   0.23439   0.00000  Uiso   1.00
N275   N     0.59297   0.58087   0.95244   0.00000  Uiso   1.00
N276   N     0.46419   0.36396   0.65678   0.00000  Uiso   1.00
C277   C     0.06464   0.84078   0.80987   0.00000  Uiso   1.00
C278   C     0.07742   0.82681   0.65687   0.00000  Uiso   1.00
C279   C     0.09272   0.77750   0.62827   0.00000  Uiso   1.00
C280   C     0.10262   0.77279   0.48072   0.00000  Uiso   1.00
C281   C     0.12327   0.74456   0.26062   0.00000  Uiso   1.00
C282   C     0.07270   0.90484   0.85476   0.00000  Uiso   1.00
C283   C     0.08404   0.92113   0.99255   0.00000  Uiso   1.00
C284   C     0.08997   0.98211   0.01159   0.00000  Uiso   1.00
C285   C     0.10328   0.07503   0.09877   0.00000  Uiso   1.00
C286   C     0.03721   0.84505   0.77326   0.00000  Uiso   1.00
C287   C     0.01870   0.81109   0.84256   0.00000  Uiso   1.00
C288   C     0.99476   0.82174   0.79300   0.00000  Uiso   1.00
C289   C     0.95297   0.82183   0.75364   0.00000  Uiso   1.00
C290   C     0.05503   0.92011   0.59868   0.00000  Uiso   1.00
C291   C     0.07220   0.86990   0.54217   0.00000  Uiso   1.00
C292   C     0.08208   0.86527   0.39461   0.00000  Uiso   1.00
C293   C     0.09739   0.81595   0.36580   0.00000  Uiso   1.00
C294   C     0.06748   0.94793   0.74006   0.00000  Uiso   1.00
C295   C     0.07340   0.00890   0.75890   0.00000  Uiso   1.00
C296   C     0.08474   0.02528   0.89668   0.00000  Uiso   1.00
C297   C     0.03199   0.88814   0.65855   0.00000  Uiso   1.00
C298   C     0.00807   0.89885   0.60889   0.00000  Uiso   1.00
C299   C     0.98953   0.86491   0.67808   0.00000  Uiso   1.00
H300   H     0.06870   0.80724   0.89918   0.00000  Uiso   1.00
H301   H     0.09675   0.74417   0.71708   0.00000  Uiso   1.00
H302   H     0.08807   0.88778   0.08131   0.00000  Uiso   1.00
H303   H     0.02275   0.77775   0.93132   0.00000  Uiso   1.00
H304   H     0.12555   0.69325   0.46461   0.00000  Uiso   1.00
H305   H     0.10724   0.99607   0.23263   0.00000  Uiso   1.00
H306   H     0.96950   0.76405   0.91636   0.00000  Uiso   1.00
H307   H     0.05096   0.95366   0.50938   0.00000  Uiso   1.00
H308   H     0.07804   0.89862   0.30587   0.00000  Uiso   1.00
H309   H     0.06936   0.04223   0.67011   0.00000  Uiso   1.00
H310   H     0.00404   0.93220   0.52012   0.00000  Uiso   1.00
H311   H     0.11037   0.81861   0.13086   0.00000  Uiso   1.00
H312   H     0.09206   0.12143   0.89889   0.00000  Uiso   1.00
H313   H     0.95431   0.88941   0.58261   0.00000  Uiso   1.00
O314   O     0.13610   0.71710   0.17091   0.00000  Uiso   1.00
O315   O     0.11207   0.11438   0.17854   0.00000  Uiso   1.00
O316   O     0.93136   0.80997   0.76359   0.00000  Uiso   1.00
N317   N     0.11826   0.73030   0.41398   0.00000  Uiso   1.00
N318   N     0.10114   0.01342   0.13202   0.00000  Uiso   1.00
N319   N     0.97237   0.79651   0.83637   0.00000  Uiso   1.00
N320   N     0.11009   0.79776   0.23439   0.00000  Uiso   1.00
N321   N     0.09297   0.08087   0.95244   0.00000  Uiso   1.00
N322   N     0.96419   0.86396   0.65678   0.00000  Uiso   1.00
C323   C     0.06464   0.34078   0.30987   0.00000  Uiso   1.00
C324   C     0.07742   0.32681   0.15687   0.00000  Uiso   1.00
C325   C     0.09272   0.27750   0.12827   0.00000  Uiso   1.00
C326   C     0.10262   0.27279   0.98072   0.00000  Uiso   1.00
C327   C     0.12327   0.24456   0.76062   0.00000  Uiso   1.00
C328   C     0.07270   0.40484   0.35476   0.00000  Uiso   1.00
C329   C     0.08404   0.42113   0.49255   0.00000  Uiso   1.00
C330   C     0.08997   0.48211   0.51159   0.00000  Uiso   1.00
C331   C     0.10328   0.57503   0.59877   0.00000  Uiso   1.00
C332   C     0.03721   0.34505   0.27326   0.00000  Uiso   1.00
C333   C     0.01870   0.31109   0.34256   0.00000  Uiso   1.00
C334   C     0.99476   0.32174   0.29300   0.00000  Uiso   1.00
C335   C     0.95297   0.32183   0.25364   0.00000  Uiso   1.00
C336   C     0.05503   0.42011   0.09868   0.00000  Uiso   1.00
C337   C     0.07220   0.36990   0.04217   0.00000  Uiso   1.00
C338   C     0.08208   0.36527   0.89461   0.00000  Uiso   1.00
C339   C     0.09739   0.31595   0.86580   0.00000  Uiso   1.00
C340   C     0.06748   0.44793   0.24006   0.00000  Uiso   1.00
C341   C     0.07340   0.50890   0.25890   0.00000  Uiso   1.00
C342   C     0.08474   0.52528   0.39668   0.00000  Uiso   1.00
C343   C     0.03199   0.38814   0.15855   0.00000  Uiso   1.00
C344   C     0.00807   0.39885   0.10889   0.00000  Uiso   1.00
C345   C     0.98953   0.36491   0.17808   0.00000  Uiso   1.00
H346   H     0.06870   0.30724   0.39918   0.00000  Uiso   1.00
H347   H     0.09675   0.24417   0.21708   0.00000  Uiso   1.00
H348   H     0.08807   0.38778   0.58131   0.00000  Uiso   1.00
H349   H     0.02275   0.27775   0.43132   0.00000  Uiso   1.00
H350   H     0.12555   0.19325   0.96461   0.00000  Uiso   1.00
H351   H     0.10724   0.49607   0.73263   0.00000  Uiso   1.00
H352   H     0.96950   0.26405   0.41636   0.00000  Uiso   1.00
H353   H     0.05096   0.45366   0.00938   0.00000  Uiso   1.00
H354   H     0.07804   0.39862   0.80587   0.00000  Uiso   1.00
H355   H     0.06936   0.54223   0.17011   0.00000  Uiso   1.00
H356   H     0.00404   0.43220   0.02012   0.00000  Uiso   1.00
H357   H     0.11037   0.31861   0.63086   0.00000  Uiso   1.00
H358   H     0.09206   0.62143   0.39889   0.00000  Uiso   1.00
H359   H     0.95431   0.38941   0.08261   0.00000  Uiso   1.00
O360   O     0.13610   0.21710   0.67091   0.00000  Uiso   1.00
O361   O     0.11207   0.61438   0.67854   0.00000  Uiso   1.00
O362   O     0.93136   0.30997   0.26359   0.00000  Uiso   1.00
N363   N     0.11826   0.23030   0.91398   0.00000  Uiso   1.00
N364   N     0.10114   0.51342   0.63202   0.00000  Uiso   1.00
N365   N     0.97237   0.29651   0.33637   0.00000  Uiso   1.00
N366   N     0.11009   0.29776   0.73439   0.00000  Uiso   1.00
N367   N     0.09297   0.58087   0.45244   0.00000  Uiso   1.00
N368   N     0.96419   0.36396   0.15678   0.00000  Uiso   1.00
C369   C     0.68536   0.09078   0.55987   0.00000  Uiso   1.00
C370   C     0.67258   0.07681   0.40687   0.00000  Uiso   1.00
C371   C     0.65728   0.02750   0.37827   0.00000  Uiso   1.00
C372   C     0.64738   0.02279   0.23072   0.00000  Uiso   1.00
C373   C     0.62673   0.99456   0.01062   0.00000  Uiso   1.00
C374   C     0.67730   0.15484   0.60476   0.00000  Uiso   1.00
C375   C     0.66596   0.17113   0.74255   0.00000  Uiso   1.00
C376   C     0.66003   0.23211   0.76159   0.00000  Uiso   1.00
C377   C     0.64672   0.32503   0.84877   0.00000  Uiso   1.00
C378   C     0.71279   0.09505   0.52326   0.00000  Uiso   1.00
C379   C     0.73130   0.06109   0.59256   0.00000  Uiso   1.00
C380   C     0.75524   0.07174   0.54300   0.00000  Uiso   1.00
C381   C     0.79703   0.07183   0.50364   0.00000  Uiso   1.00
C382   C     0.69497   0.17011   0.34868   0.00000  Uiso   1.00
C383   C     0.67780   0.11990   0.29217   0.00000  Uiso   1.00
C384   C     0.66792   0.11527   0.14461   0.00000  Uiso   1.00
C385   C     0.65261   0.06595   0.11580   0.00000  Uiso   1.00
C386   C     0.68252   0.19793   0.49006   0.00000  Uiso   1.00
C387   C     0.67660   0.25890   0.50890   0.00000  Uiso   1.00
C388   C     0.66526   0.27528   0.64668   0.00000  Uiso   1.00
C389   C     0.71801   0.13814   0.40855   0.00000  Uiso   1.00
C390   C     0.74193   0.14885   0.35889   0.00000  Uiso   1.00
C391   C     0.76047   0.11491   0.42808   0.00000  Uiso   1.00
H392   H     0.68130   0.05724   0.64918   0.00000  Uiso   1.00
H393   H     0.65325   0.99417   0.46708   0.00000  Uiso   1.00
H394   H     0.66193   0.13778   0.83131   0.00000  Uiso   1.00
H395   H     0.72725   0.02775   0.68132   0.00000  Uiso   1.00
H396   H     0.62445   0.94325   0.21461   0.00000  Uiso   1.00
H397   H     0.64276   0.24607   0.98263   0.00000  Uiso   1.00
H398   H     0.78050   0.01405   0.66636   0.00000  Uiso   1.00
H399   H     0.69904   0.20366   0.25938   0.00000  Uiso   1.00
H400   H     0.67196   0.14862   0.05587   0.00000  Uiso   1.00
H401   H     0.68064   0.29223   0.42011   0.00000  Uiso   1.00
H402   H     0.74596   0.18220   0.27012   0.00000  Uiso   1.00
H403   H     0.63963   0.06861   0.88086   0.00000  Uiso   1.00
H404   H     0.65794   0.37143   0.64889   0.00000  Uiso   1.00
H405   H     0.79569   0.13941   0.33261   0.00000  Uiso   1.00
O406   O     0.61390   0.96710   0.92091   0.00000  Uiso   1.00
O407   O     0.63793   0.36438   0.92854   0.00000  Uiso   1.00
O408   O     0.81864   0.05997   0.51359   0.00000  Uiso   1.00
N409   N     0.63174   0.98030   0.16398   0.00000  Uiso   1.00
N410   N     0.64886   0.26342   0.88202   0.00000  Uiso   1.00
N411   N     0.77763   0.04651   0.58637   0.00000  Uiso   1.00
N412   N     0.63991   0.04776   0.98439   0.00000  Uiso   1.00
N413   N     0.65703   0.33087   0.70244   0.00000  Uiso   1.00
N414   N     0.78581   0.11396   0.40678   0.00000  Uiso   1.00
C415   C     0.68536   0.59078   0.05987   0.00000  Uiso   1.00
C416   C     0.67258   0.57681   0.90687   0.00000  Uiso   1.00
C417   C     0.65728   0.52750   0.87827   0.00000  Uiso   1.00
C418   C     0.64738   0.52279   0.73072   0.00000  Uiso   1.00
C419   C     0.62673   0.49456   0.51062   0.00000  Uiso   1.00
C420   C     0.67730   0.65484   0.10476   0.00000  Uiso   1.00
C421   C     0.66596   0.67113   0.24255   0.00000  Uiso   1.00
C422   C     0.66003   0.73211   0.26159   0.00000  Uiso   1.00
C423   C     0.64672   0.82503   0.34877   0.00000  Uiso   1.00
C424   C     0.71279   0.59505   0.02326   0.00000  Uiso   1.00
C425   C     0.73130   0.56109   0.09256   0.00000  Uiso   1.00
C426   C     0.75524   0.57174   0.04300   0.00000  Uiso   1.00
C427   C     0.79703   0.57183   0.00364   0.00000  Uiso   1.00
C428   C     0.69497   0.67011   0.84868   0.00000  Uiso   1.00
C429   C     0.67780   0.61990   0.79217   0.00000  Uiso   1.00
C430   C     0.66792   0.61527   0.64461   0.00000  Uiso   1.00
C431   C     0.65261   0.56595   0.61580   0.00000  Uiso   1.00
C432   C     0.68252   0.69793   0.99006   0.00000  Uiso   1.00
C433   C     0.67660   0.75890   0.00890   0.00000  Uiso   1.00
C434   C     0.66526   0.77528   0.14668   0.00000  Uiso   1.00
C435   C     0.71801   0.63814   0.90855   0.00000  Uiso   1.00
C436   C     0.74193   0.64885   0.85889   0.00000  Uiso   1.00
C437   C     0.76047   0.61491   0.92808   0.00000  Uiso   1.00
H438   H     0.68130   0.55724   0.14918   0.00000  Uiso   1.00
H439   H     0.65325   0.49417   0.96708   0.00000  Uiso   1.00
H440   H     0.66193   0.63778   0.33131   0.00000  Uiso   1.00
H441   H     0.72725   0.52775   0.18132   0.00000  Uiso   1.00
H442   H     0.62445   0.44325   0.71461   0.00000  Uiso   1.00
H443   H     0.64276   0.74607   0.48263   0.00000  Uiso   1.00
H444   H     0.78050   0.51405   0.16636   0.00000  Uiso   1.00
H445   H     0.69904   0.70366   0.75938   0.00000  Uiso   1.00
H446   H     0.67196   0.64862   0.55587   0.00000  Uiso   1.00
H447   H     0.68064   0.79223   0.92011   0.00000  Uiso   1.00
H448   H     0.74596   0.68220   0.77012   0.00000  Uiso   1.00
H449   H     0.63963   0.56861   0.38086   0.00000  Uiso   1.00
H450   H     0.65794   0.87143   0.14889   0.00000  Uiso   1.00
H451   H     0.79569   0.63941   0.83261   0.00000  Uiso   1.00
O452   O     0.61390   0.46710   0.42091   0.00000  Uiso   1.00
O453   O     0.63793   0.86438   0.42854   0.00000  Uiso   1.00
O454   O     0.81864   0.55997   0.01359   0.00000  Uiso   1.00
N455   N     0.63174   0.48030   0.66398   0.00000  Uiso   1.00
N456   N     0.64886   0.76342   0.38202   0.00000  Uiso   1.00
N457   N     0.77763   0.54651   0.08637   0.00000  Uiso   1.00
N458   N     0.63991   0.54776   0.48439   0.00000  Uiso   1.00
N459   N     0.65703   0.83087   0.20244   0.00000  Uiso   1.00
N460   N     0.78581   0.61396   0.90678   0.00000  Uiso   1.00
C461   C     0.18536   0.09078   0.05987   0.00000  Uiso   1.00
C462   C     0.17258   0.07681   0.90687   0.00000  Uiso   1.00
C463   C     0.15728   0.02750   0.87827   0.00000  Uiso   1.00
C464   C     0.14738   0.02279   0.73072   0.00000  Uiso   1.00
C465   C     0.12673   0.99456   0.51062   0.00000  Uiso   1.00
C466   C     0.17730   0.15484   0.10476   0.00000  Uiso   1.00
C467   C     0.16596   0.17113   0.24255   0.00000  Uiso   1.00
C468   C     0.16003   0.23211   0.26159   0.00000  Uiso   1.00
C469   C     0.14672   0.32503   0.34877   0.00000  Uiso   1.00
C470   C     0.21279   0.09505   0.02326   0.00000  Uiso   1.00
C471   C     0.23130   0.06109   0.09256   0.00000  Uiso   1.00
C472   C     0.25524   0.07174   0.04300   0.00000  Uiso   1.00
C473   C     0.29703   0.07183   0.00364   0.00000  Uiso   1.00
C474   C     0.19497   0.17011   0.84868   0.00000  Uiso   1.00
C475   C     0.17780   0.11990   0.79217   0.00000  Uiso   1.00
C476   C     0.16792   0.11527   0.64461   0.00000  Uiso   1.00
C477   C     0.15261   0.06595   0.61580   0.00000  Uiso   1.00
C478   C     0.18252   0.19793   0.99006   0.00000  Uiso   1.00
C479   C     0.17660   0.25890   0.00890   0.00000  Uiso   1.00
C480   C     0.16526   0.27528   0.14668   0.00000  Uiso   1.00
C481   C     0.21801   0.13814   0.90855   0.00000  Uiso   1.00
C482   C     0.24193   0.14885   0.85889   0.00000  Uiso   1.00
C483   C     0.26047   0.11491   0.92808   0.00000  Uiso   1.00
H484   H     0.18130   0.05724   0.14918   0.00000  Uiso   1.00
H485   H     0.15325   0.99417   0.96708   0.00000  Uiso   1.00
H486   H     0.16193   0.13778   0.33131   0.00000  Uiso   1.00
H487   H     0.22725   0.02775   0.18132   0.00000  Uiso   1.00
H488   H     0.12445   0.94325   0.71461   0.00000  Uiso   1.00
H489   H     0.14276   0.24607   0.48263   0.00000  Uiso   1.00
H490   H     0.28050   0.01405   0.16636   0.00000  Uiso   1.00
H491   H     0.19904   0.20366   0.75938   0.00000  Uiso   1.00
H492   H     0.17196   0.14862   0.55587   0.00000  Uiso   1.00
H493   H     0.18064   0.29223   0.92011   0.00000  Uiso   1.00
H494   H     0.24596   0.18220   0.77012   0.00000  Uiso   1.00
H495   H     0.13963   0.06861   0.38086   0.00000  Uiso   1.00
H496   H     0.15794   0.37143   0.14889   0.00000  Uiso   1.00
H497   H     0.29569   0.13941   0.83261   0.00000  Uiso   1.00
O498   O     0.11390   0.96710   0.42091   0.00000  Uiso   1.00
O499   O     0.13793   0.36438   0.42854   0.00000  Uiso   1.00
O500   O     0.31864   0.05997   0.01359   0.00000  Uiso   1.00
N501   N     0.13174   0.98030   0.66398   0.00000  Uiso   1.00
N502   N     0.14886   0.26342   0.38202   0.00000  Uiso   1.00
N503   N     0.27763   0.04651   0.08637   0.00000  Uiso   1.00
N504   N     0.13991   0.04776   0.48439   0.00000  Uiso   1.00
N505   N     0.15703   0.33087   0.20244   0.00000  Uiso   1.00
N506   N     0.28581   0.11396   0.90678   0.00000  Uiso   1.00
C507   C     0.18536   0.59078   0.55987   0.00000  Uiso   1.00
C508   C     0.17258   0.57681   0.40687   0.00000  Uiso   1.00
C509   C     0.15728   0.52750   0.37827   0.00000  Uiso   1.00
C510   C     0.14738   0.52279   0.23072   0.00000  Uiso   1.00
C511   C     0.12673   0.49456   0.01062   0.00000  Uiso   1.00
C512   C     0.17730   0.65484   0.60476   0.00000  Uiso   1.00
C513   C     0.16596   0.67113   0.74255   0.00000  Uiso   1.00
C514   C     0.16003   0.73211   0.76159   0.00000  Uiso   1.00
C515   C     0.14672   0.82503   0.84877   0.00000  Uiso   1.00
C516   C     0.21279   0.59505   0.52326   0.00000  Uiso   1.00
C517   C     0.23130   0.56109   0.59256   0.00000  Uiso   1.00
C518   C     0.25524   0.57174   0.54300   0.00000  Uiso   1.00
C519   C     0.29703   0.57183   0.50364   0.00000  Uiso   1.00
C520   C     0.19497   0.67011   0.34868   0.00000  Uiso   1.00
C521   C     0.17780   0.61990   0.29217   0.00000  Uiso   1.00
C522   C     0.16792   0.61527   0.14461   0.00000  Uiso   1.00
C523   C     0.15261   0.56595   0.11580   0.00000  Uiso   1.00
C524   C     0.18252   0.69793   0.49006   0.00000  Uiso   1.00
C525   C     0.17660   0.75890   0.50890   0.00000  Uiso   1.00
C526   C     0.16526   0.77528   0.64668   0.00000  Uiso   1.00
C527   C     0.21801   0.63814   0.40855   0.00000  Uiso   1.00
C528   C     0.24193   0.64885   0.35889   0.00000  Uiso   1.00
C529   C     0.26047   0.61491   0.42808   0.00000  Uiso   1.00
H530   H     0.18130   0.55724   0.64918   0.00000  Uiso   1.00
H531   H     0.15325   0.49417   0.46708   0.00000  Uiso   1.00
H532   H     0.16193   0.63778   0.83131   0.00000  Uiso   1.00
H533   H     0.22725   0.52775   0.68132   0.00000  Uiso   1.00
H534   H     0.12445   0.44325   0.21461   0.00000  Uiso   1.00
H535   H     0.14276   0.74607   0.98263   0.00000  Uiso   1.00
H536   H     0.28050   0.51405   0.66636   0.00000  Uiso   1.00
H537   H     0.19904   0.70366   0.25938   0.00000  Uiso   1.00
H538   H     0.17196   0.64862   0.05587   0.00000  Uiso   1.00
H539   H     0.18064   0.79223   0.42011   0.00000  Uiso   1.00
H540   H     0.24596   0.68220   0.27012   0.00000  Uiso   1.00
H541   H     0.13963   0.56861   0.88086   0.00000  Uiso   1.00
H542   H     0.15794   0.87143   0.64889   0.00000  Uiso   1.00
H543   H     0.29569   0.63941   0.33261   0.00000  Uiso   1.00
O544   O     0.11390   0.46710   0.92091   0.00000  Uiso   1.00
O545   O     0.13793   0.86438   0.92854   0.00000  Uiso   1.00
O546   O     0.31864   0.55997   0.51359   0.00000  Uiso   1.00
N547   N     0.13174   0.48030   0.16398   0.00000  Uiso   1.00
N548   N     0.14886   0.76342   0.88202   0.00000  Uiso   1.00
N549   N     0.27763   0.54651   0.58637   0.00000  Uiso   1.00
N550   N     0.13991   0.54776   0.98439   0.00000  Uiso   1.00
N551   N     0.15703   0.83087   0.70244   0.00000  Uiso   1.00
N552   N     0.28581   0.61396   0.40678   0.00000  Uiso   1.00
C553   C     0.81464   0.40922   0.55987   0.00000  Uiso   1.00
C554   C     0.82742   0.42319   0.40687   0.00000  Uiso   1.00
C555   C     0.84272   0.47250   0.37827   0.00000  Uiso   1.00
C556   C     0.85262   0.47721   0.23072   0.00000  Uiso   1.00
C557   C     0.87327   0.50544   0.01062   0.00000  Uiso   1.00
C558   C     0.82270   0.34516   0.60476   0.00000  Uiso   1.00
C559   C     0.83404   0.32887   0.74255   0.00000  Uiso   1.00
C560   C     0.83997   0.26789   0.76159   0.00000  Uiso   1.00
C561   C     0.85328   0.17497   0.84877   0.00000  Uiso   1.00
C562   C     0.78721   0.40495   0.52326   0.00000  Uiso   1.00
C563   C     0.76870   0.43891   0.59256   0.00000  Uiso   1.00
C564   C     0.74476   0.42826   0.54300   0.00000  Uiso   1.00
C565   C     0.70297   0.42817   0.50364   0.00000  Uiso   1.00
C566   C     0.80503   0.32989   0.34868   0.00000  Uiso   1.00
C567   C     0.82220   0.38010   0.29217   0.00000  Uiso   1.00
C568   C     0.83208   0.38473   0.14461   0.00000  Uiso   1.00
C569   C     0.84739   0.43405   0.11580   0.00000  Uiso   1.00
C570   C     0.81748   0.30207   0.49006   0.00000  Uiso   1.00
C571   C     0.82340   0.24110   0.50890   0.00000  Uiso   1.00
C572   C     0.83474   0.22472   0.64668   0.00000  Uiso   1.00
C573   C     0.78199   0.36186   0.40855   0.00000  Uiso   1.00
C574   C     0.75807   0.35115   0.35889   0.00000  Uiso   1.00
C575   C     0.73953   0.38509   0.42808   0.00000  Uiso   1.00
H576   H     0.81870   0.44276   0.64918   0.00000  Uiso   1.00
H577   H     0.84675   0.50583   0.46708   0.00000  Uiso   1.00
H578   H     0.83807   0.36222   0.83131   0.00000  Uiso   1.00
H579   H     0.77275   0.47225   0.68132   0.00000  Uiso   1.00
H580   H     0.87555   0.55675   0.21461   0.00000  Uiso   1.00
H581   H     0.85724   0.25393   0.98263   0.00000  Uiso   1.00
H582   H     0.71950   0.48595   0.66636   0.00000  Uiso   1.00
H583   H     0.80096   0.29634   0.25938   0.00000  Uiso   1.00
H584   H     0.82804   0.35138   0.05587   0.00000  Uiso   1.00
H585   H     0.81936   0.20777   0.42011   0.00000  Uiso   1.00
H586   H     0.75404   0.31780   0.27012   0.00000  Uiso   1.00
H587   H     0.86037   0.43139   0.88086   0.00000  Uiso   1.00
H588   H     0.84206   0.12857   0.64889   0.00000  Uiso   1.00
H589   H     0.70431   0.36059   0.33261   0.00000  Uiso   1.00
O590   O     0.88610   0.53290   0.92091   0.00000  Uiso   1.00
O591   O     0.86207   0.13562   0.92854   0.00000  Uiso   1.00
O592   O     0.68136   0.44003   0.51359   0.00000  Uiso   1.00
N593   N     0.86826   0.51970   0.16398   0.00000  Uiso   1.00
N594   N     0.85114   0.23658   0.88202   0.00000  Uiso   1.00
N595   N     0.72237   0.45349   0.58637   0.00000  Uiso   1.00
N596   N     0.86009   0.45224   0.98439   0.00000  Uiso   1.00
N597   N     0.84297   0.16913   0.70244   0.00000  Uiso   1.00
N598   N     0.71419   0.38604   0.40678   0.00000  Uiso   1.00
C599   C     0.81464   0.90922   0.05987   0.00000  Uiso   1.00
C600   C     0.82742   0.92319   0.90687   0.00000  Uiso   1.00
C601   C     0.84272   0.97250   0.87827   0.00000  Uiso   1.00
C602   C     0.85262   0.97721   0.73072   0.00000  Uiso   1.00
C603   C     0.87327   0.00544   0.51062   0.00000  Uiso   1.00
C604   C     0.82270   0.84516   0.10476   0.00000  Uiso   1.00
C605   C     0.83404   0.82887   0.24255   0.00000  Uiso   1.00
C606   C     0.83997   0.76789   0.26159   0.00000  Uiso   1.00
C607   C     0.85328   0.67497   0.34877   0.00000  Uiso   1.00
C608   C     0.78721   0.90495   0.02326   0.00000  Uiso   1.00
C609   C     0.76870   0.93891   0.09256   0.00000  Uiso   1.00
C610   C     0.74476   0.92826   0.04300   0.00000  Uiso   1.00
C611   C     0.70297   0.92817   0.00364   0.00000  Uiso   1.00
C612   C     0.80503   0.82989   0.84868   0.00000  Uiso   1.00
C613   C     0.82220   0.88010   0.79217   0.00000  Uiso   1.00
C614   C     0.83208   0.88473   0.64461   0.00000  Uiso   1.00
C615   C     0.84739   0.93405   0.61580   0.00000  Uiso   1.00
C616   C     0.81748   0.80207   0.99006   0.00000  Uiso   1.00
C617   C     0.82340   0.74110   0.00890   0.00000  Uiso   1.00
C618   C     0.83474   0.72472   0.14668   0.00000  Uiso   1.00
C619   C     0.78199   0.86186   0.90855   0.00000  Uiso   1.00
C620   C     0.75807   0.85115   0.85889   0.00000  Uiso   1.00
C621   C     0.73953   0.88509   0.92808   0.00000  Uiso   1.00
H622   H     0.81870   0.94276   0.14918   0.00000  Uiso   1.00
H623   H     0.84675   0.00583   0.96708   0.00000  Uiso   1.00
H624   H     0.83807   0.86222   0.33131   0.00000  Uiso   1.00
H625   H     0.77275   0.97225   0.18132   0.00000  Uiso   1.00
H626   H     0.87555   0.05675   0.71461   0.00000  Uiso   1.00
H627   H     0.85724   0.75393   0.48263   0.00000  Uiso   1.00
H628   H     0.71950   0.98595   0.16636   0.00000  Uiso   1.00
H629   H     0.80096   0.79634   0.75938   0.00000  Uiso   1.00
H630   H     0.82804   0.85138   0.55587   0.00000  Uiso   1.00
H631   H     0.81936   0.70777   0.92011   0.00000  Uiso   1.00
H632   H     0.75404   0.81780   0.77012   0.00000  Uiso   1.00
H633   H     0.86037   0.93139   0.38086   0.00000  Uiso   1.00
H634   H     0.84206   0.62857   0.14889   0.00000  Uiso   1.00
H635   H     0.70431   0.86059   0.83261   0.00000  Uiso   1.00
O636   O     0.88610   0.03290   0.42091   0.00000  Uiso   1.00
O637   O     0.86207   0.63562   0.42854   0.00000  Uiso   1.00
O638   O     0.68136   0.94003   0.01359   0.00000  Uiso   1.00
N639   N     0.86826   0.01970   0.66398   0.00000  Uiso   1.00
N640   N     0.85114   0.73658   0.38202   0.00000  Uiso   1.00
N641   N     0.72237   0.95349   0.08637   0.00000  Uiso   1.00
N642   N     0.86009   0.95224   0.48439   0.00000  Uiso   1.00
N643   N     0.84297   0.66913   0.20244   0.00000  Uiso   1.00
N644   N     0.71419   0.88604   0.90678   0.00000  Uiso   1.00
C645   C     0.31464   0.40922   0.05987   0.00000  Uiso   1.00
C646   C     0.32742   0.42319   0.90687   0.00000  Uiso   1.00
C647   C     0.34272   0.47250   0.87827   0.00000  Uiso   1.00
C648   C     0.35262   0.47721   0.73072   0.00000  Uiso   1.00
C649   C     0.37327   0.50544   0.51062   0.00000  Uiso   1.00
C650   C     0.32270   0.34516   0.10476   0.00000  Uiso   1.00
C651   C     0.33404   0.32887   0.24255   0.00000  Uiso   1.00
C652   C     0.33997   0.26789   0.26159   0.00000  Uiso   1.00
C653   C     0.35328   0.17497   0.34877   0.00000  Uiso   1.00
C654   C     0.28721   0.40495   0.02326   0.00000  Uiso   1.00
C655   C     0.26870   0.43891   0.09256   0.00000  Uiso   1.00
C656   C     0.24476   0.42826   0.04300   0.00000  Uiso   1.00
C657   C     0.20297   0.42817   0.00364   0.00000  Uiso   1.00
C658   C     0.30503   0.32989   0.84868   0.00000  Uiso   1.00
C659   C     0.32220   0.38010   0.79217   0.00000  Uiso   1.00
C660   C     0.33208   0.38473   0.64461   0.00000  Uiso   1.00
C661   C     0.34739   0.43405   0.61580   0.00000  Uiso   1.00
C662   C     0.31748   0.30207   0.99006   0.00000  Uiso   1.00
C663   C     0.32340   0.24110   0.00890   0.00000  Uiso   1.00
C664   C     0.33474   0.22472   0.14668   0.00000  Uiso   1.00
C665   C     0.28199   0.36186   0.90855   0.00000  Uiso   1.00
C666   C     0.25807   0.35115   0.85889   0.00000  Uiso   1.00
C667   C     0.23953   0.38509   0.92808   0.00000  Uiso   1.00
H668   H     0.31870   0.44276   0.14918   0.00000  Uiso   1.00
H669   H     0.34675   0.50583   0.96708   0.00000  Uiso   1.00
H670   H     0.33807   0.36222   0.33131   0.00000  Uiso   1.00
H671   H     0.27275   0.47225   0.18132   0.00000  Uiso   1.00
H672   H     0.37555   0.55675   0.71461   0.00000  Uiso   1.00
H673   H     0.35724   0.25393   0.48263   0.00000  Uiso   1.00
H674   H     0.21950   0.48595   0.16636   0.00000  Uiso   1.00
H675   H     0.30096   0.29634   0.75938   0.00000  Uiso   1.00
H676   H     0.32804   0.35138   0.55587   0.00000  Uiso   1.00
H677   H     0.31936   0.20777   0.92011   0.00000  Uiso   1.00
H678   H     0.25404   0.31780   0.77012   0.00000  Uiso   1.00
H679   H     0.36037   0.43139   0.38086   0.00000  Uiso   1.00
H680   H     0.34206   0.12857   0.14889   0.00000  Uiso   1.00
H681   H     0.20431   0.36059   0.83261   0.00000  Uiso   1.00
O682   O     0.38610   0.53290   0.42091   0.00000  Uiso   1.00
O683   O     0.36207   0.13562   0.42854   0.00000  Uiso   1.00
O684   O     0.18136   0.44003   0.01359   0.00000  Uiso   1.00
N685   N     0.36826   0.51970   0.66398   0.00000  Uiso   1.00
N686   N     0.35114   0.23658   0.38202   0.00000  Uiso   1.00
N687   N     0.22237   0.45349   0.08637   0.00000  Uiso   1.00
N688   N     0.36009   0.45224   0.48439   0.00000  Uiso   1.00
N689   N     0.34297   0.16913   0.20244   0.00000  Uiso   1.00
N690   N     0.21419   0.38604   0.90678   0.00000  Uiso   1.00
C691   C     0.31464   0.90922   0.55987   0.00000  Uiso   1.00
C692   C     0.32742   0.92319   0.40687   0.00000  Uiso   1.00
C693   C     0.34272   0.97250   0.37827   0.00000  Uiso   1.00
C694   C     0.35262   0.97721   0.23072   0.00000  Uiso   1.00
C695   C     0.37327   0.00544   0.01062   0.00000  Uiso   1.00
C696   C     0.32270   0.84516   0.60476   0.00000  Uiso   1.00
C697   C     0.33404   0.82887   0.74255   0.00000  Uiso   1.00
C698   C     0.33997   0.76789   0.76159   0.00000  Uiso   1.00
C699   C     0.35328   0.67497   0.84877   0.00000  Uiso   1.00
C700   C     0.28721   0.90495   0.52326   0.00000  Uiso   1.00
C701   C     0.26870   0.93891   0.59256   0.00000  Uiso   1.00
C702   C     0.24476   0.92826   0.54300   0.00000  Uiso   1.00
C703   C     0.20297   0.92817   0.50364   0.00000  Uiso   1.00
C704   C     0.30503   0.82989   0.34868   0.00000  Uiso   1.00
C705   C     0.32220   0.88010   0.29217   0.00000  Uiso   1.00
C706   C     0.33208   0.88473   0.14461   0.00000  Uiso   1.00
C707   C     0.34739   0.93405   0.11580   0.00000  Uiso   1.00
C708   C     0.31748   0.80207   0.49006   0.00000  Uiso   1.00
C709   C     0.32340   0.74110   0.50890   0.00000  Uiso   1.00
C710   C     0.33474   0.72472   0.64668   0.00000  Uiso   1.00
C711   C     0.28199   0.86186   0.40855   0.00000  Uiso   1.00
C712   C     0.25807   0.85115   0.35889   0.00000  Uiso   1.00
C713   C     0.23953   0.88509   0.42808   0.00000  Uiso   1.00
H714   H     0.31870   0.94276   0.64918   0.00000  Uiso   1.00
H715   H     0.34675   0.00583   0.46708   0.00000  Uiso   1.00
H716   H     0.33807   0.86222   0.83131   0.00000  Uiso   1.00
H717   H     0.27275   0.97225   0.68132   0.00000  Uiso   1.00
H718   H     0.37555   0.05675   0.21461   0.00000  Uiso   1.00
H719   H     0.35724   0.75393   0.98263   0.00000  Uiso   1.00
H720   H     0.21950   0.98595   0.66636   0.00000  Uiso   1.00
H721   H     0.30096   0.79634   0.25938   0.00000  Uiso   1.00
H722   H     0.32804   0.85138   0.05587   0.00000  Uiso   1.00
H723   H     0.31936   0.70777   0.42011   0.00000  Uiso   1.00
H724   H     0.25404   0.81780   0.27012   0.00000  Uiso   1.00
H725   H     0.36037   0.93139   0.88086   0.00000  Uiso   1.00
H726   H     0.34206   0.62857   0.64889   0.00000  Uiso   1.00
H727   H     0.20431   0.86059   0.33261   0.00000  Uiso   1.00
O728   O     0.38610   0.03290   0.92091   0.00000  Uiso   1.00
O729   O     0.36207   0.63562   0.92854   0.00000  Uiso   1.00
O730   O     0.18136   0.94003   0.51359   0.00000  Uiso   1.00
N731   N     0.36826   0.01970   0.16398   0.00000  Uiso   1.00
N732   N     0.35114   0.73658   0.88202   0.00000  Uiso   1.00
N733   N     0.22237   0.95349   0.58637   0.00000  Uiso   1.00
N734   N     0.36009   0.95224   0.98439   0.00000  Uiso   1.00
N735   N     0.34297   0.66913   0.70244   0.00000  Uiso   1.00
N736   N     0.21419   0.88604   0.40678   0.00000  Uiso   1.00
