data_job_05477
_audit_creation_date              2018-12-19
_audit_creation_method            'Materials Studio'
_symmetry_space_group_name_H-M    'P1'
_symmetry_Int_Tables_number       1
_symmetry_cell_setting            triclinic
loop_
_symmetry_equiv_pos_as_xyz
  x,y,z
_cell_length_a                    14.9022
_cell_length_b                    14.6444
_cell_length_c                    42.8087
_cell_angle_alpha                 90.0000
_cell_angle_beta                  90.0000
_cell_angle_gamma                 90.0000
loop_
_atom_site_label
_atom_site_type_symbol
_atom_site_fract_x
_atom_site_fract_y
_atom_site_fract_z
_atom_site_U_iso_or_equiv
_atom_site_adp_type
_atom_site_occupancy
C1     C     0.71503   0.69841   0.21385   0.00000  Uiso   1.00
C2     C     0.73080   0.68589   0.24879   0.00000  Uiso   1.00
C3     C     0.22332   0.10431   0.26508   0.00000  Uiso   1.00
C4     C     0.24047   0.10710   0.29695   0.00000  Uiso   1.00
C5     C     0.26130   0.07527   0.34891   0.00000  Uiso   1.00
C6     C     0.64320   0.77205   0.21084   0.00000  Uiso   1.00
C7     C     0.56208   0.76293   0.19522   0.00000  Uiso   1.00
C8     C     0.50550   0.83825   0.19514   0.00000  Uiso   1.00
C9     C     0.39037   0.94022   0.18817   0.00000  Uiso   1.00
C10    C     0.30105   0.24007   0.20086   0.00000  Uiso   1.00
C11    C     0.35264   0.20408   0.17684   0.00000  Uiso   1.00
C12    C     0.42895   0.25249   0.16835   0.00000  Uiso   1.00
C13    C     0.55890   0.30481   0.14588   0.00000  Uiso   1.00
C14    C     0.75878   0.84840   0.24147   0.00000  Uiso   1.00
C15    C     0.75456   0.76736   0.26379   0.00000  Uiso   1.00
C16    C     0.77173   0.77027   0.29564   0.00000  Uiso   1.00
C17    C     0.26428   0.18871   0.31197   0.00000  Uiso   1.00
C18    C     0.66696   0.85352   0.22584   0.00000  Uiso   1.00
C19    C     0.61049   0.92888   0.22578   0.00000  Uiso   1.00
C20    C     0.52931   0.91987   0.21016   0.00000  Uiso   1.00
C21    C     0.82482   0.82155   0.21586   0.00000  Uiso   1.00
C22    C     0.90105   0.87003   0.20740   0.00000  Uiso   1.00
C23    C     0.45275   0.33411   0.18337   0.00000  Uiso   1.00
H24    H     0.19652   0.13498   0.20218   0.00000  Uiso   1.00
H25    H     0.20492   0.04128   0.25347   0.00000  Uiso   1.00
H26    H     0.54372   0.69987   0.18362   0.00000  Uiso   1.00
H27    H     0.33423   0.14103   0.16524   0.00000  Uiso   1.00
H28    H     0.22469   0.97333   0.31695   0.00000  Uiso   1.00
H29    H     0.38478   0.80774   0.16965   0.00000  Uiso   1.00
H30    H     0.49740   0.18366   0.13090   0.00000  Uiso   1.00
H31    H     0.77728   0.91184   0.25315   0.00000  Uiso   1.00
H32    H     0.79012   0.83333   0.30724   0.00000  Uiso   1.00
H33    H     0.62891   0.99192   0.23738   0.00000  Uiso   1.00
H34    H     0.91942   0.93307   0.21901   0.00000  Uiso   1.00
H35    H     0.29383   0.21037   0.36059   0.00000  Uiso   1.00
H36    H     0.45393   0.04478   0.21329   0.00000  Uiso   1.00
H37    H     0.06654   0.92069   0.17455   0.00000  Uiso   1.00
O38    O     0.26622   0.03521   0.37343   0.00000  Uiso   1.00
O39    O     0.32029   0.97395   0.18018   0.00000  Uiso   1.00
O40    O     0.62402   0.31115   0.12935   0.00000  Uiso   1.00
N41    N     0.23922   0.03989   0.31980   0.00000  Uiso   1.00
N42    N     0.42142   0.85254   0.18209   0.00000  Uiso   1.00
N43    N     0.49415   0.23654   0.14586   0.00000  Uiso   1.00
N44    N     0.27642   0.16744   0.34328   0.00000  Uiso   1.00
N45    N     0.45863   0.98009   0.20557   0.00000  Uiso   1.00
N46    N     0.53135   0.36409   0.16934   0.00000  Uiso   1.00
C47    C     0.40990   0.28680   0.46031   0.00000  Uiso   1.00
C48    C     0.39845   0.27581   0.49551   0.00000  Uiso   1.00
C49    C     0.81878   0.78624   0.51191   0.00000  Uiso   1.00
C50    C     0.82227   0.77332   0.54401   0.00000  Uiso   1.00
C51    C     0.79229   0.75973   0.59637   0.00000  Uiso   1.00
C52    C     0.48261   0.35891   0.45585   0.00000  Uiso   1.00
C53    C     0.97370   0.93920   0.43891   0.00000  Uiso   1.00
C54    C     0.54804   0.49622   0.43763   0.00000  Uiso   1.00
C55    C     0.64873   0.61161   0.42840   0.00000  Uiso   1.00
C56    C     0.44999   0.19726   0.44865   0.00000  Uiso   1.00
C57    C     0.41367   0.14164   0.42565   0.00000  Uiso   1.00
C58    C     0.46056   0.06257   0.41831   0.00000  Uiso   1.00
C59    C     0.51060   0.92697   0.39791   0.00000  Uiso   1.00
C60    C     0.55779   0.24531   0.48816   0.00000  Uiso   1.00
C61    C     0.47878   0.25328   0.51063   0.00000  Uiso   1.00
C62    C     0.48240   0.24033   0.54272   0.00000  Uiso   1.00
C63    C     0.40274   0.25074   0.55917   0.00000  Uiso   1.00
C64    C     0.56293   0.33638   0.47098   0.00000  Uiso   1.00
C65    C     0.13731   0.89329   0.46972   0.00000  Uiso   1.00
C66    C     0.12851   0.97364   0.45278   0.00000  Uiso   1.00
C67    C     0.53031   0.17472   0.46378   0.00000  Uiso   1.00
C68    C     0.57728   0.09573   0.45647   0.00000  Uiso   1.00
C69    C     0.54103   0.03999   0.43347   0.00000  Uiso   1.00
H70    H     0.84737   0.80435   0.44853   0.00000  Uiso   1.00
H71    H     0.75663   0.80369   0.50019   0.00000  Uiso   1.00
H72    H     0.91153   0.95661   0.42720   0.00000  Uiso   1.00
H73    H     0.35151   0.15910   0.41395   0.00000  Uiso   1.00
H74    H     0.69147   0.79305   0.56414   0.00000  Uiso   1.00
H75    H     0.51808   0.61548   0.41023   0.00000  Uiso   1.00
H76    H     0.39151   0.98812   0.38229   0.00000  Uiso   1.00
H77    H     0.62033   0.22777   0.49994   0.00000  Uiso   1.00
H78    H     0.54456   0.22290   0.55443   0.00000  Uiso   1.00
H79    H     0.19946   0.87583   0.48143   0.00000  Uiso   1.00
H80    H     0.63944   0.07831   0.46819   0.00000  Uiso   1.00
H81    H     0.42516   0.22748   0.60816   0.00000  Uiso   1.00
H82    H     0.25178   0.04991   0.45424   0.00000  Uiso   1.00
H83    H     0.62521   0.92255   0.42631   0.00000  Uiso   1.00
O84    O     0.75356   0.75847   0.62107   0.00000  Uiso   1.00
O85    O     0.68207   0.68148   0.41913   0.00000  Uiso   1.00
O86    O     0.51601   0.85840   0.38248   0.00000  Uiso   1.00
N87    N     0.75686   0.77827   0.56702   0.00000  Uiso   1.00
N88    N     0.56222   0.57973   0.42312   0.00000  Uiso   1.00
N89    N     0.44390   0.99321   0.39700   0.00000  Uiso   1.00
N90    N     0.38261   0.24298   0.59071   0.00000  Uiso   1.00
N91    N     0.18797   0.04445   0.44681   0.00000  Uiso   1.00
N92    N     0.56965   0.95793   0.42069   0.00000  Uiso   1.00
C93    C     0.21503   0.19841   0.21385   0.00000  Uiso   1.00
C94    C     0.23080   0.18589   0.24879   0.00000  Uiso   1.00
C95    C     0.72332   0.60431   0.26508   0.00000  Uiso   1.00
C96    C     0.74047   0.60710   0.29695   0.00000  Uiso   1.00
C97    C     0.76130   0.57527   0.34891   0.00000  Uiso   1.00
C98    C     0.14320   0.27205   0.21084   0.00000  Uiso   1.00
C99    C     0.06208   0.26293   0.19522   0.00000  Uiso   1.00
C100   C     0.00550   0.33825   0.19514   0.00000  Uiso   1.00
C101   C     0.89037   0.44022   0.18817   0.00000  Uiso   1.00
C102   C     0.80105   0.74007   0.20086   0.00000  Uiso   1.00
C103   C     0.85264   0.70408   0.17684   0.00000  Uiso   1.00
C104   C     0.92895   0.75249   0.16835   0.00000  Uiso   1.00
C105   C     0.05890   0.80481   0.14588   0.00000  Uiso   1.00
C106   C     0.25878   0.34840   0.24147   0.00000  Uiso   1.00
C107   C     0.25456   0.26736   0.26379   0.00000  Uiso   1.00
C108   C     0.27173   0.27027   0.29564   0.00000  Uiso   1.00
C109   C     0.76428   0.68871   0.31197   0.00000  Uiso   1.00
C110   C     0.16696   0.35352   0.22584   0.00000  Uiso   1.00
C111   C     0.11049   0.42888   0.22578   0.00000  Uiso   1.00
C112   C     0.02931   0.41987   0.21016   0.00000  Uiso   1.00
C113   C     0.32482   0.32155   0.21586   0.00000  Uiso   1.00
C114   C     0.40105   0.37003   0.20740   0.00000  Uiso   1.00
C115   C     0.95275   0.83411   0.18337   0.00000  Uiso   1.00
H116   H     0.69652   0.63498   0.20218   0.00000  Uiso   1.00
H117   H     0.70492   0.54128   0.25347   0.00000  Uiso   1.00
H118   H     0.04372   0.19987   0.18362   0.00000  Uiso   1.00
H119   H     0.83423   0.64103   0.16524   0.00000  Uiso   1.00
H120   H     0.72469   0.47333   0.31695   0.00000  Uiso   1.00
H121   H     0.88478   0.30774   0.16965   0.00000  Uiso   1.00
H122   H     0.99740   0.68366   0.13090   0.00000  Uiso   1.00
H123   H     0.27728   0.41184   0.25315   0.00000  Uiso   1.00
H124   H     0.29012   0.33333   0.30724   0.00000  Uiso   1.00
H125   H     0.12891   0.49192   0.23738   0.00000  Uiso   1.00
H126   H     0.41942   0.43307   0.21901   0.00000  Uiso   1.00
H127   H     0.79383   0.71037   0.36059   0.00000  Uiso   1.00
H128   H     0.95393   0.54478   0.21329   0.00000  Uiso   1.00
H129   H     0.56654   0.42069   0.17455   0.00000  Uiso   1.00
O130   O     0.76622   0.53521   0.37343   0.00000  Uiso   1.00
O131   O     0.82029   0.47395   0.18018   0.00000  Uiso   1.00
O132   O     0.12402   0.81115   0.12935   0.00000  Uiso   1.00
N133   N     0.73922   0.53989   0.31980   0.00000  Uiso   1.00
N134   N     0.92142   0.35254   0.18209   0.00000  Uiso   1.00
N135   N     0.99415   0.73654   0.14586   0.00000  Uiso   1.00
N136   N     0.77642   0.66744   0.34328   0.00000  Uiso   1.00
N137   N     0.95863   0.48009   0.20557   0.00000  Uiso   1.00
N138   N     0.03135   0.86409   0.16934   0.00000  Uiso   1.00
C139   C     0.90990   0.78680   0.46031   0.00000  Uiso   1.00
C140   C     0.89845   0.77581   0.49551   0.00000  Uiso   1.00
C141   C     0.31878   0.28624   0.51191   0.00000  Uiso   1.00
C142   C     0.32227   0.27332   0.54401   0.00000  Uiso   1.00
C143   C     0.29229   0.25973   0.59637   0.00000  Uiso   1.00
C144   C     0.98261   0.85891   0.45585   0.00000  Uiso   1.00
C145   C     0.47370   0.43920   0.43891   0.00000  Uiso   1.00
C146   C     0.04804   0.99622   0.43763   0.00000  Uiso   1.00
C147   C     0.14873   0.11161   0.42840   0.00000  Uiso   1.00
C148   C     0.94999   0.69726   0.44865   0.00000  Uiso   1.00
C149   C     0.91367   0.64164   0.42565   0.00000  Uiso   1.00
C150   C     0.96056   0.56257   0.41831   0.00000  Uiso   1.00
C151   C     0.01060   0.42697   0.39791   0.00000  Uiso   1.00
C152   C     0.05779   0.74531   0.48816   0.00000  Uiso   1.00
C153   C     0.97878   0.75328   0.51063   0.00000  Uiso   1.00
C154   C     0.98240   0.74033   0.54272   0.00000  Uiso   1.00
C155   C     0.90274   0.75074   0.55917   0.00000  Uiso   1.00
C156   C     0.06293   0.83638   0.47098   0.00000  Uiso   1.00
C157   C     0.63731   0.39329   0.46972   0.00000  Uiso   1.00
C158   C     0.62851   0.47364   0.45278   0.00000  Uiso   1.00
C159   C     0.03031   0.67472   0.46378   0.00000  Uiso   1.00
C160   C     0.07728   0.59573   0.45647   0.00000  Uiso   1.00
C161   C     0.04103   0.53999   0.43347   0.00000  Uiso   1.00
H162   H     0.34737   0.30435   0.44853   0.00000  Uiso   1.00
H163   H     0.25663   0.30369   0.50019   0.00000  Uiso   1.00
H164   H     0.41153   0.45661   0.42720   0.00000  Uiso   1.00
H165   H     0.85151   0.65910   0.41395   0.00000  Uiso   1.00
H166   H     0.19147   0.29305   0.56414   0.00000  Uiso   1.00
H167   H     0.01808   0.11548   0.41023   0.00000  Uiso   1.00
H168   H     0.89151   0.48812   0.38229   0.00000  Uiso   1.00
H169   H     0.12033   0.72777   0.49994   0.00000  Uiso   1.00
H170   H     0.04456   0.72290   0.55443   0.00000  Uiso   1.00
H171   H     0.69946   0.37583   0.48143   0.00000  Uiso   1.00
H172   H     0.13944   0.57831   0.46819   0.00000  Uiso   1.00
H173   H     0.92516   0.72748   0.60816   0.00000  Uiso   1.00
H174   H     0.75178   0.54991   0.45424   0.00000  Uiso   1.00
H175   H     0.12521   0.42255   0.42631   0.00000  Uiso   1.00
O176   O     0.25356   0.25847   0.62107   0.00000  Uiso   1.00
O177   O     0.18207   0.18148   0.41913   0.00000  Uiso   1.00
O178   O     0.01601   0.35840   0.38248   0.00000  Uiso   1.00
N179   N     0.25686   0.27827   0.56702   0.00000  Uiso   1.00
N180   N     0.06222   0.07973   0.42312   0.00000  Uiso   1.00
N181   N     0.94390   0.49321   0.39700   0.00000  Uiso   1.00
N182   N     0.88261   0.74298   0.59071   0.00000  Uiso   1.00
N183   N     0.68797   0.54445   0.44681   0.00000  Uiso   1.00
N184   N     0.06965   0.45793   0.42069   0.00000  Uiso   1.00
C185   C     0.28497   0.30159   0.71385   0.00000  Uiso   1.00
C186   C     0.26920   0.31411   0.74879   0.00000  Uiso   1.00
C187   C     0.77668   0.89569   0.76508   0.00000  Uiso   1.00
C188   C     0.75953   0.89290   0.79695   0.00000  Uiso   1.00
C189   C     0.73870   0.92473   0.84891   0.00000  Uiso   1.00
C190   C     0.35680   0.22795   0.71084   0.00000  Uiso   1.00
C191   C     0.43792   0.23707   0.69522   0.00000  Uiso   1.00
C192   C     0.49450   0.16175   0.69514   0.00000  Uiso   1.00
C193   C     0.60963   0.05978   0.68817   0.00000  Uiso   1.00
C194   C     0.69895   0.75993   0.70086   0.00000  Uiso   1.00
C195   C     0.64736   0.79592   0.67684   0.00000  Uiso   1.00
C196   C     0.57105   0.74751   0.66835   0.00000  Uiso   1.00
C197   C     0.44110   0.69519   0.64588   0.00000  Uiso   1.00
C198   C     0.24122   0.15160   0.74147   0.00000  Uiso   1.00
C199   C     0.24544   0.23264   0.76379   0.00000  Uiso   1.00
C200   C     0.22827   0.22973   0.79564   0.00000  Uiso   1.00
C201   C     0.73572   0.81129   0.81197   0.00000  Uiso   1.00
C202   C     0.33304   0.14648   0.72584   0.00000  Uiso   1.00
C203   C     0.38951   0.07112   0.72578   0.00000  Uiso   1.00
C204   C     0.47069   0.08013   0.71016   0.00000  Uiso   1.00
C205   C     0.17518   0.17845   0.71586   0.00000  Uiso   1.00
C206   C     0.09895   0.12997   0.70740   0.00000  Uiso   1.00
C207   C     0.54725   0.66589   0.68337   0.00000  Uiso   1.00
H208   H     0.80348   0.86502   0.70218   0.00000  Uiso   1.00
H209   H     0.79508   0.95872   0.75347   0.00000  Uiso   1.00
H210   H     0.45628   0.30013   0.68362   0.00000  Uiso   1.00
H211   H     0.66577   0.85897   0.66524   0.00000  Uiso   1.00
H212   H     0.77531   0.02667   0.81695   0.00000  Uiso   1.00
H213   H     0.61522   0.19226   0.66965   0.00000  Uiso   1.00
H214   H     0.50260   0.81634   0.63090   0.00000  Uiso   1.00
H215   H     0.22272   0.08816   0.75315   0.00000  Uiso   1.00
H216   H     0.20988   0.16667   0.80724   0.00000  Uiso   1.00
H217   H     0.37109   0.00808   0.73738   0.00000  Uiso   1.00
H218   H     0.08058   0.06693   0.71901   0.00000  Uiso   1.00
H219   H     0.70617   0.78963   0.86059   0.00000  Uiso   1.00
H220   H     0.54607   0.95522   0.71329   0.00000  Uiso   1.00
H221   H     0.93346   0.07931   0.67455   0.00000  Uiso   1.00
O222   O     0.73378   0.96479   0.87343   0.00000  Uiso   1.00
O223   O     0.67971   0.02605   0.68018   0.00000  Uiso   1.00
O224   O     0.37598   0.68885   0.62935   0.00000  Uiso   1.00
N225   N     0.76078   0.96011   0.81980   0.00000  Uiso   1.00
N226   N     0.57858   0.14746   0.68209   0.00000  Uiso   1.00
N227   N     0.50585   0.76346   0.64586   0.00000  Uiso   1.00
N228   N     0.72358   0.83256   0.84328   0.00000  Uiso   1.00
N229   N     0.54137   0.01991   0.70557   0.00000  Uiso   1.00
N230   N     0.46865   0.63591   0.66934   0.00000  Uiso   1.00
C231   C     0.59010   0.71320   0.96031   0.00000  Uiso   1.00
C232   C     0.60155   0.72419   0.99551   0.00000  Uiso   1.00
C233   C     0.18122   0.21376   0.01191   0.00000  Uiso   1.00
C234   C     0.17773   0.22668   0.04401   0.00000  Uiso   1.00
C235   C     0.20771   0.24027   0.09637   0.00000  Uiso   1.00
C236   C     0.51739   0.64109   0.95585   0.00000  Uiso   1.00
C237   C     0.02630   0.06080   0.93891   0.00000  Uiso   1.00
C238   C     0.45196   0.50378   0.93763   0.00000  Uiso   1.00
C239   C     0.35127   0.38839   0.92840   0.00000  Uiso   1.00
C240   C     0.55001   0.80274   0.94865   0.00000  Uiso   1.00
C241   C     0.58633   0.85836   0.92565   0.00000  Uiso   1.00
C242   C     0.53944   0.93743   0.91831   0.00000  Uiso   1.00
C243   C     0.48940   0.07303   0.89791   0.00000  Uiso   1.00
C244   C     0.44221   0.75469   0.98816   0.00000  Uiso   1.00
C245   C     0.52122   0.74672   0.01063   0.00000  Uiso   1.00
C246   C     0.51760   0.75967   0.04272   0.00000  Uiso   1.00
C247   C     0.59726   0.74926   0.05917   0.00000  Uiso   1.00
C248   C     0.43707   0.66362   0.97098   0.00000  Uiso   1.00
C249   C     0.86269   0.10671   0.96972   0.00000  Uiso   1.00
C250   C     0.87149   0.02636   0.95278   0.00000  Uiso   1.00
C251   C     0.46969   0.82528   0.96378   0.00000  Uiso   1.00
C252   C     0.42272   0.90427   0.95647   0.00000  Uiso   1.00
C253   C     0.45897   0.96001   0.93347   0.00000  Uiso   1.00
H254   H     0.15263   0.19565   0.94853   0.00000  Uiso   1.00
H255   H     0.24337   0.19631   0.00019   0.00000  Uiso   1.00
H256   H     0.08847   0.04339   0.92720   0.00000  Uiso   1.00
H257   H     0.64849   0.84090   0.91395   0.00000  Uiso   1.00
H258   H     0.30853   0.20695   0.06414   0.00000  Uiso   1.00
H259   H     0.48192   0.38452   0.91023   0.00000  Uiso   1.00
H260   H     0.60849   0.01188   0.88229   0.00000  Uiso   1.00
H261   H     0.37967   0.77223   0.99994   0.00000  Uiso   1.00
H262   H     0.45544   0.77710   0.05443   0.00000  Uiso   1.00
H263   H     0.80054   0.12417   0.98143   0.00000  Uiso   1.00
H264   H     0.36056   0.92169   0.96819   0.00000  Uiso   1.00
H265   H     0.57484   0.77252   0.10816   0.00000  Uiso   1.00
H266   H     0.74822   0.95009   0.95424   0.00000  Uiso   1.00
H267   H     0.37479   0.07745   0.92631   0.00000  Uiso   1.00
O268   O     0.24644   0.24153   0.12107   0.00000  Uiso   1.00
O269   O     0.31793   0.31852   0.91913   0.00000  Uiso   1.00
O270   O     0.48399   0.14160   0.88248   0.00000  Uiso   1.00
N271   N     0.24314   0.22173   0.06702   0.00000  Uiso   1.00
N272   N     0.43778   0.42027   0.92312   0.00000  Uiso   1.00
N273   N     0.55610   0.00679   0.89700   0.00000  Uiso   1.00
N274   N     0.61739   0.75702   0.09071   0.00000  Uiso   1.00
N275   N     0.81203   0.95555   0.94681   0.00000  Uiso   1.00
N276   N     0.43035   0.04207   0.92069   0.00000  Uiso   1.00
C277   C     0.78497   0.80159   0.71385   0.00000  Uiso   1.00
C278   C     0.76920   0.81411   0.74879   0.00000  Uiso   1.00
C279   C     0.27668   0.39569   0.76508   0.00000  Uiso   1.00
C280   C     0.25953   0.39290   0.79695   0.00000  Uiso   1.00
C281   C     0.23870   0.42473   0.84891   0.00000  Uiso   1.00
C282   C     0.85680   0.72795   0.71084   0.00000  Uiso   1.00
C283   C     0.93792   0.73707   0.69522   0.00000  Uiso   1.00
C284   C     0.99450   0.66175   0.69514   0.00000  Uiso   1.00
C285   C     0.10963   0.55978   0.68817   0.00000  Uiso   1.00
C286   C     0.19895   0.25993   0.70086   0.00000  Uiso   1.00
C287   C     0.14736   0.29592   0.67684   0.00000  Uiso   1.00
C288   C     0.07105   0.24751   0.66835   0.00000  Uiso   1.00
C289   C     0.94110   0.19519   0.64588   0.00000  Uiso   1.00
C290   C     0.74122   0.65160   0.74147   0.00000  Uiso   1.00
C291   C     0.74544   0.73264   0.76379   0.00000  Uiso   1.00
C292   C     0.72827   0.72973   0.79564   0.00000  Uiso   1.00
C293   C     0.23572   0.31129   0.81197   0.00000  Uiso   1.00
C294   C     0.83304   0.64648   0.72584   0.00000  Uiso   1.00
C295   C     0.88951   0.57112   0.72578   0.00000  Uiso   1.00
C296   C     0.97069   0.58013   0.71016   0.00000  Uiso   1.00
C297   C     0.67518   0.67845   0.71586   0.00000  Uiso   1.00
C298   C     0.59895   0.62997   0.70740   0.00000  Uiso   1.00
C299   C     0.04725   0.16589   0.68337   0.00000  Uiso   1.00
H300   H     0.30348   0.36502   0.70218   0.00000  Uiso   1.00
H301   H     0.29508   0.45872   0.75347   0.00000  Uiso   1.00
H302   H     0.95628   0.80013   0.68362   0.00000  Uiso   1.00
H303   H     0.16577   0.35897   0.66524   0.00000  Uiso   1.00
H304   H     0.27531   0.52667   0.81695   0.00000  Uiso   1.00
H305   H     0.11522   0.69226   0.66965   0.00000  Uiso   1.00
H306   H     0.00260   0.31634   0.63090   0.00000  Uiso   1.00
H307   H     0.72272   0.58816   0.75315   0.00000  Uiso   1.00
H308   H     0.70988   0.66667   0.80724   0.00000  Uiso   1.00
H309   H     0.87109   0.50808   0.73738   0.00000  Uiso   1.00
H310   H     0.58058   0.56693   0.71901   0.00000  Uiso   1.00
H311   H     0.20617   0.28963   0.86059   0.00000  Uiso   1.00
H312   H     0.04607   0.45522   0.71329   0.00000  Uiso   1.00
H313   H     0.43346   0.57931   0.67455   0.00000  Uiso   1.00
O314   O     0.23378   0.46479   0.87343   0.00000  Uiso   1.00
O315   O     0.17971   0.52605   0.68018   0.00000  Uiso   1.00
O316   O     0.87598   0.18885   0.62935   0.00000  Uiso   1.00
N317   N     0.26078   0.46011   0.81980   0.00000  Uiso   1.00
N318   N     0.07858   0.64746   0.68209   0.00000  Uiso   1.00
N319   N     0.00585   0.26346   0.64586   0.00000  Uiso   1.00
N320   N     0.22358   0.33256   0.84328   0.00000  Uiso   1.00
N321   N     0.04137   0.51991   0.70557   0.00000  Uiso   1.00
N322   N     0.96865   0.13591   0.66934   0.00000  Uiso   1.00
C323   C     0.09010   0.21320   0.96031   0.00000  Uiso   1.00
C324   C     0.10155   0.22419   0.99551   0.00000  Uiso   1.00
C325   C     0.68122   0.71376   0.01191   0.00000  Uiso   1.00
C326   C     0.67773   0.72668   0.04401   0.00000  Uiso   1.00
C327   C     0.70771   0.74027   0.09637   0.00000  Uiso   1.00
C328   C     0.01739   0.14109   0.95585   0.00000  Uiso   1.00
C329   C     0.52630   0.56080   0.93891   0.00000  Uiso   1.00
C330   C     0.95196   0.00378   0.93763   0.00000  Uiso   1.00
C331   C     0.85127   0.88839   0.92840   0.00000  Uiso   1.00
C332   C     0.05001   0.30274   0.94865   0.00000  Uiso   1.00
C333   C     0.08633   0.35836   0.92565   0.00000  Uiso   1.00
C334   C     0.03944   0.43743   0.91831   0.00000  Uiso   1.00
C335   C     0.98940   0.57303   0.89791   0.00000  Uiso   1.00
C336   C     0.94221   0.25469   0.98816   0.00000  Uiso   1.00
C337   C     0.02122   0.24672   0.01063   0.00000  Uiso   1.00
C338   C     0.01760   0.25967   0.04272   0.00000  Uiso   1.00
C339   C     0.09726   0.24926   0.05917   0.00000  Uiso   1.00
C340   C     0.93707   0.16362   0.97098   0.00000  Uiso   1.00
C341   C     0.36269   0.60671   0.96972   0.00000  Uiso   1.00
C342   C     0.37149   0.52636   0.95278   0.00000  Uiso   1.00
C343   C     0.96969   0.32528   0.96378   0.00000  Uiso   1.00
C344   C     0.92272   0.40427   0.95647   0.00000  Uiso   1.00
C345   C     0.95897   0.46001   0.93347   0.00000  Uiso   1.00
H346   H     0.65263   0.69565   0.94853   0.00000  Uiso   1.00
H347   H     0.74337   0.69631   0.00019   0.00000  Uiso   1.00
H348   H     0.58847   0.54339   0.92720   0.00000  Uiso   1.00
H349   H     0.14849   0.34090   0.91395   0.00000  Uiso   1.00
H350   H     0.80853   0.70695   0.06414   0.00000  Uiso   1.00
H351   H     0.98192   0.88452   0.91023   0.00000  Uiso   1.00
H352   H     0.10849   0.51188   0.88229   0.00000  Uiso   1.00
H353   H     0.87967   0.27223   0.99994   0.00000  Uiso   1.00
H354   H     0.95544   0.27710   0.05443   0.00000  Uiso   1.00
H355   H     0.30054   0.62417   0.98143   0.00000  Uiso   1.00
H356   H     0.86056   0.42169   0.96819   0.00000  Uiso   1.00
H357   H     0.07484   0.27252   0.10816   0.00000  Uiso   1.00
H358   H     0.24822   0.45009   0.95424   0.00000  Uiso   1.00
H359   H     0.87479   0.57745   0.92631   0.00000  Uiso   1.00
O360   O     0.74644   0.74153   0.12107   0.00000  Uiso   1.00
O361   O     0.81793   0.81852   0.91913   0.00000  Uiso   1.00
O362   O     0.98399   0.64160   0.88248   0.00000  Uiso   1.00
N363   N     0.74314   0.72173   0.06702   0.00000  Uiso   1.00
N364   N     0.93778   0.92027   0.92312   0.00000  Uiso   1.00
N365   N     0.05610   0.50679   0.89700   0.00000  Uiso   1.00
N366   N     0.11739   0.25702   0.09071   0.00000  Uiso   1.00
N367   N     0.31203   0.45555   0.94681   0.00000  Uiso   1.00
N368   N     0.93035   0.54207   0.92069   0.00000  Uiso   1.00
C369   C     0.28497   0.69841   0.28615   0.00000  Uiso   1.00
C370   C     0.26920   0.68589   0.25121   0.00000  Uiso   1.00
C371   C     0.77668   0.10431   0.23492   0.00000  Uiso   1.00
C372   C     0.75953   0.10710   0.20305   0.00000  Uiso   1.00
C373   C     0.73870   0.07527   0.15109   0.00000  Uiso   1.00
C374   C     0.35680   0.77205   0.28916   0.00000  Uiso   1.00
C375   C     0.43792   0.76293   0.30478   0.00000  Uiso   1.00
C376   C     0.49450   0.83825   0.30486   0.00000  Uiso   1.00
C377   C     0.60963   0.94022   0.31183   0.00000  Uiso   1.00
C378   C     0.69895   0.24007   0.29914   0.00000  Uiso   1.00
C379   C     0.64736   0.20408   0.32316   0.00000  Uiso   1.00
C380   C     0.57105   0.25249   0.33165   0.00000  Uiso   1.00
C381   C     0.44110   0.30481   0.35412   0.00000  Uiso   1.00
C382   C     0.24122   0.84840   0.25853   0.00000  Uiso   1.00
C383   C     0.24544   0.76736   0.23621   0.00000  Uiso   1.00
C384   C     0.22827   0.77027   0.20436   0.00000  Uiso   1.00
C385   C     0.73572   0.18871   0.18803   0.00000  Uiso   1.00
C386   C     0.33304   0.85352   0.27416   0.00000  Uiso   1.00
C387   C     0.38951   0.92888   0.27422   0.00000  Uiso   1.00
C388   C     0.47069   0.91987   0.28984   0.00000  Uiso   1.00
C389   C     0.17518   0.82155   0.28414   0.00000  Uiso   1.00
C390   C     0.09895   0.87003   0.29260   0.00000  Uiso   1.00
C391   C     0.54725   0.33411   0.31663   0.00000  Uiso   1.00
H392   H     0.80348   0.13498   0.29782   0.00000  Uiso   1.00
H393   H     0.79508   0.04128   0.24653   0.00000  Uiso   1.00
H394   H     0.45628   0.69987   0.31638   0.00000  Uiso   1.00
H395   H     0.66577   0.14103   0.33476   0.00000  Uiso   1.00
H396   H     0.77531   0.97333   0.18305   0.00000  Uiso   1.00
H397   H     0.61522   0.80774   0.33035   0.00000  Uiso   1.00
H398   H     0.50260   0.18366   0.36910   0.00000  Uiso   1.00
H399   H     0.22272   0.91184   0.24685   0.00000  Uiso   1.00
H400   H     0.20988   0.83333   0.19276   0.00000  Uiso   1.00
H401   H     0.37109   0.99192   0.26262   0.00000  Uiso   1.00
H402   H     0.08058   0.93307   0.28099   0.00000  Uiso   1.00
H403   H     0.70617   0.21037   0.13941   0.00000  Uiso   1.00
H404   H     0.54607   0.04478   0.28671   0.00000  Uiso   1.00
H405   H     0.93346   0.92069   0.32545   0.00000  Uiso   1.00
O406   O     0.73378   0.03521   0.12657   0.00000  Uiso   1.00
O407   O     0.67971   0.97395   0.31982   0.00000  Uiso   1.00
O408   O     0.37598   0.31115   0.37065   0.00000  Uiso   1.00
N409   N     0.76078   0.03989   0.18020   0.00000  Uiso   1.00
N410   N     0.57858   0.85254   0.31791   0.00000  Uiso   1.00
N411   N     0.50585   0.23654   0.35414   0.00000  Uiso   1.00
N412   N     0.72358   0.16744   0.15672   0.00000  Uiso   1.00
N413   N     0.54137   0.98009   0.29443   0.00000  Uiso   1.00
N414   N     0.46865   0.36409   0.33066   0.00000  Uiso   1.00
C415   C     0.59010   0.28680   0.03969   0.00000  Uiso   1.00
C416   C     0.60155   0.27581   0.00449   0.00000  Uiso   1.00
C417   C     0.18122   0.78624   0.98809   0.00000  Uiso   1.00
C418   C     0.17773   0.77332   0.95599   0.00000  Uiso   1.00
C419   C     0.20771   0.75973   0.90363   0.00000  Uiso   1.00
C420   C     0.51739   0.35891   0.04415   0.00000  Uiso   1.00
C421   C     0.02630   0.93920   0.06109   0.00000  Uiso   1.00
C422   C     0.45196   0.49622   0.06237   0.00000  Uiso   1.00
C423   C     0.35127   0.61161   0.07160   0.00000  Uiso   1.00
C424   C     0.55001   0.19726   0.05135   0.00000  Uiso   1.00
C425   C     0.58633   0.14164   0.07435   0.00000  Uiso   1.00
C426   C     0.53944   0.06257   0.08169   0.00000  Uiso   1.00
C427   C     0.48940   0.92697   0.10209   0.00000  Uiso   1.00
C428   C     0.44221   0.24531   0.01184   0.00000  Uiso   1.00
C429   C     0.52122   0.25328   0.98937   0.00000  Uiso   1.00
C430   C     0.51760   0.24033   0.95728   0.00000  Uiso   1.00
C431   C     0.59726   0.25074   0.94083   0.00000  Uiso   1.00
C432   C     0.43707   0.33638   0.02902   0.00000  Uiso   1.00
C433   C     0.86269   0.89329   0.03028   0.00000  Uiso   1.00
C434   C     0.87149   0.97364   0.04722   0.00000  Uiso   1.00
C435   C     0.46969   0.17472   0.03622   0.00000  Uiso   1.00
C436   C     0.42272   0.09573   0.04353   0.00000  Uiso   1.00
C437   C     0.45897   0.03999   0.06653   0.00000  Uiso   1.00
H438   H     0.15263   0.80435   0.05147   0.00000  Uiso   1.00
H439   H     0.24337   0.80369   0.99981   0.00000  Uiso   1.00
H440   H     0.08847   0.95661   0.07280   0.00000  Uiso   1.00
H441   H     0.64849   0.15910   0.08605   0.00000  Uiso   1.00
H442   H     0.30853   0.79305   0.93586   0.00000  Uiso   1.00
H443   H     0.48192   0.61548   0.08977   0.00000  Uiso   1.00
H444   H     0.60849   0.98812   0.11771   0.00000  Uiso   1.00
H445   H     0.37967   0.22777   0.00006   0.00000  Uiso   1.00
H446   H     0.45544   0.22290   0.94557   0.00000  Uiso   1.00
H447   H     0.80054   0.87583   0.01857   0.00000  Uiso   1.00
H448   H     0.36056   0.07831   0.03181   0.00000  Uiso   1.00
H449   H     0.57484   0.22748   0.89184   0.00000  Uiso   1.00
H450   H     0.74822   0.04991   0.04576   0.00000  Uiso   1.00
H451   H     0.37479   0.92255   0.07369   0.00000  Uiso   1.00
O452   O     0.24644   0.75847   0.87893   0.00000  Uiso   1.00
O453   O     0.31793   0.68148   0.08087   0.00000  Uiso   1.00
O454   O     0.48399   0.85840   0.11752   0.00000  Uiso   1.00
N455   N     0.24314   0.77827   0.93298   0.00000  Uiso   1.00
N456   N     0.43778   0.57973   0.07688   0.00000  Uiso   1.00
N457   N     0.55610   0.99321   0.10300   0.00000  Uiso   1.00
N458   N     0.61739   0.24298   0.90929   0.00000  Uiso   1.00
N459   N     0.81203   0.04445   0.05319   0.00000  Uiso   1.00
N460   N     0.43035   0.95793   0.07931   0.00000  Uiso   1.00
C461   C     0.78497   0.19841   0.28615   0.00000  Uiso   1.00
C462   C     0.76920   0.18589   0.25121   0.00000  Uiso   1.00
C463   C     0.27668   0.60431   0.23492   0.00000  Uiso   1.00
C464   C     0.25953   0.60710   0.20305   0.00000  Uiso   1.00
C465   C     0.23870   0.57527   0.15109   0.00000  Uiso   1.00
C466   C     0.85680   0.27205   0.28916   0.00000  Uiso   1.00
C467   C     0.93792   0.26293   0.30478   0.00000  Uiso   1.00
C468   C     0.99450   0.33825   0.30486   0.00000  Uiso   1.00
C469   C     0.10963   0.44022   0.31183   0.00000  Uiso   1.00
C470   C     0.19895   0.74007   0.29914   0.00000  Uiso   1.00
C471   C     0.14736   0.70408   0.32316   0.00000  Uiso   1.00
C472   C     0.07105   0.75249   0.33165   0.00000  Uiso   1.00
C473   C     0.94110   0.80481   0.35412   0.00000  Uiso   1.00
C474   C     0.74122   0.34840   0.25853   0.00000  Uiso   1.00
C475   C     0.74544   0.26736   0.23621   0.00000  Uiso   1.00
C476   C     0.72827   0.27027   0.20436   0.00000  Uiso   1.00
C477   C     0.23572   0.68871   0.18803   0.00000  Uiso   1.00
C478   C     0.83304   0.35352   0.27416   0.00000  Uiso   1.00
C479   C     0.88951   0.42888   0.27422   0.00000  Uiso   1.00
C480   C     0.97069   0.41987   0.28984   0.00000  Uiso   1.00
C481   C     0.67518   0.32155   0.28414   0.00000  Uiso   1.00
C482   C     0.59895   0.37003   0.29260   0.00000  Uiso   1.00
C483   C     0.04725   0.83411   0.31663   0.00000  Uiso   1.00
H484   H     0.30348   0.63498   0.29782   0.00000  Uiso   1.00
H485   H     0.29508   0.54128   0.24653   0.00000  Uiso   1.00
H486   H     0.95628   0.19987   0.31638   0.00000  Uiso   1.00
H487   H     0.16577   0.64103   0.33476   0.00000  Uiso   1.00
H488   H     0.27531   0.47333   0.18305   0.00000  Uiso   1.00
H489   H     0.11522   0.30774   0.33035   0.00000  Uiso   1.00
H490   H     0.00260   0.68366   0.36910   0.00000  Uiso   1.00
H491   H     0.72272   0.41184   0.24685   0.00000  Uiso   1.00
H492   H     0.70988   0.33333   0.19276   0.00000  Uiso   1.00
H493   H     0.87109   0.49192   0.26262   0.00000  Uiso   1.00
H494   H     0.58058   0.43307   0.28099   0.00000  Uiso   1.00
H495   H     0.20617   0.71037   0.13941   0.00000  Uiso   1.00
H496   H     0.04607   0.54478   0.28671   0.00000  Uiso   1.00
H497   H     0.43346   0.42069   0.32545   0.00000  Uiso   1.00
O498   O     0.23378   0.53521   0.12657   0.00000  Uiso   1.00
O499   O     0.17971   0.47395   0.31982   0.00000  Uiso   1.00
O500   O     0.87598   0.81115   0.37065   0.00000  Uiso   1.00
N501   N     0.26078   0.53989   0.18020   0.00000  Uiso   1.00
N502   N     0.07858   0.35254   0.31791   0.00000  Uiso   1.00
N503   N     0.00585   0.73654   0.35414   0.00000  Uiso   1.00
N504   N     0.22358   0.66744   0.15672   0.00000  Uiso   1.00
N505   N     0.04137   0.48009   0.29443   0.00000  Uiso   1.00
N506   N     0.96865   0.86409   0.33066   0.00000  Uiso   1.00
C507   C     0.09010   0.78680   0.03969   0.00000  Uiso   1.00
C508   C     0.10155   0.77581   0.00449   0.00000  Uiso   1.00
C509   C     0.68122   0.28624   0.98809   0.00000  Uiso   1.00
C510   C     0.67773   0.27332   0.95599   0.00000  Uiso   1.00
C511   C     0.70771   0.25973   0.90363   0.00000  Uiso   1.00
C512   C     0.01739   0.85891   0.04415   0.00000  Uiso   1.00
C513   C     0.52630   0.43920   0.06109   0.00000  Uiso   1.00
C514   C     0.95196   0.99622   0.06237   0.00000  Uiso   1.00
C515   C     0.85127   0.11161   0.07160   0.00000  Uiso   1.00
C516   C     0.05001   0.69726   0.05135   0.00000  Uiso   1.00
C517   C     0.08633   0.64164   0.07435   0.00000  Uiso   1.00
C518   C     0.03944   0.56257   0.08169   0.00000  Uiso   1.00
C519   C     0.98940   0.42697   0.10209   0.00000  Uiso   1.00
C520   C     0.94221   0.74531   0.01184   0.00000  Uiso   1.00
C521   C     0.02122   0.75328   0.98937   0.00000  Uiso   1.00
C522   C     0.01760   0.74033   0.95728   0.00000  Uiso   1.00
C523   C     0.09726   0.75074   0.94083   0.00000  Uiso   1.00
C524   C     0.93707   0.83638   0.02902   0.00000  Uiso   1.00
C525   C     0.36269   0.39329   0.03028   0.00000  Uiso   1.00
C526   C     0.37149   0.47364   0.04722   0.00000  Uiso   1.00
C527   C     0.96969   0.67472   0.03622   0.00000  Uiso   1.00
C528   C     0.92272   0.59573   0.04353   0.00000  Uiso   1.00
C529   C     0.95897   0.53999   0.06653   0.00000  Uiso   1.00
H530   H     0.65263   0.30435   0.05147   0.00000  Uiso   1.00
H531   H     0.74337   0.30369   0.99981   0.00000  Uiso   1.00
H532   H     0.58847   0.45661   0.07280   0.00000  Uiso   1.00
H533   H     0.14849   0.65910   0.08605   0.00000  Uiso   1.00
H534   H     0.80853   0.29305   0.93586   0.00000  Uiso   1.00
H535   H     0.98192   0.11548   0.08977   0.00000  Uiso   1.00
H536   H     0.10849   0.48812   0.11771   0.00000  Uiso   1.00
H537   H     0.87967   0.72777   0.00006   0.00000  Uiso   1.00
H538   H     0.95544   0.72290   0.94557   0.00000  Uiso   1.00
H539   H     0.30054   0.37583   0.01857   0.00000  Uiso   1.00
H540   H     0.86056   0.57831   0.03181   0.00000  Uiso   1.00
H541   H     0.07484   0.72748   0.89184   0.00000  Uiso   1.00
H542   H     0.24822   0.54991   0.04576   0.00000  Uiso   1.00
H543   H     0.87479   0.42255   0.07369   0.00000  Uiso   1.00
O544   O     0.74644   0.25847   0.87893   0.00000  Uiso   1.00
O545   O     0.81793   0.18148   0.08087   0.00000  Uiso   1.00
O546   O     0.98399   0.35840   0.11752   0.00000  Uiso   1.00
N547   N     0.74314   0.27827   0.93298   0.00000  Uiso   1.00
N548   N     0.93778   0.07973   0.07688   0.00000  Uiso   1.00
N549   N     0.05610   0.49321   0.10300   0.00000  Uiso   1.00
N550   N     0.11739   0.74298   0.90929   0.00000  Uiso   1.00
N551   N     0.31203   0.54445   0.05319   0.00000  Uiso   1.00
N552   N     0.93035   0.45793   0.07931   0.00000  Uiso   1.00
C553   C     0.71503   0.30159   0.78615   0.00000  Uiso   1.00
C554   C     0.73080   0.31411   0.75121   0.00000  Uiso   1.00
C555   C     0.22332   0.89569   0.73492   0.00000  Uiso   1.00
C556   C     0.24047   0.89290   0.70305   0.00000  Uiso   1.00
C557   C     0.26130   0.92473   0.65109   0.00000  Uiso   1.00
C558   C     0.64320   0.22795   0.78916   0.00000  Uiso   1.00
C559   C     0.56208   0.23707   0.80478   0.00000  Uiso   1.00
C560   C     0.50550   0.16175   0.80486   0.00000  Uiso   1.00
C561   C     0.39037   0.05978   0.81183   0.00000  Uiso   1.00
C562   C     0.30105   0.75993   0.79914   0.00000  Uiso   1.00
C563   C     0.35264   0.79592   0.82316   0.00000  Uiso   1.00
C564   C     0.42895   0.74751   0.83165   0.00000  Uiso   1.00
C565   C     0.55890   0.69519   0.85412   0.00000  Uiso   1.00
C566   C     0.75878   0.15160   0.75853   0.00000  Uiso   1.00
C567   C     0.75456   0.23264   0.73621   0.00000  Uiso   1.00
C568   C     0.77173   0.22973   0.70436   0.00000  Uiso   1.00
C569   C     0.26428   0.81129   0.68803   0.00000  Uiso   1.00
C570   C     0.66696   0.14648   0.77416   0.00000  Uiso   1.00
C571   C     0.61049   0.07112   0.77422   0.00000  Uiso   1.00
C572   C     0.52931   0.08013   0.78984   0.00000  Uiso   1.00
C573   C     0.82482   0.17845   0.78414   0.00000  Uiso   1.00
C574   C     0.90105   0.12997   0.79260   0.00000  Uiso   1.00
C575   C     0.45275   0.66589   0.81663   0.00000  Uiso   1.00
H576   H     0.19652   0.86502   0.79782   0.00000  Uiso   1.00
H577   H     0.20492   0.95872   0.74653   0.00000  Uiso   1.00
H578   H     0.54372   0.30013   0.81638   0.00000  Uiso   1.00
H579   H     0.33423   0.85897   0.83476   0.00000  Uiso   1.00
H580   H     0.22469   0.02667   0.68305   0.00000  Uiso   1.00
H581   H     0.38478   0.19226   0.83035   0.00000  Uiso   1.00
H582   H     0.49740   0.81634   0.86910   0.00000  Uiso   1.00
H583   H     0.77728   0.08816   0.74685   0.00000  Uiso   1.00
H584   H     0.79012   0.16667   0.69276   0.00000  Uiso   1.00
H585   H     0.62891   0.00808   0.76262   0.00000  Uiso   1.00
H586   H     0.91942   0.06693   0.78099   0.00000  Uiso   1.00
H587   H     0.29383   0.78963   0.63941   0.00000  Uiso   1.00
H588   H     0.45393   0.95522   0.78671   0.00000  Uiso   1.00
H589   H     0.06654   0.07931   0.82545   0.00000  Uiso   1.00
O590   O     0.26622   0.96479   0.62657   0.00000  Uiso   1.00
O591   O     0.32029   0.02605   0.81982   0.00000  Uiso   1.00
O592   O     0.62402   0.68885   0.87065   0.00000  Uiso   1.00
N593   N     0.23922   0.96011   0.68020   0.00000  Uiso   1.00
N594   N     0.42142   0.14746   0.81791   0.00000  Uiso   1.00
N595   N     0.49415   0.76346   0.85414   0.00000  Uiso   1.00
N596   N     0.27642   0.83256   0.65672   0.00000  Uiso   1.00
N597   N     0.45863   0.01991   0.79443   0.00000  Uiso   1.00
N598   N     0.53135   0.63591   0.83066   0.00000  Uiso   1.00
C599   C     0.40990   0.71320   0.53969   0.00000  Uiso   1.00
C600   C     0.39845   0.72419   0.50449   0.00000  Uiso   1.00
C601   C     0.81878   0.21376   0.48809   0.00000  Uiso   1.00
C602   C     0.82227   0.22668   0.45599   0.00000  Uiso   1.00
C603   C     0.79229   0.24027   0.40363   0.00000  Uiso   1.00
C604   C     0.48261   0.64109   0.54415   0.00000  Uiso   1.00
C605   C     0.97370   0.06080   0.56109   0.00000  Uiso   1.00
C606   C     0.54804   0.50378   0.56237   0.00000  Uiso   1.00
C607   C     0.64873   0.38839   0.57160   0.00000  Uiso   1.00
C608   C     0.44999   0.80274   0.55135   0.00000  Uiso   1.00
C609   C     0.41367   0.85836   0.57435   0.00000  Uiso   1.00
C610   C     0.46056   0.93743   0.58169   0.00000  Uiso   1.00
C611   C     0.51060   0.07303   0.60209   0.00000  Uiso   1.00
C612   C     0.55779   0.75469   0.51184   0.00000  Uiso   1.00
C613   C     0.47878   0.74672   0.48937   0.00000  Uiso   1.00
C614   C     0.48240   0.75967   0.45728   0.00000  Uiso   1.00
C615   C     0.40274   0.74926   0.44083   0.00000  Uiso   1.00
C616   C     0.56293   0.66362   0.52902   0.00000  Uiso   1.00
C617   C     0.13731   0.10671   0.53028   0.00000  Uiso   1.00
C618   C     0.12851   0.02636   0.54722   0.00000  Uiso   1.00
C619   C     0.53031   0.82528   0.53622   0.00000  Uiso   1.00
C620   C     0.57728   0.90427   0.54353   0.00000  Uiso   1.00
C621   C     0.54103   0.96001   0.56653   0.00000  Uiso   1.00
H622   H     0.84737   0.19565   0.55147   0.00000  Uiso   1.00
H623   H     0.75663   0.19631   0.49981   0.00000  Uiso   1.00
H624   H     0.91153   0.04339   0.57280   0.00000  Uiso   1.00
H625   H     0.35151   0.84090   0.58605   0.00000  Uiso   1.00
H626   H     0.69147   0.20695   0.43586   0.00000  Uiso   1.00
H627   H     0.51808   0.38452   0.58977   0.00000  Uiso   1.00
H628   H     0.39151   0.01188   0.61771   0.00000  Uiso   1.00
H629   H     0.62033   0.77223   0.50006   0.00000  Uiso   1.00
H630   H     0.54456   0.77710   0.44557   0.00000  Uiso   1.00
H631   H     0.19946   0.12417   0.51857   0.00000  Uiso   1.00
H632   H     0.63944   0.92169   0.53181   0.00000  Uiso   1.00
H633   H     0.42516   0.77252   0.39184   0.00000  Uiso   1.00
H634   H     0.25178   0.95009   0.54576   0.00000  Uiso   1.00
H635   H     0.62521   0.07745   0.57369   0.00000  Uiso   1.00
O636   O     0.75356   0.24153   0.37893   0.00000  Uiso   1.00
O637   O     0.68207   0.31852   0.58087   0.00000  Uiso   1.00
O638   O     0.51601   0.14160   0.61752   0.00000  Uiso   1.00
N639   N     0.75686   0.22173   0.43298   0.00000  Uiso   1.00
N640   N     0.56222   0.42027   0.57688   0.00000  Uiso   1.00
N641   N     0.44390   0.00679   0.60300   0.00000  Uiso   1.00
N642   N     0.38261   0.75702   0.40929   0.00000  Uiso   1.00
N643   N     0.18797   0.95555   0.55319   0.00000  Uiso   1.00
N644   N     0.56965   0.04207   0.57931   0.00000  Uiso   1.00
C645   C     0.21503   0.80159   0.78615   0.00000  Uiso   1.00
C646   C     0.23080   0.81411   0.75121   0.00000  Uiso   1.00
C647   C     0.72332   0.39569   0.73492   0.00000  Uiso   1.00
C648   C     0.74047   0.39290   0.70305   0.00000  Uiso   1.00
C649   C     0.76130   0.42473   0.65109   0.00000  Uiso   1.00
C650   C     0.14320   0.72795   0.78916   0.00000  Uiso   1.00
C651   C     0.06208   0.73707   0.80478   0.00000  Uiso   1.00
C652   C     0.00550   0.66175   0.80486   0.00000  Uiso   1.00
C653   C     0.89037   0.55978   0.81183   0.00000  Uiso   1.00
C654   C     0.80105   0.25993   0.79914   0.00000  Uiso   1.00
C655   C     0.85264   0.29592   0.82316   0.00000  Uiso   1.00
C656   C     0.92895   0.24751   0.83165   0.00000  Uiso   1.00
C657   C     0.05890   0.19519   0.85412   0.00000  Uiso   1.00
C658   C     0.25878   0.65160   0.75853   0.00000  Uiso   1.00
C659   C     0.25456   0.73264   0.73621   0.00000  Uiso   1.00
C660   C     0.27173   0.72973   0.70436   0.00000  Uiso   1.00
C661   C     0.76428   0.31129   0.68803   0.00000  Uiso   1.00
C662   C     0.16696   0.64648   0.77416   0.00000  Uiso   1.00
C663   C     0.11049   0.57112   0.77422   0.00000  Uiso   1.00
C664   C     0.02931   0.58013   0.78984   0.00000  Uiso   1.00
C665   C     0.32482   0.67845   0.78414   0.00000  Uiso   1.00
C666   C     0.40105   0.62997   0.79260   0.00000  Uiso   1.00
C667   C     0.95275   0.16589   0.81663   0.00000  Uiso   1.00
H668   H     0.69652   0.36502   0.79782   0.00000  Uiso   1.00
H669   H     0.70492   0.45872   0.74653   0.00000  Uiso   1.00
H670   H     0.04372   0.80013   0.81638   0.00000  Uiso   1.00
H671   H     0.83423   0.35897   0.83476   0.00000  Uiso   1.00
H672   H     0.72469   0.52667   0.68305   0.00000  Uiso   1.00
H673   H     0.88478   0.69226   0.83035   0.00000  Uiso   1.00
H674   H     0.99740   0.31634   0.86910   0.00000  Uiso   1.00
H675   H     0.27728   0.58816   0.74685   0.00000  Uiso   1.00
H676   H     0.29012   0.66667   0.69276   0.00000  Uiso   1.00
H677   H     0.12891   0.50808   0.76262   0.00000  Uiso   1.00
H678   H     0.41942   0.56693   0.78099   0.00000  Uiso   1.00
H679   H     0.79383   0.28963   0.63941   0.00000  Uiso   1.00
H680   H     0.95393   0.45522   0.78671   0.00000  Uiso   1.00
H681   H     0.56654   0.57931   0.82545   0.00000  Uiso   1.00
O682   O     0.76622   0.46479   0.62657   0.00000  Uiso   1.00
O683   O     0.82029   0.52605   0.81982   0.00000  Uiso   1.00
O684   O     0.12402   0.18885   0.87065   0.00000  Uiso   1.00
N685   N     0.73922   0.46011   0.68020   0.00000  Uiso   1.00
N686   N     0.92142   0.64746   0.81791   0.00000  Uiso   1.00
N687   N     0.99415   0.26346   0.85414   0.00000  Uiso   1.00
N688   N     0.77642   0.33256   0.65672   0.00000  Uiso   1.00
N689   N     0.95863   0.51991   0.79443   0.00000  Uiso   1.00
N690   N     0.03135   0.13591   0.83066   0.00000  Uiso   1.00
C691   C     0.90990   0.21320   0.53969   0.00000  Uiso   1.00
C692   C     0.89845   0.22419   0.50449   0.00000  Uiso   1.00
C693   C     0.31878   0.71376   0.48809   0.00000  Uiso   1.00
C694   C     0.32227   0.72668   0.45599   0.00000  Uiso   1.00
C695   C     0.29229   0.74027   0.40363   0.00000  Uiso   1.00
C696   C     0.98261   0.14109   0.54415   0.00000  Uiso   1.00
C697   C     0.47370   0.56080   0.56109   0.00000  Uiso   1.00
C698   C     0.04804   0.00378   0.56237   0.00000  Uiso   1.00
C699   C     0.14873   0.88839   0.57160   0.00000  Uiso   1.00
C700   C     0.94999   0.30274   0.55135   0.00000  Uiso   1.00
C701   C     0.91367   0.35836   0.57435   0.00000  Uiso   1.00
C702   C     0.96056   0.43743   0.58169   0.00000  Uiso   1.00
C703   C     0.01060   0.57303   0.60209   0.00000  Uiso   1.00
C704   C     0.05779   0.25469   0.51184   0.00000  Uiso   1.00
C705   C     0.97878   0.24672   0.48937   0.00000  Uiso   1.00
C706   C     0.98240   0.25967   0.45728   0.00000  Uiso   1.00
C707   C     0.90274   0.24926   0.44083   0.00000  Uiso   1.00
C708   C     0.06293   0.16362   0.52902   0.00000  Uiso   1.00
C709   C     0.63731   0.60671   0.53028   0.00000  Uiso   1.00
C710   C     0.62851   0.52636   0.54722   0.00000  Uiso   1.00
C711   C     0.03031   0.32528   0.53622   0.00000  Uiso   1.00
C712   C     0.07728   0.40427   0.54353   0.00000  Uiso   1.00
C713   C     0.04103   0.46001   0.56653   0.00000  Uiso   1.00
H714   H     0.34737   0.69565   0.55147   0.00000  Uiso   1.00
H715   H     0.25663   0.69631   0.49981   0.00000  Uiso   1.00
H716   H     0.41153   0.54339   0.57280   0.00000  Uiso   1.00
H717   H     0.85151   0.34090   0.58605   0.00000  Uiso   1.00
H718   H     0.19147   0.70695   0.43586   0.00000  Uiso   1.00
H719   H     0.01808   0.88452   0.58977   0.00000  Uiso   1.00
H720   H     0.89151   0.51188   0.61771   0.00000  Uiso   1.00
H721   H     0.12033   0.27223   0.50006   0.00000  Uiso   1.00
H722   H     0.04456   0.27710   0.44557   0.00000  Uiso   1.00
H723   H     0.69946   0.62417   0.51857   0.00000  Uiso   1.00
H724   H     0.13944   0.42169   0.53181   0.00000  Uiso   1.00
H725   H     0.92516   0.27252   0.39184   0.00000  Uiso   1.00
H726   H     0.75178   0.45009   0.54576   0.00000  Uiso   1.00
H727   H     0.12521   0.57745   0.57369   0.00000  Uiso   1.00
O728   O     0.25356   0.74153   0.37893   0.00000  Uiso   1.00
O729   O     0.18207   0.81852   0.58087   0.00000  Uiso   1.00
O730   O     0.01601   0.64160   0.61752   0.00000  Uiso   1.00
N731   N     0.25686   0.72173   0.43298   0.00000  Uiso   1.00
N732   N     0.06222   0.92027   0.57688   0.00000  Uiso   1.00
N733   N     0.94390   0.50679   0.60300   0.00000  Uiso   1.00
N734   N     0.88261   0.25702   0.40929   0.00000  Uiso   1.00
N735   N     0.68797   0.45555   0.55319   0.00000  Uiso   1.00
N736   N     0.06965   0.54207   0.57931   0.00000  Uiso   1.00
