data_job_04757
_audit_creation_date              2018-12-19
_audit_creation_method            'Materials Studio'
_symmetry_space_group_name_H-M    'P1'
_symmetry_Int_Tables_number       1
_symmetry_cell_setting            triclinic
loop_
_symmetry_equiv_pos_as_xyz
  x,y,z
_cell_length_a                    21.0731
_cell_length_b                    21.0731
_cell_length_c                    22.6027
_cell_angle_alpha                 90.0000
_cell_angle_beta                  90.0000
_cell_angle_gamma                 90.0000
loop_
_atom_site_label
_atom_site_type_symbol
_atom_site_fract_x
_atom_site_fract_y
_atom_site_fract_z
_atom_site_U_iso_or_equiv
_atom_site_adp_type
_atom_site_occupancy
C1     C     0.25142   0.56585   0.04313   0.00000  Uiso   1.00
C2     C     0.20423   0.59308   0.08754   0.00000  Uiso   1.00
C3     C     0.15899   0.63921   0.07565   0.00000  Uiso   1.00
C4     C     0.12031   0.65778   0.12226   0.00000  Uiso   1.00
C5     C     0.04609   0.70413   0.18263   0.00000  Uiso   1.00
C6     C     0.31706   0.57663   0.06971   0.00000  Uiso   1.00
C7     C     0.36668   0.60893   0.04282   0.00000  Uiso   1.00
C8     C     0.42298   0.61365   0.07442   0.00000  Uiso   1.00
C9     C     0.52394   0.63442   0.10709   0.00000  Uiso   1.00
C10    C     0.24103   0.49424   0.04337   0.00000  Uiso   1.00
C11    C     0.22676   0.45726   0.99434   0.00000  Uiso   1.00
C12    C     0.21907   0.39260   0.00377   0.00000  Uiso   1.00
C13    C     0.20198   0.28546   0.99556   0.00000  Uiso   1.00
C14    C     0.26317   0.51680   0.14706   0.00000  Uiso   1.00
C15    C     0.21061   0.56643   0.14398   0.00000  Uiso   1.00
C16    C     0.17199   0.58494   0.19063   0.00000  Uiso   1.00
C17    C     0.12670   0.63109   0.17881   0.00000  Uiso   1.00
C18    C     0.32344   0.54999   0.12615   0.00000  Uiso   1.00
C19    C     0.37968   0.55466   0.15780   0.00000  Uiso   1.00
C20    C     0.42938   0.58695   0.13097   0.00000  Uiso   1.00
C21    C     0.24741   0.46760   0.09982   0.00000  Uiso   1.00
C22    C     0.23975   0.40299   0.10933   0.00000  Uiso   1.00
C23    C     0.22546   0.36591   0.06032   0.00000  Uiso   1.00
H24    H     0.24646   0.58660   0.99918   0.00000  Uiso   1.00
H25    H     0.15407   0.65982   0.03196   0.00000  Uiso   1.00
H26    H     0.36173   0.62953   0.99913   0.00000  Uiso   1.00
H27    H     0.22182   0.47789   0.95067   0.00000  Uiso   1.00
H28    H     0.05448   0.72927   0.09319   0.00000  Uiso   1.00
H29    H     0.49235   0.66539   0.02397   0.00000  Uiso   1.00
H30    H     0.19732   0.34562   0.92177   0.00000  Uiso   1.00
H31    H     0.26814   0.49606   0.19101   0.00000  Uiso   1.00
H32    H     0.17694   0.56431   0.23431   0.00000  Uiso   1.00
H33    H     0.38460   0.53403   0.20148   0.00000  Uiso   1.00
H34    H     0.24469   0.38239   0.15302   0.00000  Uiso   1.00
H35    H     0.07304   0.65175   0.25743   0.00000  Uiso   1.00
H36    H     0.51091   0.58788   0.18821   0.00000  Uiso   1.00
H37    H     0.21588   0.26811   0.08600   0.00000  Uiso   1.00
O38    O     0.00339   0.73706   0.20034   0.00000  Uiso   1.00
O39    O     0.57786   0.65325   0.10952   0.00000  Uiso   1.00
O40    O     0.19079   0.23372   0.97543   0.00000  Uiso   1.00
N41    N     0.07135   0.70165   0.12590   0.00000  Uiso   1.00
N42    N     0.48073   0.64194   0.06119   0.00000  Uiso   1.00
N43    N     0.20493   0.34298   0.96563   0.00000  Uiso   1.00
N44    N     0.08134   0.65994   0.21427   0.00000  Uiso   1.00
N45    N     0.49072   0.60023   0.14956   0.00000  Uiso   1.00
N46    N     0.21491   0.30127   0.05401   0.00000  Uiso   1.00
C47    C     0.75142   0.06585   0.54313   0.00000  Uiso   1.00
C48    C     0.70423   0.09308   0.58754   0.00000  Uiso   1.00
C49    C     0.65899   0.13921   0.57565   0.00000  Uiso   1.00
C50    C     0.62031   0.15778   0.62226   0.00000  Uiso   1.00
C51    C     0.54609   0.20413   0.68263   0.00000  Uiso   1.00
C52    C     0.81706   0.07663   0.56971   0.00000  Uiso   1.00
C53    C     0.86668   0.10893   0.54282   0.00000  Uiso   1.00
C54    C     0.92298   0.11365   0.57442   0.00000  Uiso   1.00
C55    C     0.02394   0.13442   0.60709   0.00000  Uiso   1.00
C56    C     0.74103   0.99424   0.54337   0.00000  Uiso   1.00
C57    C     0.72676   0.95726   0.49434   0.00000  Uiso   1.00
C58    C     0.71907   0.89260   0.50377   0.00000  Uiso   1.00
C59    C     0.70198   0.78546   0.49556   0.00000  Uiso   1.00
C60    C     0.76317   0.01680   0.64706   0.00000  Uiso   1.00
C61    C     0.71061   0.06643   0.64398   0.00000  Uiso   1.00
C62    C     0.67199   0.08494   0.69063   0.00000  Uiso   1.00
C63    C     0.62670   0.13109   0.67881   0.00000  Uiso   1.00
C64    C     0.82344   0.04999   0.62615   0.00000  Uiso   1.00
C65    C     0.87968   0.05466   0.65780   0.00000  Uiso   1.00
C66    C     0.92938   0.08695   0.63097   0.00000  Uiso   1.00
C67    C     0.74741   0.96760   0.59982   0.00000  Uiso   1.00
C68    C     0.73975   0.90299   0.60933   0.00000  Uiso   1.00
C69    C     0.72546   0.86591   0.56032   0.00000  Uiso   1.00
H70    H     0.74646   0.08660   0.49918   0.00000  Uiso   1.00
H71    H     0.65407   0.15982   0.53196   0.00000  Uiso   1.00
H72    H     0.86173   0.12953   0.49913   0.00000  Uiso   1.00
H73    H     0.72182   0.97789   0.45067   0.00000  Uiso   1.00
H74    H     0.55448   0.22927   0.59319   0.00000  Uiso   1.00
H75    H     0.99235   0.16539   0.52397   0.00000  Uiso   1.00
H76    H     0.69732   0.84562   0.42177   0.00000  Uiso   1.00
H77    H     0.76814   0.99606   0.69101   0.00000  Uiso   1.00
H78    H     0.67694   0.06431   0.73431   0.00000  Uiso   1.00
H79    H     0.88460   0.03403   0.70148   0.00000  Uiso   1.00
H80    H     0.74469   0.88239   0.65302   0.00000  Uiso   1.00
H81    H     0.57304   0.15175   0.75743   0.00000  Uiso   1.00
H82    H     0.01091   0.08788   0.68821   0.00000  Uiso   1.00
H83    H     0.71588   0.76811   0.58600   0.00000  Uiso   1.00
O84    O     0.50339   0.23706   0.70034   0.00000  Uiso   1.00
O85    O     0.07786   0.15325   0.60952   0.00000  Uiso   1.00
O86    O     0.69079   0.73372   0.47543   0.00000  Uiso   1.00
N87    N     0.57135   0.20165   0.62590   0.00000  Uiso   1.00
N88    N     0.98073   0.14194   0.56119   0.00000  Uiso   1.00
N89    N     0.70493   0.84298   0.46563   0.00000  Uiso   1.00
N90    N     0.58134   0.15994   0.71427   0.00000  Uiso   1.00
N91    N     0.99072   0.10023   0.64956   0.00000  Uiso   1.00
N92    N     0.71491   0.80127   0.55401   0.00000  Uiso   1.00
C93    C     0.24858   0.93415   0.54313   0.00000  Uiso   1.00
C94    C     0.29577   0.90692   0.58754   0.00000  Uiso   1.00
C95    C     0.34101   0.86079   0.57565   0.00000  Uiso   1.00
C96    C     0.37969   0.84222   0.62226   0.00000  Uiso   1.00
C97    C     0.45391   0.79587   0.68263   0.00000  Uiso   1.00
C98    C     0.18294   0.92337   0.56971   0.00000  Uiso   1.00
C99    C     0.13332   0.89107   0.54282   0.00000  Uiso   1.00
C100   C     0.07702   0.88635   0.57442   0.00000  Uiso   1.00
C101   C     0.97606   0.86558   0.60709   0.00000  Uiso   1.00
C102   C     0.25897   0.00576   0.54337   0.00000  Uiso   1.00
C103   C     0.27324   0.04274   0.49434   0.00000  Uiso   1.00
C104   C     0.28093   0.10740   0.50377   0.00000  Uiso   1.00
C105   C     0.29802   0.21454   0.49556   0.00000  Uiso   1.00
C106   C     0.23683   0.98320   0.64706   0.00000  Uiso   1.00
C107   C     0.28939   0.93357   0.64398   0.00000  Uiso   1.00
C108   C     0.32801   0.91506   0.69063   0.00000  Uiso   1.00
C109   C     0.37330   0.86891   0.67881   0.00000  Uiso   1.00
C110   C     0.17656   0.95001   0.62615   0.00000  Uiso   1.00
C111   C     0.12032   0.94534   0.65780   0.00000  Uiso   1.00
C112   C     0.07062   0.91305   0.63097   0.00000  Uiso   1.00
C113   C     0.25259   0.03240   0.59982   0.00000  Uiso   1.00
C114   C     0.26025   0.09701   0.60933   0.00000  Uiso   1.00
C115   C     0.27454   0.13409   0.56032   0.00000  Uiso   1.00
H116   H     0.25354   0.91340   0.49918   0.00000  Uiso   1.00
H117   H     0.34593   0.84018   0.53196   0.00000  Uiso   1.00
H118   H     0.13827   0.87047   0.49913   0.00000  Uiso   1.00
H119   H     0.27818   0.02211   0.45067   0.00000  Uiso   1.00
H120   H     0.44552   0.77073   0.59319   0.00000  Uiso   1.00
H121   H     0.00765   0.83461   0.52397   0.00000  Uiso   1.00
H122   H     0.30268   0.15438   0.42177   0.00000  Uiso   1.00
H123   H     0.23186   0.00394   0.69101   0.00000  Uiso   1.00
H124   H     0.32306   0.93569   0.73431   0.00000  Uiso   1.00
H125   H     0.11540   0.96597   0.70148   0.00000  Uiso   1.00
H126   H     0.25531   0.11761   0.65302   0.00000  Uiso   1.00
H127   H     0.42696   0.84825   0.75743   0.00000  Uiso   1.00
H128   H     0.98909   0.91212   0.68821   0.00000  Uiso   1.00
H129   H     0.28412   0.23189   0.58600   0.00000  Uiso   1.00
O130   O     0.49661   0.76294   0.70034   0.00000  Uiso   1.00
O131   O     0.92214   0.84675   0.60952   0.00000  Uiso   1.00
O132   O     0.30921   0.26628   0.47543   0.00000  Uiso   1.00
N133   N     0.42865   0.79835   0.62590   0.00000  Uiso   1.00
N134   N     0.01927   0.85806   0.56119   0.00000  Uiso   1.00
N135   N     0.29507   0.15702   0.46563   0.00000  Uiso   1.00
N136   N     0.41866   0.84006   0.71427   0.00000  Uiso   1.00
N137   N     0.00928   0.89977   0.64956   0.00000  Uiso   1.00
N138   N     0.28509   0.19873   0.55401   0.00000  Uiso   1.00
C139   C     0.74858   0.43415   0.04313   0.00000  Uiso   1.00
C140   C     0.79577   0.40692   0.08754   0.00000  Uiso   1.00
C141   C     0.84101   0.36079   0.07565   0.00000  Uiso   1.00
C142   C     0.87969   0.34222   0.12226   0.00000  Uiso   1.00
C143   C     0.95391   0.29587   0.18263   0.00000  Uiso   1.00
C144   C     0.68294   0.42337   0.06971   0.00000  Uiso   1.00
C145   C     0.63332   0.39107   0.04282   0.00000  Uiso   1.00
C146   C     0.57702   0.38635   0.07442   0.00000  Uiso   1.00
C147   C     0.47606   0.36558   0.10709   0.00000  Uiso   1.00
C148   C     0.75897   0.50576   0.04337   0.00000  Uiso   1.00
C149   C     0.77324   0.54274   0.99434   0.00000  Uiso   1.00
C150   C     0.78093   0.60740   0.00377   0.00000  Uiso   1.00
C151   C     0.79802   0.71454   0.99556   0.00000  Uiso   1.00
C152   C     0.73683   0.48320   0.14706   0.00000  Uiso   1.00
C153   C     0.78939   0.43357   0.14398   0.00000  Uiso   1.00
C154   C     0.82801   0.41506   0.19063   0.00000  Uiso   1.00
C155   C     0.87330   0.36891   0.17881   0.00000  Uiso   1.00
C156   C     0.67656   0.45001   0.12615   0.00000  Uiso   1.00
C157   C     0.62032   0.44534   0.15780   0.00000  Uiso   1.00
C158   C     0.57062   0.41305   0.13097   0.00000  Uiso   1.00
C159   C     0.75259   0.53240   0.09982   0.00000  Uiso   1.00
C160   C     0.76025   0.59701   0.10933   0.00000  Uiso   1.00
C161   C     0.77454   0.63409   0.06032   0.00000  Uiso   1.00
H162   H     0.75354   0.41340   0.99918   0.00000  Uiso   1.00
H163   H     0.84593   0.34018   0.03196   0.00000  Uiso   1.00
H164   H     0.63827   0.37047   0.99913   0.00000  Uiso   1.00
H165   H     0.77818   0.52211   0.95067   0.00000  Uiso   1.00
H166   H     0.94552   0.27073   0.09319   0.00000  Uiso   1.00
H167   H     0.50765   0.33461   0.02397   0.00000  Uiso   1.00
H168   H     0.80268   0.65438   0.92177   0.00000  Uiso   1.00
H169   H     0.73186   0.50394   0.19101   0.00000  Uiso   1.00
H170   H     0.82306   0.43569   0.23431   0.00000  Uiso   1.00
H171   H     0.61540   0.46597   0.20148   0.00000  Uiso   1.00
H172   H     0.75531   0.61761   0.15302   0.00000  Uiso   1.00
H173   H     0.92696   0.34825   0.25743   0.00000  Uiso   1.00
H174   H     0.48909   0.41212   0.18821   0.00000  Uiso   1.00
H175   H     0.78412   0.73189   0.08600   0.00000  Uiso   1.00
O176   O     0.99661   0.26294   0.20034   0.00000  Uiso   1.00
O177   O     0.42214   0.34675   0.10952   0.00000  Uiso   1.00
O178   O     0.80921   0.76628   0.97543   0.00000  Uiso   1.00
N179   N     0.92865   0.29835   0.12590   0.00000  Uiso   1.00
N180   N     0.51927   0.35806   0.06119   0.00000  Uiso   1.00
N181   N     0.79507   0.65702   0.96563   0.00000  Uiso   1.00
N182   N     0.91866   0.34006   0.21427   0.00000  Uiso   1.00
N183   N     0.50928   0.39977   0.14956   0.00000  Uiso   1.00
N184   N     0.78509   0.69873   0.05401   0.00000  Uiso   1.00
C185   C     0.43415   0.75142   0.29313   0.00000  Uiso   1.00
C186   C     0.40692   0.70423   0.33754   0.00000  Uiso   1.00
C187   C     0.36079   0.65899   0.32565   0.00000  Uiso   1.00
C188   C     0.34222   0.62031   0.37226   0.00000  Uiso   1.00
C189   C     0.29587   0.54609   0.43263   0.00000  Uiso   1.00
C190   C     0.42337   0.81706   0.31971   0.00000  Uiso   1.00
C191   C     0.39107   0.86668   0.29282   0.00000  Uiso   1.00
C192   C     0.38635   0.92298   0.32442   0.00000  Uiso   1.00
C193   C     0.36558   0.02394   0.35709   0.00000  Uiso   1.00
C194   C     0.50576   0.74103   0.29337   0.00000  Uiso   1.00
C195   C     0.54274   0.72676   0.24434   0.00000  Uiso   1.00
C196   C     0.60740   0.71907   0.25377   0.00000  Uiso   1.00
C197   C     0.71454   0.70198   0.24556   0.00000  Uiso   1.00
C198   C     0.48320   0.76317   0.39706   0.00000  Uiso   1.00
C199   C     0.43357   0.71061   0.39398   0.00000  Uiso   1.00
C200   C     0.41506   0.67199   0.44063   0.00000  Uiso   1.00
C201   C     0.36891   0.62670   0.42881   0.00000  Uiso   1.00
C202   C     0.45001   0.82344   0.37615   0.00000  Uiso   1.00
C203   C     0.44534   0.87968   0.40780   0.00000  Uiso   1.00
C204   C     0.41305   0.92938   0.38097   0.00000  Uiso   1.00
C205   C     0.53240   0.74741   0.34982   0.00000  Uiso   1.00
C206   C     0.59701   0.73975   0.35933   0.00000  Uiso   1.00
C207   C     0.63409   0.72546   0.31032   0.00000  Uiso   1.00
H208   H     0.41340   0.74646   0.24918   0.00000  Uiso   1.00
H209   H     0.34018   0.65407   0.28196   0.00000  Uiso   1.00
H210   H     0.37047   0.86173   0.24913   0.00000  Uiso   1.00
H211   H     0.52211   0.72182   0.20067   0.00000  Uiso   1.00
H212   H     0.27073   0.55448   0.34319   0.00000  Uiso   1.00
H213   H     0.33461   0.99235   0.27397   0.00000  Uiso   1.00
H214   H     0.65438   0.69732   0.17177   0.00000  Uiso   1.00
H215   H     0.50394   0.76814   0.44101   0.00000  Uiso   1.00
H216   H     0.43569   0.67694   0.48431   0.00000  Uiso   1.00
H217   H     0.46597   0.88460   0.45148   0.00000  Uiso   1.00
H218   H     0.61761   0.74469   0.40302   0.00000  Uiso   1.00
H219   H     0.34825   0.57304   0.50743   0.00000  Uiso   1.00
H220   H     0.41212   0.01091   0.43821   0.00000  Uiso   1.00
H221   H     0.73189   0.71588   0.33600   0.00000  Uiso   1.00
O222   O     0.26294   0.50339   0.45034   0.00000  Uiso   1.00
O223   O     0.34675   0.07786   0.35952   0.00000  Uiso   1.00
O224   O     0.76628   0.69079   0.22543   0.00000  Uiso   1.00
N225   N     0.29835   0.57135   0.37590   0.00000  Uiso   1.00
N226   N     0.35806   0.98073   0.31119   0.00000  Uiso   1.00
N227   N     0.65702   0.70493   0.21563   0.00000  Uiso   1.00
N228   N     0.34006   0.58134   0.46427   0.00000  Uiso   1.00
N229   N     0.39977   0.99072   0.39956   0.00000  Uiso   1.00
N230   N     0.69873   0.71491   0.30401   0.00000  Uiso   1.00
C231   C     0.93415   0.25142   0.79313   0.00000  Uiso   1.00
C232   C     0.90692   0.20423   0.83754   0.00000  Uiso   1.00
C233   C     0.86079   0.15899   0.82565   0.00000  Uiso   1.00
C234   C     0.84222   0.12031   0.87226   0.00000  Uiso   1.00
C235   C     0.79587   0.04609   0.93263   0.00000  Uiso   1.00
C236   C     0.92337   0.31706   0.81971   0.00000  Uiso   1.00
C237   C     0.89107   0.36668   0.79282   0.00000  Uiso   1.00
C238   C     0.88635   0.42298   0.82442   0.00000  Uiso   1.00
C239   C     0.86558   0.52394   0.85709   0.00000  Uiso   1.00
C240   C     0.00576   0.24103   0.79337   0.00000  Uiso   1.00
C241   C     0.04274   0.22676   0.74434   0.00000  Uiso   1.00
C242   C     0.10740   0.21907   0.75377   0.00000  Uiso   1.00
C243   C     0.21454   0.20198   0.74556   0.00000  Uiso   1.00
C244   C     0.98320   0.26317   0.89706   0.00000  Uiso   1.00
C245   C     0.93357   0.21061   0.89398   0.00000  Uiso   1.00
C246   C     0.91506   0.17199   0.94063   0.00000  Uiso   1.00
C247   C     0.86891   0.12670   0.92881   0.00000  Uiso   1.00
C248   C     0.95001   0.32344   0.87615   0.00000  Uiso   1.00
C249   C     0.94534   0.37968   0.90780   0.00000  Uiso   1.00
C250   C     0.91305   0.42938   0.88097   0.00000  Uiso   1.00
C251   C     0.03240   0.24741   0.84982   0.00000  Uiso   1.00
C252   C     0.09701   0.23975   0.85933   0.00000  Uiso   1.00
C253   C     0.13409   0.22546   0.81032   0.00000  Uiso   1.00
H254   H     0.91340   0.24646   0.74918   0.00000  Uiso   1.00
H255   H     0.84018   0.15407   0.78196   0.00000  Uiso   1.00
H256   H     0.87047   0.36173   0.74913   0.00000  Uiso   1.00
H257   H     0.02211   0.22182   0.70067   0.00000  Uiso   1.00
H258   H     0.77073   0.05448   0.84319   0.00000  Uiso   1.00
H259   H     0.83461   0.49235   0.77397   0.00000  Uiso   1.00
H260   H     0.15438   0.19732   0.67177   0.00000  Uiso   1.00
H261   H     0.00394   0.26814   0.94101   0.00000  Uiso   1.00
H262   H     0.93569   0.17694   0.98431   0.00000  Uiso   1.00
H263   H     0.96597   0.38460   0.95148   0.00000  Uiso   1.00
H264   H     0.11761   0.24469   0.90302   0.00000  Uiso   1.00
H265   H     0.84825   0.07304   0.00743   0.00000  Uiso   1.00
H266   H     0.91212   0.51091   0.93821   0.00000  Uiso   1.00
H267   H     0.23189   0.21588   0.83600   0.00000  Uiso   1.00
O268   O     0.76294   0.00339   0.95034   0.00000  Uiso   1.00
O269   O     0.84675   0.57786   0.85952   0.00000  Uiso   1.00
O270   O     0.26628   0.19079   0.72543   0.00000  Uiso   1.00
N271   N     0.79835   0.07135   0.87590   0.00000  Uiso   1.00
N272   N     0.85806   0.48073   0.81119   0.00000  Uiso   1.00
N273   N     0.15702   0.20493   0.71563   0.00000  Uiso   1.00
N274   N     0.84006   0.08134   0.96427   0.00000  Uiso   1.00
N275   N     0.89977   0.49072   0.89956   0.00000  Uiso   1.00
N276   N     0.19873   0.21491   0.80401   0.00000  Uiso   1.00
C277   C     0.06585   0.74858   0.79313   0.00000  Uiso   1.00
C278   C     0.09308   0.79577   0.83754   0.00000  Uiso   1.00
C279   C     0.13921   0.84101   0.82565   0.00000  Uiso   1.00
C280   C     0.15778   0.87969   0.87226   0.00000  Uiso   1.00
C281   C     0.20413   0.95391   0.93263   0.00000  Uiso   1.00
C282   C     0.07663   0.68294   0.81971   0.00000  Uiso   1.00
C283   C     0.10893   0.63332   0.79282   0.00000  Uiso   1.00
C284   C     0.11365   0.57702   0.82442   0.00000  Uiso   1.00
C285   C     0.13442   0.47606   0.85709   0.00000  Uiso   1.00
C286   C     0.99424   0.75897   0.79337   0.00000  Uiso   1.00
C287   C     0.95726   0.77324   0.74434   0.00000  Uiso   1.00
C288   C     0.89260   0.78093   0.75377   0.00000  Uiso   1.00
C289   C     0.78546   0.79802   0.74556   0.00000  Uiso   1.00
C290   C     0.01680   0.73683   0.89706   0.00000  Uiso   1.00
C291   C     0.06643   0.78939   0.89398   0.00000  Uiso   1.00
C292   C     0.08494   0.82801   0.94063   0.00000  Uiso   1.00
C293   C     0.13109   0.87330   0.92881   0.00000  Uiso   1.00
C294   C     0.04999   0.67656   0.87615   0.00000  Uiso   1.00
C295   C     0.05466   0.62032   0.90780   0.00000  Uiso   1.00
C296   C     0.08695   0.57062   0.88097   0.00000  Uiso   1.00
C297   C     0.96760   0.75259   0.84982   0.00000  Uiso   1.00
C298   C     0.90299   0.76025   0.85933   0.00000  Uiso   1.00
C299   C     0.86591   0.77454   0.81032   0.00000  Uiso   1.00
H300   H     0.08660   0.75354   0.74918   0.00000  Uiso   1.00
H301   H     0.15982   0.84593   0.78196   0.00000  Uiso   1.00
H302   H     0.12953   0.63827   0.74913   0.00000  Uiso   1.00
H303   H     0.97789   0.77818   0.70067   0.00000  Uiso   1.00
H304   H     0.22927   0.94552   0.84319   0.00000  Uiso   1.00
H305   H     0.16539   0.50765   0.77397   0.00000  Uiso   1.00
H306   H     0.84562   0.80268   0.67177   0.00000  Uiso   1.00
H307   H     0.99606   0.73186   0.94101   0.00000  Uiso   1.00
H308   H     0.06431   0.82306   0.98431   0.00000  Uiso   1.00
H309   H     0.03403   0.61540   0.95148   0.00000  Uiso   1.00
H310   H     0.88239   0.75531   0.90302   0.00000  Uiso   1.00
H311   H     0.15175   0.92696   0.00743   0.00000  Uiso   1.00
H312   H     0.08788   0.48909   0.93821   0.00000  Uiso   1.00
H313   H     0.76811   0.78412   0.83600   0.00000  Uiso   1.00
O314   O     0.23706   0.99661   0.95034   0.00000  Uiso   1.00
O315   O     0.15325   0.42214   0.85952   0.00000  Uiso   1.00
O316   O     0.73372   0.80921   0.72543   0.00000  Uiso   1.00
N317   N     0.20165   0.92865   0.87590   0.00000  Uiso   1.00
N318   N     0.14194   0.51927   0.81119   0.00000  Uiso   1.00
N319   N     0.84298   0.79507   0.71563   0.00000  Uiso   1.00
N320   N     0.15994   0.91866   0.96427   0.00000  Uiso   1.00
N321   N     0.10023   0.50928   0.89956   0.00000  Uiso   1.00
N322   N     0.80127   0.78509   0.80401   0.00000  Uiso   1.00
C323   C     0.56585   0.24858   0.29313   0.00000  Uiso   1.00
C324   C     0.59308   0.29577   0.33754   0.00000  Uiso   1.00
C325   C     0.63921   0.34101   0.32565   0.00000  Uiso   1.00
C326   C     0.65778   0.37969   0.37226   0.00000  Uiso   1.00
C327   C     0.70413   0.45391   0.43263   0.00000  Uiso   1.00
C328   C     0.57663   0.18294   0.31971   0.00000  Uiso   1.00
C329   C     0.60893   0.13332   0.29282   0.00000  Uiso   1.00
C330   C     0.61365   0.07702   0.32442   0.00000  Uiso   1.00
C331   C     0.63442   0.97606   0.35709   0.00000  Uiso   1.00
C332   C     0.49424   0.25897   0.29337   0.00000  Uiso   1.00
C333   C     0.45726   0.27324   0.24434   0.00000  Uiso   1.00
C334   C     0.39260   0.28093   0.25377   0.00000  Uiso   1.00
C335   C     0.28546   0.29802   0.24556   0.00000  Uiso   1.00
C336   C     0.51680   0.23683   0.39706   0.00000  Uiso   1.00
C337   C     0.56643   0.28939   0.39398   0.00000  Uiso   1.00
C338   C     0.58494   0.32801   0.44063   0.00000  Uiso   1.00
C339   C     0.63109   0.37330   0.42881   0.00000  Uiso   1.00
C340   C     0.54999   0.17656   0.37615   0.00000  Uiso   1.00
C341   C     0.55466   0.12032   0.40780   0.00000  Uiso   1.00
C342   C     0.58695   0.07062   0.38097   0.00000  Uiso   1.00
C343   C     0.46760   0.25259   0.34982   0.00000  Uiso   1.00
C344   C     0.40299   0.26025   0.35933   0.00000  Uiso   1.00
C345   C     0.36591   0.27454   0.31032   0.00000  Uiso   1.00
H346   H     0.58660   0.25354   0.24918   0.00000  Uiso   1.00
H347   H     0.65982   0.34593   0.28196   0.00000  Uiso   1.00
H348   H     0.62953   0.13827   0.24913   0.00000  Uiso   1.00
H349   H     0.47789   0.27818   0.20067   0.00000  Uiso   1.00
H350   H     0.72927   0.44552   0.34319   0.00000  Uiso   1.00
H351   H     0.66539   0.00765   0.27397   0.00000  Uiso   1.00
H352   H     0.34562   0.30268   0.17177   0.00000  Uiso   1.00
H353   H     0.49606   0.23186   0.44101   0.00000  Uiso   1.00
H354   H     0.56431   0.32306   0.48431   0.00000  Uiso   1.00
H355   H     0.53403   0.11540   0.45148   0.00000  Uiso   1.00
H356   H     0.38239   0.25531   0.40302   0.00000  Uiso   1.00
H357   H     0.65175   0.42696   0.50743   0.00000  Uiso   1.00
H358   H     0.58788   0.98909   0.43821   0.00000  Uiso   1.00
H359   H     0.26811   0.28412   0.33600   0.00000  Uiso   1.00
O360   O     0.73706   0.49661   0.45034   0.00000  Uiso   1.00
O361   O     0.65325   0.92214   0.35952   0.00000  Uiso   1.00
O362   O     0.23372   0.30921   0.22543   0.00000  Uiso   1.00
N363   N     0.70165   0.42865   0.37590   0.00000  Uiso   1.00
N364   N     0.64194   0.01927   0.31119   0.00000  Uiso   1.00
N365   N     0.34298   0.29507   0.21563   0.00000  Uiso   1.00
N366   N     0.65994   0.41866   0.46427   0.00000  Uiso   1.00
N367   N     0.60023   0.00928   0.39956   0.00000  Uiso   1.00
N368   N     0.30127   0.28509   0.30401   0.00000  Uiso   1.00
C369   C     0.74858   0.93415   0.20687   0.00000  Uiso   1.00
C370   C     0.79577   0.90692   0.16246   0.00000  Uiso   1.00
C371   C     0.84101   0.86079   0.17435   0.00000  Uiso   1.00
C372   C     0.87969   0.84222   0.12774   0.00000  Uiso   1.00
C373   C     0.95391   0.79587   0.06737   0.00000  Uiso   1.00
C374   C     0.68294   0.92337   0.18029   0.00000  Uiso   1.00
C375   C     0.63332   0.89107   0.20718   0.00000  Uiso   1.00
C376   C     0.57702   0.88635   0.17558   0.00000  Uiso   1.00
C377   C     0.47606   0.86558   0.14291   0.00000  Uiso   1.00
C378   C     0.75897   0.00576   0.20663   0.00000  Uiso   1.00
C379   C     0.77324   0.04274   0.25566   0.00000  Uiso   1.00
C380   C     0.78093   0.10740   0.24623   0.00000  Uiso   1.00
C381   C     0.79802   0.21454   0.25444   0.00000  Uiso   1.00
C382   C     0.73683   0.98320   0.10294   0.00000  Uiso   1.00
C383   C     0.78939   0.93357   0.10602   0.00000  Uiso   1.00
C384   C     0.82801   0.91506   0.05937   0.00000  Uiso   1.00
C385   C     0.87330   0.86891   0.07119   0.00000  Uiso   1.00
C386   C     0.67656   0.95001   0.12385   0.00000  Uiso   1.00
C387   C     0.62032   0.94534   0.09220   0.00000  Uiso   1.00
C388   C     0.57062   0.91305   0.11903   0.00000  Uiso   1.00
C389   C     0.75259   0.03240   0.15018   0.00000  Uiso   1.00
C390   C     0.76025   0.09701   0.14067   0.00000  Uiso   1.00
C391   C     0.77454   0.13409   0.18968   0.00000  Uiso   1.00
H392   H     0.75354   0.91340   0.25082   0.00000  Uiso   1.00
H393   H     0.84593   0.84018   0.21804   0.00000  Uiso   1.00
H394   H     0.63827   0.87047   0.25087   0.00000  Uiso   1.00
H395   H     0.77818   0.02211   0.29933   0.00000  Uiso   1.00
H396   H     0.94552   0.77073   0.15681   0.00000  Uiso   1.00
H397   H     0.50765   0.83461   0.22603   0.00000  Uiso   1.00
H398   H     0.80268   0.15438   0.32823   0.00000  Uiso   1.00
H399   H     0.73186   0.00394   0.05899   0.00000  Uiso   1.00
H400   H     0.82306   0.93569   0.01569   0.00000  Uiso   1.00
H401   H     0.61540   0.96597   0.04852   0.00000  Uiso   1.00
H402   H     0.75531   0.11761   0.09698   0.00000  Uiso   1.00
H403   H     0.92696   0.84825   0.99257   0.00000  Uiso   1.00
H404   H     0.48909   0.91212   0.06179   0.00000  Uiso   1.00
H405   H     0.78412   0.23189   0.16400   0.00000  Uiso   1.00
O406   O     0.99661   0.76294   0.04966   0.00000  Uiso   1.00
O407   O     0.42214   0.84675   0.14048   0.00000  Uiso   1.00
O408   O     0.80921   0.26628   0.27457   0.00000  Uiso   1.00
N409   N     0.92865   0.79835   0.12410   0.00000  Uiso   1.00
N410   N     0.51927   0.85806   0.18881   0.00000  Uiso   1.00
N411   N     0.79507   0.15702   0.28437   0.00000  Uiso   1.00
N412   N     0.91866   0.84006   0.03573   0.00000  Uiso   1.00
N413   N     0.50928   0.89977   0.10044   0.00000  Uiso   1.00
N414   N     0.78509   0.19873   0.19599   0.00000  Uiso   1.00
C415   C     0.24858   0.43415   0.70687   0.00000  Uiso   1.00
C416   C     0.29577   0.40692   0.66246   0.00000  Uiso   1.00
C417   C     0.34101   0.36079   0.67435   0.00000  Uiso   1.00
C418   C     0.37969   0.34222   0.62774   0.00000  Uiso   1.00
C419   C     0.45391   0.29587   0.56737   0.00000  Uiso   1.00
C420   C     0.18294   0.42337   0.68029   0.00000  Uiso   1.00
C421   C     0.13332   0.39107   0.70718   0.00000  Uiso   1.00
C422   C     0.07702   0.38635   0.67558   0.00000  Uiso   1.00
C423   C     0.97606   0.36558   0.64291   0.00000  Uiso   1.00
C424   C     0.25897   0.50576   0.70663   0.00000  Uiso   1.00
C425   C     0.27324   0.54274   0.75566   0.00000  Uiso   1.00
C426   C     0.28093   0.60740   0.74623   0.00000  Uiso   1.00
C427   C     0.29802   0.71454   0.75444   0.00000  Uiso   1.00
C428   C     0.23683   0.48320   0.60294   0.00000  Uiso   1.00
C429   C     0.28939   0.43357   0.60602   0.00000  Uiso   1.00
C430   C     0.32801   0.41506   0.55937   0.00000  Uiso   1.00
C431   C     0.37330   0.36891   0.57119   0.00000  Uiso   1.00
C432   C     0.17656   0.45001   0.62385   0.00000  Uiso   1.00
C433   C     0.12032   0.44534   0.59220   0.00000  Uiso   1.00
C434   C     0.07062   0.41305   0.61903   0.00000  Uiso   1.00
C435   C     0.25259   0.53240   0.65018   0.00000  Uiso   1.00
C436   C     0.26025   0.59701   0.64067   0.00000  Uiso   1.00
C437   C     0.27454   0.63409   0.68968   0.00000  Uiso   1.00
H438   H     0.25354   0.41340   0.75082   0.00000  Uiso   1.00
H439   H     0.34593   0.34018   0.71804   0.00000  Uiso   1.00
H440   H     0.13827   0.37047   0.75087   0.00000  Uiso   1.00
H441   H     0.27818   0.52211   0.79933   0.00000  Uiso   1.00
H442   H     0.44552   0.27073   0.65681   0.00000  Uiso   1.00
H443   H     0.00765   0.33461   0.72603   0.00000  Uiso   1.00
H444   H     0.30268   0.65438   0.82823   0.00000  Uiso   1.00
H445   H     0.23186   0.50394   0.55899   0.00000  Uiso   1.00
H446   H     0.32306   0.43569   0.51569   0.00000  Uiso   1.00
H447   H     0.11540   0.46597   0.54852   0.00000  Uiso   1.00
H448   H     0.25531   0.61761   0.59698   0.00000  Uiso   1.00
H449   H     0.42696   0.34825   0.49257   0.00000  Uiso   1.00
H450   H     0.98909   0.41212   0.56179   0.00000  Uiso   1.00
H451   H     0.28412   0.73189   0.66400   0.00000  Uiso   1.00
O452   O     0.49661   0.26294   0.54966   0.00000  Uiso   1.00
O453   O     0.92214   0.34675   0.64048   0.00000  Uiso   1.00
O454   O     0.30921   0.76628   0.77457   0.00000  Uiso   1.00
N455   N     0.42865   0.29835   0.62410   0.00000  Uiso   1.00
N456   N     0.01927   0.35806   0.68881   0.00000  Uiso   1.00
N457   N     0.29507   0.65702   0.78437   0.00000  Uiso   1.00
N458   N     0.41866   0.34006   0.53573   0.00000  Uiso   1.00
N459   N     0.00928   0.39977   0.60044   0.00000  Uiso   1.00
N460   N     0.28509   0.69873   0.69599   0.00000  Uiso   1.00
C461   C     0.75142   0.56585   0.70687   0.00000  Uiso   1.00
C462   C     0.70423   0.59308   0.66246   0.00000  Uiso   1.00
C463   C     0.65899   0.63921   0.67435   0.00000  Uiso   1.00
C464   C     0.62031   0.65778   0.62774   0.00000  Uiso   1.00
C465   C     0.54609   0.70413   0.56737   0.00000  Uiso   1.00
C466   C     0.81706   0.57663   0.68029   0.00000  Uiso   1.00
C467   C     0.86668   0.60893   0.70718   0.00000  Uiso   1.00
C468   C     0.92298   0.61365   0.67558   0.00000  Uiso   1.00
C469   C     0.02394   0.63442   0.64291   0.00000  Uiso   1.00
C470   C     0.74103   0.49424   0.70663   0.00000  Uiso   1.00
C471   C     0.72676   0.45726   0.75566   0.00000  Uiso   1.00
C472   C     0.71907   0.39260   0.74623   0.00000  Uiso   1.00
C473   C     0.70198   0.28546   0.75444   0.00000  Uiso   1.00
C474   C     0.76317   0.51680   0.60294   0.00000  Uiso   1.00
C475   C     0.71061   0.56643   0.60602   0.00000  Uiso   1.00
C476   C     0.67199   0.58494   0.55937   0.00000  Uiso   1.00
C477   C     0.62670   0.63109   0.57119   0.00000  Uiso   1.00
C478   C     0.82344   0.54999   0.62385   0.00000  Uiso   1.00
C479   C     0.87968   0.55466   0.59220   0.00000  Uiso   1.00
C480   C     0.92938   0.58695   0.61903   0.00000  Uiso   1.00
C481   C     0.74741   0.46760   0.65018   0.00000  Uiso   1.00
C482   C     0.73975   0.40299   0.64067   0.00000  Uiso   1.00
C483   C     0.72546   0.36591   0.68968   0.00000  Uiso   1.00
H484   H     0.74646   0.58660   0.75082   0.00000  Uiso   1.00
H485   H     0.65407   0.65982   0.71804   0.00000  Uiso   1.00
H486   H     0.86173   0.62953   0.75087   0.00000  Uiso   1.00
H487   H     0.72182   0.47789   0.79933   0.00000  Uiso   1.00
H488   H     0.55448   0.72927   0.65681   0.00000  Uiso   1.00
H489   H     0.99235   0.66539   0.72603   0.00000  Uiso   1.00
H490   H     0.69732   0.34562   0.82823   0.00000  Uiso   1.00
H491   H     0.76814   0.49606   0.55899   0.00000  Uiso   1.00
H492   H     0.67694   0.56431   0.51569   0.00000  Uiso   1.00
H493   H     0.88460   0.53403   0.54852   0.00000  Uiso   1.00
H494   H     0.74469   0.38239   0.59698   0.00000  Uiso   1.00
H495   H     0.57304   0.65175   0.49257   0.00000  Uiso   1.00
H496   H     0.01091   0.58788   0.56179   0.00000  Uiso   1.00
H497   H     0.71588   0.26811   0.66400   0.00000  Uiso   1.00
O498   O     0.50339   0.73706   0.54966   0.00000  Uiso   1.00
O499   O     0.07786   0.65325   0.64048   0.00000  Uiso   1.00
O500   O     0.69079   0.23372   0.77457   0.00000  Uiso   1.00
N501   N     0.57135   0.70165   0.62410   0.00000  Uiso   1.00
N502   N     0.98073   0.64194   0.68881   0.00000  Uiso   1.00
N503   N     0.70493   0.34298   0.78437   0.00000  Uiso   1.00
N504   N     0.58134   0.65994   0.53573   0.00000  Uiso   1.00
N505   N     0.99072   0.60023   0.60044   0.00000  Uiso   1.00
N506   N     0.71491   0.30127   0.69599   0.00000  Uiso   1.00
C507   C     0.25142   0.06585   0.20687   0.00000  Uiso   1.00
C508   C     0.20423   0.09308   0.16246   0.00000  Uiso   1.00
C509   C     0.15899   0.13921   0.17435   0.00000  Uiso   1.00
C510   C     0.12031   0.15778   0.12774   0.00000  Uiso   1.00
C511   C     0.04609   0.20413   0.06737   0.00000  Uiso   1.00
C512   C     0.31706   0.07663   0.18029   0.00000  Uiso   1.00
C513   C     0.36668   0.10893   0.20718   0.00000  Uiso   1.00
C514   C     0.42298   0.11365   0.17558   0.00000  Uiso   1.00
C515   C     0.52394   0.13442   0.14291   0.00000  Uiso   1.00
C516   C     0.24103   0.99424   0.20663   0.00000  Uiso   1.00
C517   C     0.22676   0.95726   0.25566   0.00000  Uiso   1.00
C518   C     0.21907   0.89260   0.24623   0.00000  Uiso   1.00
C519   C     0.20198   0.78546   0.25444   0.00000  Uiso   1.00
C520   C     0.26317   0.01680   0.10294   0.00000  Uiso   1.00
C521   C     0.21061   0.06643   0.10602   0.00000  Uiso   1.00
C522   C     0.17199   0.08494   0.05937   0.00000  Uiso   1.00
C523   C     0.12670   0.13109   0.07119   0.00000  Uiso   1.00
C524   C     0.32344   0.04999   0.12385   0.00000  Uiso   1.00
C525   C     0.37968   0.05466   0.09220   0.00000  Uiso   1.00
C526   C     0.42938   0.08695   0.11903   0.00000  Uiso   1.00
C527   C     0.24741   0.96760   0.15018   0.00000  Uiso   1.00
C528   C     0.23975   0.90299   0.14067   0.00000  Uiso   1.00
C529   C     0.22546   0.86591   0.18968   0.00000  Uiso   1.00
H530   H     0.24646   0.08660   0.25082   0.00000  Uiso   1.00
H531   H     0.15407   0.15982   0.21804   0.00000  Uiso   1.00
H532   H     0.36173   0.12953   0.25087   0.00000  Uiso   1.00
H533   H     0.22182   0.97789   0.29933   0.00000  Uiso   1.00
H534   H     0.05448   0.22927   0.15681   0.00000  Uiso   1.00
H535   H     0.49235   0.16539   0.22603   0.00000  Uiso   1.00
H536   H     0.19732   0.84562   0.32823   0.00000  Uiso   1.00
H537   H     0.26814   0.99606   0.05899   0.00000  Uiso   1.00
H538   H     0.17694   0.06431   0.01569   0.00000  Uiso   1.00
H539   H     0.38460   0.03403   0.04852   0.00000  Uiso   1.00
H540   H     0.24469   0.88239   0.09698   0.00000  Uiso   1.00
H541   H     0.07304   0.15175   0.99257   0.00000  Uiso   1.00
H542   H     0.51091   0.08788   0.06179   0.00000  Uiso   1.00
H543   H     0.21588   0.76811   0.16400   0.00000  Uiso   1.00
O544   O     0.00339   0.23706   0.04966   0.00000  Uiso   1.00
O545   O     0.57786   0.15325   0.14048   0.00000  Uiso   1.00
O546   O     0.19079   0.73372   0.27457   0.00000  Uiso   1.00
N547   N     0.07135   0.20165   0.12410   0.00000  Uiso   1.00
N548   N     0.48073   0.14194   0.18881   0.00000  Uiso   1.00
N549   N     0.20493   0.84298   0.28437   0.00000  Uiso   1.00
N550   N     0.08134   0.15994   0.03573   0.00000  Uiso   1.00
N551   N     0.49072   0.10023   0.10044   0.00000  Uiso   1.00
N552   N     0.21491   0.80127   0.19599   0.00000  Uiso   1.00
C553   C     0.56585   0.74858   0.95687   0.00000  Uiso   1.00
C554   C     0.59308   0.79577   0.91246   0.00000  Uiso   1.00
C555   C     0.63921   0.84101   0.92435   0.00000  Uiso   1.00
C556   C     0.65778   0.87969   0.87774   0.00000  Uiso   1.00
C557   C     0.70413   0.95391   0.81737   0.00000  Uiso   1.00
C558   C     0.57663   0.68294   0.93029   0.00000  Uiso   1.00
C559   C     0.60893   0.63332   0.95718   0.00000  Uiso   1.00
C560   C     0.61365   0.57702   0.92558   0.00000  Uiso   1.00
C561   C     0.63442   0.47606   0.89291   0.00000  Uiso   1.00
C562   C     0.49424   0.75897   0.95663   0.00000  Uiso   1.00
C563   C     0.45726   0.77324   0.00566   0.00000  Uiso   1.00
C564   C     0.39260   0.78093   0.99623   0.00000  Uiso   1.00
C565   C     0.28546   0.79802   0.00444   0.00000  Uiso   1.00
C566   C     0.51680   0.73683   0.85294   0.00000  Uiso   1.00
C567   C     0.56643   0.78939   0.85602   0.00000  Uiso   1.00
C568   C     0.58494   0.82801   0.80937   0.00000  Uiso   1.00
C569   C     0.63109   0.87330   0.82119   0.00000  Uiso   1.00
C570   C     0.54999   0.67656   0.87385   0.00000  Uiso   1.00
C571   C     0.55466   0.62032   0.84220   0.00000  Uiso   1.00
C572   C     0.58695   0.57062   0.86903   0.00000  Uiso   1.00
C573   C     0.46760   0.75259   0.90018   0.00000  Uiso   1.00
C574   C     0.40299   0.76025   0.89067   0.00000  Uiso   1.00
C575   C     0.36591   0.77454   0.93968   0.00000  Uiso   1.00
H576   H     0.58660   0.75354   0.00082   0.00000  Uiso   1.00
H577   H     0.65982   0.84593   0.96804   0.00000  Uiso   1.00
H578   H     0.62953   0.63827   0.00087   0.00000  Uiso   1.00
H579   H     0.47789   0.77818   0.04933   0.00000  Uiso   1.00
H580   H     0.72927   0.94552   0.90681   0.00000  Uiso   1.00
H581   H     0.66539   0.50765   0.97603   0.00000  Uiso   1.00
H582   H     0.34562   0.80268   0.07823   0.00000  Uiso   1.00
H583   H     0.49606   0.73186   0.80899   0.00000  Uiso   1.00
H584   H     0.56431   0.82306   0.76569   0.00000  Uiso   1.00
H585   H     0.53403   0.61540   0.79852   0.00000  Uiso   1.00
H586   H     0.38239   0.75531   0.84698   0.00000  Uiso   1.00
H587   H     0.65175   0.92696   0.74257   0.00000  Uiso   1.00
H588   H     0.58788   0.48909   0.81179   0.00000  Uiso   1.00
H589   H     0.26811   0.78412   0.91400   0.00000  Uiso   1.00
O590   O     0.73706   0.99661   0.79966   0.00000  Uiso   1.00
O591   O     0.65325   0.42214   0.89048   0.00000  Uiso   1.00
O592   O     0.23372   0.80921   0.02457   0.00000  Uiso   1.00
N593   N     0.70165   0.92865   0.87410   0.00000  Uiso   1.00
N594   N     0.64194   0.51927   0.93881   0.00000  Uiso   1.00
N595   N     0.34298   0.79507   0.03437   0.00000  Uiso   1.00
N596   N     0.65994   0.91866   0.78573   0.00000  Uiso   1.00
N597   N     0.60023   0.50928   0.85044   0.00000  Uiso   1.00
N598   N     0.30127   0.78509   0.94599   0.00000  Uiso   1.00
C599   C     0.06585   0.24858   0.45687   0.00000  Uiso   1.00
C600   C     0.09308   0.29577   0.41246   0.00000  Uiso   1.00
C601   C     0.13921   0.34101   0.42435   0.00000  Uiso   1.00
C602   C     0.15778   0.37969   0.37774   0.00000  Uiso   1.00
C603   C     0.20413   0.45391   0.31737   0.00000  Uiso   1.00
C604   C     0.07663   0.18294   0.43029   0.00000  Uiso   1.00
C605   C     0.10893   0.13332   0.45718   0.00000  Uiso   1.00
C606   C     0.11365   0.07702   0.42558   0.00000  Uiso   1.00
C607   C     0.13442   0.97606   0.39291   0.00000  Uiso   1.00
C608   C     0.99424   0.25897   0.45663   0.00000  Uiso   1.00
C609   C     0.95726   0.27324   0.50566   0.00000  Uiso   1.00
C610   C     0.89260   0.28093   0.49623   0.00000  Uiso   1.00
C611   C     0.78546   0.29802   0.50444   0.00000  Uiso   1.00
C612   C     0.01680   0.23683   0.35294   0.00000  Uiso   1.00
C613   C     0.06643   0.28939   0.35602   0.00000  Uiso   1.00
C614   C     0.08494   0.32801   0.30937   0.00000  Uiso   1.00
C615   C     0.13109   0.37330   0.32119   0.00000  Uiso   1.00
C616   C     0.04999   0.17656   0.37385   0.00000  Uiso   1.00
C617   C     0.05466   0.12032   0.34220   0.00000  Uiso   1.00
C618   C     0.08695   0.07062   0.36903   0.00000  Uiso   1.00
C619   C     0.96760   0.25259   0.40018   0.00000  Uiso   1.00
C620   C     0.90299   0.26025   0.39067   0.00000  Uiso   1.00
C621   C     0.86591   0.27454   0.43968   0.00000  Uiso   1.00
H622   H     0.08660   0.25354   0.50082   0.00000  Uiso   1.00
H623   H     0.15982   0.34593   0.46804   0.00000  Uiso   1.00
H624   H     0.12953   0.13827   0.50087   0.00000  Uiso   1.00
H625   H     0.97789   0.27818   0.54933   0.00000  Uiso   1.00
H626   H     0.22927   0.44552   0.40681   0.00000  Uiso   1.00
H627   H     0.16539   0.00765   0.47603   0.00000  Uiso   1.00
H628   H     0.84562   0.30268   0.57823   0.00000  Uiso   1.00
H629   H     0.99606   0.23186   0.30899   0.00000  Uiso   1.00
H630   H     0.06431   0.32306   0.26569   0.00000  Uiso   1.00
H631   H     0.03403   0.11540   0.29852   0.00000  Uiso   1.00
H632   H     0.88239   0.25531   0.34698   0.00000  Uiso   1.00
H633   H     0.15175   0.42696   0.24257   0.00000  Uiso   1.00
H634   H     0.08788   0.98909   0.31179   0.00000  Uiso   1.00
H635   H     0.76811   0.28412   0.41400   0.00000  Uiso   1.00
O636   O     0.23706   0.49661   0.29966   0.00000  Uiso   1.00
O637   O     0.15325   0.92214   0.39048   0.00000  Uiso   1.00
O638   O     0.73372   0.30921   0.52457   0.00000  Uiso   1.00
N639   N     0.20165   0.42865   0.37410   0.00000  Uiso   1.00
N640   N     0.14194   0.01927   0.43881   0.00000  Uiso   1.00
N641   N     0.84298   0.29507   0.53437   0.00000  Uiso   1.00
N642   N     0.15994   0.41866   0.28573   0.00000  Uiso   1.00
N643   N     0.10023   0.00928   0.35044   0.00000  Uiso   1.00
N644   N     0.80127   0.28509   0.44599   0.00000  Uiso   1.00
C645   C     0.93415   0.75142   0.45687   0.00000  Uiso   1.00
C646   C     0.90692   0.70423   0.41246   0.00000  Uiso   1.00
C647   C     0.86079   0.65899   0.42435   0.00000  Uiso   1.00
C648   C     0.84222   0.62031   0.37774   0.00000  Uiso   1.00
C649   C     0.79587   0.54609   0.31737   0.00000  Uiso   1.00
C650   C     0.92337   0.81706   0.43029   0.00000  Uiso   1.00
C651   C     0.89107   0.86668   0.45718   0.00000  Uiso   1.00
C652   C     0.88635   0.92298   0.42558   0.00000  Uiso   1.00
C653   C     0.86558   0.02394   0.39291   0.00000  Uiso   1.00
C654   C     0.00576   0.74103   0.45663   0.00000  Uiso   1.00
C655   C     0.04274   0.72676   0.50566   0.00000  Uiso   1.00
C656   C     0.10740   0.71907   0.49623   0.00000  Uiso   1.00
C657   C     0.21454   0.70198   0.50444   0.00000  Uiso   1.00
C658   C     0.98320   0.76317   0.35294   0.00000  Uiso   1.00
C659   C     0.93357   0.71061   0.35602   0.00000  Uiso   1.00
C660   C     0.91506   0.67199   0.30937   0.00000  Uiso   1.00
C661   C     0.86891   0.62670   0.32119   0.00000  Uiso   1.00
C662   C     0.95001   0.82344   0.37385   0.00000  Uiso   1.00
C663   C     0.94534   0.87968   0.34220   0.00000  Uiso   1.00
C664   C     0.91305   0.92938   0.36903   0.00000  Uiso   1.00
C665   C     0.03240   0.74741   0.40018   0.00000  Uiso   1.00
C666   C     0.09701   0.73975   0.39067   0.00000  Uiso   1.00
C667   C     0.13409   0.72546   0.43968   0.00000  Uiso   1.00
H668   H     0.91340   0.74646   0.50082   0.00000  Uiso   1.00
H669   H     0.84018   0.65407   0.46804   0.00000  Uiso   1.00
H670   H     0.87047   0.86173   0.50087   0.00000  Uiso   1.00
H671   H     0.02211   0.72182   0.54933   0.00000  Uiso   1.00
H672   H     0.77073   0.55448   0.40681   0.00000  Uiso   1.00
H673   H     0.83461   0.99235   0.47603   0.00000  Uiso   1.00
H674   H     0.15438   0.69732   0.57823   0.00000  Uiso   1.00
H675   H     0.00394   0.76814   0.30899   0.00000  Uiso   1.00
H676   H     0.93569   0.67694   0.26569   0.00000  Uiso   1.00
H677   H     0.96597   0.88460   0.29852   0.00000  Uiso   1.00
H678   H     0.11761   0.74469   0.34698   0.00000  Uiso   1.00
H679   H     0.84825   0.57304   0.24257   0.00000  Uiso   1.00
H680   H     0.91212   0.01091   0.31179   0.00000  Uiso   1.00
H681   H     0.23189   0.71588   0.41400   0.00000  Uiso   1.00
O682   O     0.76294   0.50339   0.29966   0.00000  Uiso   1.00
O683   O     0.84675   0.07786   0.39048   0.00000  Uiso   1.00
O684   O     0.26628   0.69079   0.52457   0.00000  Uiso   1.00
N685   N     0.79835   0.57135   0.37410   0.00000  Uiso   1.00
N686   N     0.85806   0.98073   0.43881   0.00000  Uiso   1.00
N687   N     0.15702   0.70493   0.53437   0.00000  Uiso   1.00
N688   N     0.84006   0.58134   0.28573   0.00000  Uiso   1.00
N689   N     0.89977   0.99072   0.35044   0.00000  Uiso   1.00
N690   N     0.19873   0.71491   0.44599   0.00000  Uiso   1.00
C691   C     0.43415   0.25142   0.95687   0.00000  Uiso   1.00
C692   C     0.40692   0.20423   0.91246   0.00000  Uiso   1.00
C693   C     0.36079   0.15899   0.92435   0.00000  Uiso   1.00
C694   C     0.34222   0.12031   0.87774   0.00000  Uiso   1.00
C695   C     0.29587   0.04609   0.81737   0.00000  Uiso   1.00
C696   C     0.42337   0.31706   0.93029   0.00000  Uiso   1.00
C697   C     0.39107   0.36668   0.95718   0.00000  Uiso   1.00
C698   C     0.38635   0.42298   0.92558   0.00000  Uiso   1.00
C699   C     0.36558   0.52394   0.89291   0.00000  Uiso   1.00
C700   C     0.50576   0.24103   0.95663   0.00000  Uiso   1.00
C701   C     0.54274   0.22676   0.00566   0.00000  Uiso   1.00
C702   C     0.60740   0.21907   0.99623   0.00000  Uiso   1.00
C703   C     0.71454   0.20198   0.00444   0.00000  Uiso   1.00
C704   C     0.48320   0.26317   0.85294   0.00000  Uiso   1.00
C705   C     0.43357   0.21061   0.85602   0.00000  Uiso   1.00
C706   C     0.41506   0.17199   0.80937   0.00000  Uiso   1.00
C707   C     0.36891   0.12670   0.82119   0.00000  Uiso   1.00
C708   C     0.45001   0.32344   0.87385   0.00000  Uiso   1.00
C709   C     0.44534   0.37968   0.84220   0.00000  Uiso   1.00
C710   C     0.41305   0.42938   0.86903   0.00000  Uiso   1.00
C711   C     0.53240   0.24741   0.90018   0.00000  Uiso   1.00
C712   C     0.59701   0.23975   0.89067   0.00000  Uiso   1.00
C713   C     0.63409   0.22546   0.93968   0.00000  Uiso   1.00
H714   H     0.41340   0.24646   0.00082   0.00000  Uiso   1.00
H715   H     0.34018   0.15407   0.96804   0.00000  Uiso   1.00
H716   H     0.37047   0.36173   0.00087   0.00000  Uiso   1.00
H717   H     0.52211   0.22182   0.04933   0.00000  Uiso   1.00
H718   H     0.27073   0.05448   0.90681   0.00000  Uiso   1.00
H719   H     0.33461   0.49235   0.97603   0.00000  Uiso   1.00
H720   H     0.65438   0.19732   0.07823   0.00000  Uiso   1.00
H721   H     0.50394   0.26814   0.80899   0.00000  Uiso   1.00
H722   H     0.43569   0.17694   0.76569   0.00000  Uiso   1.00
H723   H     0.46597   0.38460   0.79852   0.00000  Uiso   1.00
H724   H     0.61761   0.24469   0.84698   0.00000  Uiso   1.00
H725   H     0.34825   0.07304   0.74257   0.00000  Uiso   1.00
H726   H     0.41212   0.51091   0.81179   0.00000  Uiso   1.00
H727   H     0.73189   0.21588   0.91400   0.00000  Uiso   1.00
O728   O     0.26294   0.00339   0.79966   0.00000  Uiso   1.00
O729   O     0.34675   0.57786   0.89048   0.00000  Uiso   1.00
O730   O     0.76628   0.19079   0.02457   0.00000  Uiso   1.00
N731   N     0.29835   0.07135   0.87410   0.00000  Uiso   1.00
N732   N     0.35806   0.48073   0.93881   0.00000  Uiso   1.00
N733   N     0.65702   0.20493   0.03437   0.00000  Uiso   1.00
N734   N     0.34006   0.08134   0.78573   0.00000  Uiso   1.00
N735   N     0.39977   0.49072   0.85044   0.00000  Uiso   1.00
N736   N     0.69873   0.21491   0.94599   0.00000  Uiso   1.00
