data_job_05866
_audit_creation_date              2018-12-19
_audit_creation_method            'Materials Studio'
_symmetry_space_group_name_H-M    'P1'
_symmetry_Int_Tables_number       1
_symmetry_cell_setting            triclinic
loop_
_symmetry_equiv_pos_as_xyz
  x,y,z
_cell_length_a                    17.6490
_cell_length_b                    17.6490
_cell_length_c                    29.3124
_cell_angle_alpha                 90.0000
_cell_angle_beta                  90.0000
_cell_angle_gamma                 90.0000
loop_
_atom_site_label
_atom_site_type_symbol
_atom_site_fract_x
_atom_site_fract_y
_atom_site_fract_z
_atom_site_U_iso_or_equiv
_atom_site_adp_type
_atom_site_occupancy
C1     C     0.83975   0.52804   0.10168   0.00000  Uiso   1.00
C2     C     0.84963   0.45261   0.12634   0.00000  Uiso   1.00
C3     C     0.91815   0.41683   0.13504   0.00000  Uiso   1.00
C4     C     0.91518   0.34813   0.15805   0.00000  Uiso   1.00
C5     C     0.94102   0.23580   0.19422   0.00000  Uiso   1.00
C6     C     0.78657   0.51243   0.06177   0.00000  Uiso   1.00
C7     C     0.80206   0.52695   0.01618   0.00000  Uiso   1.00
C8     C     0.74600   0.50861   0.98484   0.00000  Uiso   1.00
C9     C     0.67391   0.48921   0.92077   0.00000  Uiso   1.00
C10    C     0.79595   0.57909   0.13433   0.00000  Uiso   1.00
C11    C     0.81931   0.64968   0.14974   0.00000  Uiso   1.00
C12    C     0.77113   0.68748   0.17948   0.00000  Uiso   1.00
C13    C     0.71361   0.77158   0.22806   0.00000  Uiso   1.00
C14    C     0.71265   0.46967   0.12708   0.00000  Uiso   1.00
C15    C     0.78060   0.42090   0.14013   0.00000  Uiso   1.00
C16    C     0.77752   0.35224   0.16314   0.00000  Uiso   1.00
C17    C     0.84602   0.31637   0.17187   0.00000  Uiso   1.00
C18    C     0.71753   0.48072   0.07557   0.00000  Uiso   1.00
C19    C     0.66143   0.46237   0.04428   0.00000  Uiso   1.00
C20    C     0.67683   0.47685   0.99866   0.00000  Uiso   1.00
C21    C     0.72691   0.54739   0.14813   0.00000  Uiso   1.00
C22    C     0.67869   0.58509   0.17784   0.00000  Uiso   1.00
C23    C     0.70197   0.65572   0.19329   0.00000  Uiso   1.00
H24    H     0.89350   0.55273   0.09094   0.00000  Uiso   1.00
H25    H     0.97156   0.44138   0.12435   0.00000  Uiso   1.00
H26    H     0.85548   0.55149   0.00552   0.00000  Uiso   1.00
H27    H     0.87273   0.67420   0.13906   0.00000  Uiso   1.00
H28    H     0.02766   0.30393   0.16747   0.00000  Uiso   1.00
H29    H     0.78290   0.53613   0.91690   0.00000  Uiso   1.00
H30    H     0.81928   0.79489   0.19849   0.00000  Uiso   1.00
H31    H     0.65890   0.44499   0.13782   0.00000  Uiso   1.00
H32    H     0.72409   0.32772   0.17381   0.00000  Uiso   1.00
H33    H     0.60802   0.43783   0.05497   0.00000  Uiso   1.00
H34    H     0.62527   0.56054   0.18851   0.00000  Uiso   1.00
H35    H     0.82681   0.21168   0.20761   0.00000  Uiso   1.00
H36    H     0.58204   0.44389   0.95704   0.00000  Uiso   1.00
H37    H     0.61842   0.70264   0.23863   0.00000  Uiso   1.00
O38    O     0.97435   0.18260   0.21035   0.00000  Uiso   1.00
O39    O     0.65323   0.48725   0.88162   0.00000  Uiso   1.00
O40    O     0.70096   0.82673   0.25106   0.00000  Uiso   1.00
N41    N     0.97144   0.29832   0.17198   0.00000  Uiso   1.00
N42    N     0.74261   0.51540   0.93772   0.00000  Uiso   1.00
N43    N     0.77661   0.75733   0.20097   0.00000  Uiso   1.00
N44    N     0.86337   0.24868   0.19358   0.00000  Uiso   1.00
N45    N     0.63453   0.46577   0.95932   0.00000  Uiso   1.00
N46    N     0.66853   0.70769   0.22257   0.00000  Uiso   1.00
C47    C     0.33975   0.02804   0.60168   0.00000  Uiso   1.00
C48    C     0.34963   0.95261   0.62634   0.00000  Uiso   1.00
C49    C     0.41815   0.91683   0.63504   0.00000  Uiso   1.00
C50    C     0.41518   0.84813   0.65805   0.00000  Uiso   1.00
C51    C     0.44102   0.73580   0.69422   0.00000  Uiso   1.00
C52    C     0.28657   0.01243   0.56177   0.00000  Uiso   1.00
C53    C     0.30206   0.02695   0.51618   0.00000  Uiso   1.00
C54    C     0.24600   0.00861   0.48484   0.00000  Uiso   1.00
C55    C     0.17391   0.98921   0.42077   0.00000  Uiso   1.00
C56    C     0.29595   0.07909   0.63433   0.00000  Uiso   1.00
C57    C     0.31931   0.14968   0.64974   0.00000  Uiso   1.00
C58    C     0.27113   0.18748   0.67948   0.00000  Uiso   1.00
C59    C     0.21361   0.27158   0.72806   0.00000  Uiso   1.00
C60    C     0.21265   0.96967   0.62708   0.00000  Uiso   1.00
C61    C     0.28060   0.92090   0.64013   0.00000  Uiso   1.00
C62    C     0.27752   0.85224   0.66314   0.00000  Uiso   1.00
C63    C     0.34602   0.81637   0.67187   0.00000  Uiso   1.00
C64    C     0.21753   0.98072   0.57557   0.00000  Uiso   1.00
C65    C     0.16143   0.96237   0.54428   0.00000  Uiso   1.00
C66    C     0.17683   0.97685   0.49866   0.00000  Uiso   1.00
C67    C     0.22691   0.04739   0.64813   0.00000  Uiso   1.00
C68    C     0.17869   0.08509   0.67784   0.00000  Uiso   1.00
C69    C     0.20197   0.15572   0.69329   0.00000  Uiso   1.00
H70    H     0.39350   0.05273   0.59094   0.00000  Uiso   1.00
H71    H     0.47156   0.94138   0.62435   0.00000  Uiso   1.00
H72    H     0.35548   0.05149   0.50552   0.00000  Uiso   1.00
H73    H     0.37273   0.17420   0.63906   0.00000  Uiso   1.00
H74    H     0.52766   0.80393   0.66747   0.00000  Uiso   1.00
H75    H     0.28290   0.03613   0.41690   0.00000  Uiso   1.00
H76    H     0.31928   0.29489   0.69849   0.00000  Uiso   1.00
H77    H     0.15890   0.94499   0.63782   0.00000  Uiso   1.00
H78    H     0.22409   0.82772   0.67381   0.00000  Uiso   1.00
H79    H     0.10802   0.93783   0.55497   0.00000  Uiso   1.00
H80    H     0.12527   0.06054   0.68851   0.00000  Uiso   1.00
H81    H     0.32681   0.71168   0.70761   0.00000  Uiso   1.00
H82    H     0.08204   0.94389   0.45704   0.00000  Uiso   1.00
H83    H     0.11842   0.20264   0.73863   0.00000  Uiso   1.00
O84    O     0.47435   0.68260   0.71035   0.00000  Uiso   1.00
O85    O     0.15323   0.98725   0.38162   0.00000  Uiso   1.00
O86    O     0.20096   0.32673   0.75106   0.00000  Uiso   1.00
N87    N     0.47144   0.79832   0.67198   0.00000  Uiso   1.00
N88    N     0.24261   0.01540   0.43772   0.00000  Uiso   1.00
N89    N     0.27661   0.25733   0.70097   0.00000  Uiso   1.00
N90    N     0.36337   0.74868   0.69358   0.00000  Uiso   1.00
N91    N     0.13453   0.96577   0.45932   0.00000  Uiso   1.00
N92    N     0.16853   0.20769   0.72257   0.00000  Uiso   1.00
C93    C     0.16025   0.47196   0.10168   0.00000  Uiso   1.00
C94    C     0.15037   0.54739   0.12634   0.00000  Uiso   1.00
C95    C     0.08185   0.58317   0.13504   0.00000  Uiso   1.00
C96    C     0.08482   0.65187   0.15805   0.00000  Uiso   1.00
C97    C     0.05898   0.76420   0.19422   0.00000  Uiso   1.00
C98    C     0.21343   0.48757   0.06177   0.00000  Uiso   1.00
C99    C     0.19794   0.47305   0.01618   0.00000  Uiso   1.00
C100   C     0.25400   0.49139   0.98484   0.00000  Uiso   1.00
C101   C     0.32609   0.51079   0.92077   0.00000  Uiso   1.00
C102   C     0.20405   0.42091   0.13433   0.00000  Uiso   1.00
C103   C     0.18069   0.35032   0.14974   0.00000  Uiso   1.00
C104   C     0.22887   0.31252   0.17948   0.00000  Uiso   1.00
C105   C     0.28639   0.22842   0.22806   0.00000  Uiso   1.00
C106   C     0.28735   0.53033   0.12708   0.00000  Uiso   1.00
C107   C     0.21940   0.57910   0.14013   0.00000  Uiso   1.00
C108   C     0.22248   0.64776   0.16314   0.00000  Uiso   1.00
C109   C     0.15398   0.68363   0.17187   0.00000  Uiso   1.00
C110   C     0.28247   0.51928   0.07557   0.00000  Uiso   1.00
C111   C     0.33857   0.53763   0.04428   0.00000  Uiso   1.00
C112   C     0.32317   0.52315   0.99866   0.00000  Uiso   1.00
C113   C     0.27309   0.45261   0.14813   0.00000  Uiso   1.00
C114   C     0.32131   0.41491   0.17784   0.00000  Uiso   1.00
C115   C     0.29803   0.34428   0.19329   0.00000  Uiso   1.00
H116   H     0.10650   0.44727   0.09094   0.00000  Uiso   1.00
H117   H     0.02844   0.55862   0.12435   0.00000  Uiso   1.00
H118   H     0.14452   0.44851   0.00552   0.00000  Uiso   1.00
H119   H     0.12727   0.32580   0.13906   0.00000  Uiso   1.00
H120   H     0.97234   0.69607   0.16747   0.00000  Uiso   1.00
H121   H     0.21710   0.46387   0.91690   0.00000  Uiso   1.00
H122   H     0.18072   0.20511   0.19849   0.00000  Uiso   1.00
H123   H     0.34110   0.55501   0.13782   0.00000  Uiso   1.00
H124   H     0.27591   0.67228   0.17381   0.00000  Uiso   1.00
H125   H     0.39198   0.56217   0.05497   0.00000  Uiso   1.00
H126   H     0.37473   0.43946   0.18851   0.00000  Uiso   1.00
H127   H     0.17319   0.78832   0.20761   0.00000  Uiso   1.00
H128   H     0.41796   0.55611   0.95704   0.00000  Uiso   1.00
H129   H     0.38158   0.29736   0.23863   0.00000  Uiso   1.00
O130   O     0.02565   0.81740   0.21035   0.00000  Uiso   1.00
O131   O     0.34677   0.51275   0.88162   0.00000  Uiso   1.00
O132   O     0.29904   0.17327   0.25106   0.00000  Uiso   1.00
N133   N     0.02856   0.70168   0.17198   0.00000  Uiso   1.00
N134   N     0.25739   0.48460   0.93772   0.00000  Uiso   1.00
N135   N     0.22339   0.24267   0.20097   0.00000  Uiso   1.00
N136   N     0.13663   0.75132   0.19358   0.00000  Uiso   1.00
N137   N     0.36547   0.53423   0.95932   0.00000  Uiso   1.00
N138   N     0.33147   0.29231   0.22257   0.00000  Uiso   1.00
C139   C     0.66025   0.97196   0.60168   0.00000  Uiso   1.00
C140   C     0.65037   0.04739   0.62634   0.00000  Uiso   1.00
C141   C     0.58185   0.08317   0.63504   0.00000  Uiso   1.00
C142   C     0.58482   0.15187   0.65805   0.00000  Uiso   1.00
C143   C     0.55898   0.26420   0.69422   0.00000  Uiso   1.00
C144   C     0.71343   0.98757   0.56177   0.00000  Uiso   1.00
C145   C     0.69794   0.97305   0.51618   0.00000  Uiso   1.00
C146   C     0.75400   0.99139   0.48484   0.00000  Uiso   1.00
C147   C     0.82609   0.01079   0.42077   0.00000  Uiso   1.00
C148   C     0.70405   0.92091   0.63433   0.00000  Uiso   1.00
C149   C     0.68069   0.85032   0.64974   0.00000  Uiso   1.00
C150   C     0.72887   0.81252   0.67948   0.00000  Uiso   1.00
C151   C     0.78639   0.72842   0.72806   0.00000  Uiso   1.00
C152   C     0.78735   0.03033   0.62708   0.00000  Uiso   1.00
C153   C     0.71940   0.07910   0.64013   0.00000  Uiso   1.00
C154   C     0.72248   0.14776   0.66314   0.00000  Uiso   1.00
C155   C     0.65398   0.18363   0.67187   0.00000  Uiso   1.00
C156   C     0.78247   0.01928   0.57557   0.00000  Uiso   1.00
C157   C     0.83857   0.03763   0.54428   0.00000  Uiso   1.00
C158   C     0.82317   0.02315   0.49866   0.00000  Uiso   1.00
C159   C     0.77309   0.95261   0.64813   0.00000  Uiso   1.00
C160   C     0.82131   0.91491   0.67784   0.00000  Uiso   1.00
C161   C     0.79803   0.84428   0.69329   0.00000  Uiso   1.00
H162   H     0.60650   0.94727   0.59094   0.00000  Uiso   1.00
H163   H     0.52844   0.05862   0.62435   0.00000  Uiso   1.00
H164   H     0.64452   0.94851   0.50552   0.00000  Uiso   1.00
H165   H     0.62727   0.82580   0.63906   0.00000  Uiso   1.00
H166   H     0.47234   0.19607   0.66747   0.00000  Uiso   1.00
H167   H     0.71710   0.96387   0.41690   0.00000  Uiso   1.00
H168   H     0.68072   0.70511   0.69849   0.00000  Uiso   1.00
H169   H     0.84110   0.05501   0.63782   0.00000  Uiso   1.00
H170   H     0.77591   0.17228   0.67381   0.00000  Uiso   1.00
H171   H     0.89198   0.06217   0.55497   0.00000  Uiso   1.00
H172   H     0.87473   0.93946   0.68851   0.00000  Uiso   1.00
H173   H     0.67319   0.28832   0.70761   0.00000  Uiso   1.00
H174   H     0.91796   0.05611   0.45704   0.00000  Uiso   1.00
H175   H     0.88158   0.79736   0.73863   0.00000  Uiso   1.00
O176   O     0.52565   0.31740   0.71035   0.00000  Uiso   1.00
O177   O     0.84677   0.01275   0.38162   0.00000  Uiso   1.00
O178   O     0.79904   0.67327   0.75106   0.00000  Uiso   1.00
N179   N     0.52856   0.20168   0.67198   0.00000  Uiso   1.00
N180   N     0.75739   0.98460   0.43772   0.00000  Uiso   1.00
N181   N     0.72339   0.74267   0.70097   0.00000  Uiso   1.00
N182   N     0.63663   0.25132   0.69358   0.00000  Uiso   1.00
N183   N     0.86547   0.03423   0.45932   0.00000  Uiso   1.00
N184   N     0.83147   0.79231   0.72257   0.00000  Uiso   1.00
C185   C     0.52804   0.16025   0.89832   0.00000  Uiso   1.00
C186   C     0.45261   0.15037   0.87366   0.00000  Uiso   1.00
C187   C     0.41683   0.08185   0.86496   0.00000  Uiso   1.00
C188   C     0.34813   0.08482   0.84195   0.00000  Uiso   1.00
C189   C     0.23580   0.05898   0.80578   0.00000  Uiso   1.00
C190   C     0.51243   0.21343   0.93823   0.00000  Uiso   1.00
C191   C     0.52695   0.19794   0.98382   0.00000  Uiso   1.00
C192   C     0.50861   0.25400   0.01516   0.00000  Uiso   1.00
C193   C     0.48921   0.32609   0.07923   0.00000  Uiso   1.00
C194   C     0.57909   0.20405   0.86567   0.00000  Uiso   1.00
C195   C     0.64968   0.18069   0.85026   0.00000  Uiso   1.00
C196   C     0.68748   0.22887   0.82052   0.00000  Uiso   1.00
C197   C     0.77158   0.28639   0.77194   0.00000  Uiso   1.00
C198   C     0.46967   0.28735   0.87292   0.00000  Uiso   1.00
C199   C     0.42090   0.21940   0.85987   0.00000  Uiso   1.00
C200   C     0.35224   0.22248   0.83686   0.00000  Uiso   1.00
C201   C     0.31637   0.15398   0.82813   0.00000  Uiso   1.00
C202   C     0.48072   0.28247   0.92443   0.00000  Uiso   1.00
C203   C     0.46237   0.33857   0.95572   0.00000  Uiso   1.00
C204   C     0.47685   0.32317   0.00134   0.00000  Uiso   1.00
C205   C     0.54739   0.27309   0.85187   0.00000  Uiso   1.00
C206   C     0.58509   0.32131   0.82216   0.00000  Uiso   1.00
C207   C     0.65572   0.29803   0.80671   0.00000  Uiso   1.00
H208   H     0.55273   0.10650   0.90906   0.00000  Uiso   1.00
H209   H     0.44138   0.02844   0.87565   0.00000  Uiso   1.00
H210   H     0.55149   0.14452   0.99448   0.00000  Uiso   1.00
H211   H     0.67420   0.12727   0.86094   0.00000  Uiso   1.00
H212   H     0.30393   0.97234   0.83253   0.00000  Uiso   1.00
H213   H     0.53613   0.21710   0.08310   0.00000  Uiso   1.00
H214   H     0.79489   0.18072   0.80151   0.00000  Uiso   1.00
H215   H     0.44499   0.34110   0.86218   0.00000  Uiso   1.00
H216   H     0.32772   0.27591   0.82619   0.00000  Uiso   1.00
H217   H     0.43783   0.39198   0.94503   0.00000  Uiso   1.00
H218   H     0.56054   0.37473   0.81149   0.00000  Uiso   1.00
H219   H     0.21168   0.17319   0.79239   0.00000  Uiso   1.00
H220   H     0.44389   0.41796   0.04296   0.00000  Uiso   1.00
H221   H     0.70264   0.38158   0.76137   0.00000  Uiso   1.00
O222   O     0.18260   0.02565   0.78965   0.00000  Uiso   1.00
O223   O     0.48725   0.34677   0.11838   0.00000  Uiso   1.00
O224   O     0.82673   0.29904   0.74894   0.00000  Uiso   1.00
N225   N     0.29832   0.02856   0.82802   0.00000  Uiso   1.00
N226   N     0.51540   0.25739   0.06228   0.00000  Uiso   1.00
N227   N     0.75733   0.22339   0.79903   0.00000  Uiso   1.00
N228   N     0.24868   0.13663   0.80642   0.00000  Uiso   1.00
N229   N     0.46577   0.36547   0.04068   0.00000  Uiso   1.00
N230   N     0.70769   0.33147   0.77743   0.00000  Uiso   1.00
C231   C     0.02804   0.66025   0.39832   0.00000  Uiso   1.00
C232   C     0.95261   0.65037   0.37366   0.00000  Uiso   1.00
C233   C     0.91683   0.58185   0.36496   0.00000  Uiso   1.00
C234   C     0.84813   0.58482   0.34195   0.00000  Uiso   1.00
C235   C     0.73580   0.55898   0.30578   0.00000  Uiso   1.00
C236   C     0.01243   0.71343   0.43823   0.00000  Uiso   1.00
C237   C     0.02695   0.69794   0.48382   0.00000  Uiso   1.00
C238   C     0.00861   0.75400   0.51516   0.00000  Uiso   1.00
C239   C     0.98921   0.82609   0.57923   0.00000  Uiso   1.00
C240   C     0.07909   0.70405   0.36567   0.00000  Uiso   1.00
C241   C     0.14968   0.68069   0.35026   0.00000  Uiso   1.00
C242   C     0.18748   0.72887   0.32052   0.00000  Uiso   1.00
C243   C     0.27158   0.78639   0.27194   0.00000  Uiso   1.00
C244   C     0.96967   0.78735   0.37292   0.00000  Uiso   1.00
C245   C     0.92090   0.71940   0.35987   0.00000  Uiso   1.00
C246   C     0.85224   0.72248   0.33686   0.00000  Uiso   1.00
C247   C     0.81637   0.65398   0.32813   0.00000  Uiso   1.00
C248   C     0.98072   0.78247   0.42443   0.00000  Uiso   1.00
C249   C     0.96237   0.83857   0.45572   0.00000  Uiso   1.00
C250   C     0.97685   0.82317   0.50134   0.00000  Uiso   1.00
C251   C     0.04739   0.77309   0.35187   0.00000  Uiso   1.00
C252   C     0.08509   0.82131   0.32216   0.00000  Uiso   1.00
C253   C     0.15572   0.79803   0.30671   0.00000  Uiso   1.00
H254   H     0.05273   0.60650   0.40906   0.00000  Uiso   1.00
H255   H     0.94138   0.52844   0.37565   0.00000  Uiso   1.00
H256   H     0.05149   0.64452   0.49448   0.00000  Uiso   1.00
H257   H     0.17420   0.62727   0.36094   0.00000  Uiso   1.00
H258   H     0.80393   0.47234   0.33253   0.00000  Uiso   1.00
H259   H     0.03613   0.71710   0.58310   0.00000  Uiso   1.00
H260   H     0.29489   0.68072   0.30151   0.00000  Uiso   1.00
H261   H     0.94499   0.84110   0.36218   0.00000  Uiso   1.00
H262   H     0.82772   0.77591   0.32619   0.00000  Uiso   1.00
H263   H     0.93783   0.89198   0.44503   0.00000  Uiso   1.00
H264   H     0.06054   0.87473   0.31149   0.00000  Uiso   1.00
H265   H     0.71168   0.67319   0.29239   0.00000  Uiso   1.00
H266   H     0.94389   0.91796   0.54296   0.00000  Uiso   1.00
H267   H     0.20264   0.88158   0.26137   0.00000  Uiso   1.00
O268   O     0.68260   0.52565   0.28965   0.00000  Uiso   1.00
O269   O     0.98725   0.84677   0.61838   0.00000  Uiso   1.00
O270   O     0.32673   0.79904   0.24894   0.00000  Uiso   1.00
N271   N     0.79832   0.52856   0.32802   0.00000  Uiso   1.00
N272   N     0.01540   0.75739   0.56228   0.00000  Uiso   1.00
N273   N     0.25733   0.72339   0.29903   0.00000  Uiso   1.00
N274   N     0.74868   0.63663   0.30642   0.00000  Uiso   1.00
N275   N     0.96577   0.86547   0.54068   0.00000  Uiso   1.00
N276   N     0.20769   0.83147   0.27743   0.00000  Uiso   1.00
C277   C     0.47196   0.83975   0.89832   0.00000  Uiso   1.00
C278   C     0.54739   0.84963   0.87366   0.00000  Uiso   1.00
C279   C     0.58317   0.91815   0.86496   0.00000  Uiso   1.00
C280   C     0.65187   0.91518   0.84195   0.00000  Uiso   1.00
C281   C     0.76420   0.94102   0.80578   0.00000  Uiso   1.00
C282   C     0.48757   0.78657   0.93823   0.00000  Uiso   1.00
C283   C     0.47305   0.80206   0.98382   0.00000  Uiso   1.00
C284   C     0.49139   0.74600   0.01516   0.00000  Uiso   1.00
C285   C     0.51079   0.67391   0.07923   0.00000  Uiso   1.00
C286   C     0.42091   0.79595   0.86567   0.00000  Uiso   1.00
C287   C     0.35032   0.81931   0.85026   0.00000  Uiso   1.00
C288   C     0.31252   0.77113   0.82052   0.00000  Uiso   1.00
C289   C     0.22842   0.71361   0.77194   0.00000  Uiso   1.00
C290   C     0.53033   0.71265   0.87292   0.00000  Uiso   1.00
C291   C     0.57910   0.78060   0.85987   0.00000  Uiso   1.00
C292   C     0.64776   0.77752   0.83686   0.00000  Uiso   1.00
C293   C     0.68363   0.84602   0.82813   0.00000  Uiso   1.00
C294   C     0.51928   0.71753   0.92443   0.00000  Uiso   1.00
C295   C     0.53763   0.66143   0.95572   0.00000  Uiso   1.00
C296   C     0.52315   0.67683   0.00134   0.00000  Uiso   1.00
C297   C     0.45261   0.72691   0.85187   0.00000  Uiso   1.00
C298   C     0.41491   0.67869   0.82216   0.00000  Uiso   1.00
C299   C     0.34428   0.70197   0.80671   0.00000  Uiso   1.00
H300   H     0.44727   0.89350   0.90906   0.00000  Uiso   1.00
H301   H     0.55862   0.97156   0.87565   0.00000  Uiso   1.00
H302   H     0.44851   0.85548   0.99448   0.00000  Uiso   1.00
H303   H     0.32580   0.87273   0.86094   0.00000  Uiso   1.00
H304   H     0.69607   0.02766   0.83253   0.00000  Uiso   1.00
H305   H     0.46387   0.78290   0.08310   0.00000  Uiso   1.00
H306   H     0.20511   0.81928   0.80151   0.00000  Uiso   1.00
H307   H     0.55501   0.65890   0.86218   0.00000  Uiso   1.00
H308   H     0.67228   0.72409   0.82619   0.00000  Uiso   1.00
H309   H     0.56217   0.60802   0.94503   0.00000  Uiso   1.00
H310   H     0.43946   0.62527   0.81149   0.00000  Uiso   1.00
H311   H     0.78832   0.82681   0.79239   0.00000  Uiso   1.00
H312   H     0.55611   0.58204   0.04296   0.00000  Uiso   1.00
H313   H     0.29736   0.61842   0.76137   0.00000  Uiso   1.00
O314   O     0.81740   0.97435   0.78965   0.00000  Uiso   1.00
O315   O     0.51275   0.65323   0.11838   0.00000  Uiso   1.00
O316   O     0.17327   0.70096   0.74894   0.00000  Uiso   1.00
N317   N     0.70168   0.97144   0.82802   0.00000  Uiso   1.00
N318   N     0.48460   0.74261   0.06228   0.00000  Uiso   1.00
N319   N     0.24267   0.77661   0.79903   0.00000  Uiso   1.00
N320   N     0.75132   0.86337   0.80642   0.00000  Uiso   1.00
N321   N     0.53423   0.63453   0.04068   0.00000  Uiso   1.00
N322   N     0.29231   0.66853   0.77743   0.00000  Uiso   1.00
C323   C     0.97196   0.33975   0.39832   0.00000  Uiso   1.00
C324   C     0.04739   0.34963   0.37366   0.00000  Uiso   1.00
C325   C     0.08317   0.41815   0.36496   0.00000  Uiso   1.00
C326   C     0.15187   0.41518   0.34195   0.00000  Uiso   1.00
C327   C     0.26420   0.44102   0.30578   0.00000  Uiso   1.00
C328   C     0.98757   0.28657   0.43823   0.00000  Uiso   1.00
C329   C     0.97305   0.30206   0.48382   0.00000  Uiso   1.00
C330   C     0.99139   0.24600   0.51516   0.00000  Uiso   1.00
C331   C     0.01079   0.17391   0.57923   0.00000  Uiso   1.00
C332   C     0.92091   0.29595   0.36567   0.00000  Uiso   1.00
C333   C     0.85032   0.31931   0.35026   0.00000  Uiso   1.00
C334   C     0.81252   0.27113   0.32052   0.00000  Uiso   1.00
C335   C     0.72842   0.21361   0.27194   0.00000  Uiso   1.00
C336   C     0.03033   0.21265   0.37292   0.00000  Uiso   1.00
C337   C     0.07910   0.28060   0.35987   0.00000  Uiso   1.00
C338   C     0.14776   0.27752   0.33686   0.00000  Uiso   1.00
C339   C     0.18363   0.34602   0.32813   0.00000  Uiso   1.00
C340   C     0.01928   0.21753   0.42443   0.00000  Uiso   1.00
C341   C     0.03763   0.16143   0.45572   0.00000  Uiso   1.00
C342   C     0.02315   0.17683   0.50134   0.00000  Uiso   1.00
C343   C     0.95261   0.22691   0.35187   0.00000  Uiso   1.00
C344   C     0.91491   0.17869   0.32216   0.00000  Uiso   1.00
C345   C     0.84428   0.20197   0.30671   0.00000  Uiso   1.00
H346   H     0.94727   0.39350   0.40906   0.00000  Uiso   1.00
H347   H     0.05862   0.47156   0.37565   0.00000  Uiso   1.00
H348   H     0.94851   0.35548   0.49448   0.00000  Uiso   1.00
H349   H     0.82580   0.37273   0.36094   0.00000  Uiso   1.00
H350   H     0.19607   0.52766   0.33253   0.00000  Uiso   1.00
H351   H     0.96387   0.28290   0.58310   0.00000  Uiso   1.00
H352   H     0.70511   0.31928   0.30151   0.00000  Uiso   1.00
H353   H     0.05501   0.15890   0.36218   0.00000  Uiso   1.00
H354   H     0.17228   0.22409   0.32619   0.00000  Uiso   1.00
H355   H     0.06217   0.10802   0.44503   0.00000  Uiso   1.00
H356   H     0.93946   0.12527   0.31149   0.00000  Uiso   1.00
H357   H     0.28832   0.32681   0.29239   0.00000  Uiso   1.00
H358   H     0.05611   0.08204   0.54296   0.00000  Uiso   1.00
H359   H     0.79736   0.11842   0.26137   0.00000  Uiso   1.00
O360   O     0.31740   0.47435   0.28965   0.00000  Uiso   1.00
O361   O     0.01275   0.15323   0.61838   0.00000  Uiso   1.00
O362   O     0.67327   0.20096   0.24894   0.00000  Uiso   1.00
N363   N     0.20168   0.47144   0.32802   0.00000  Uiso   1.00
N364   N     0.98460   0.24261   0.56228   0.00000  Uiso   1.00
N365   N     0.74267   0.27661   0.29903   0.00000  Uiso   1.00
N366   N     0.25132   0.36337   0.30642   0.00000  Uiso   1.00
N367   N     0.03423   0.13453   0.54068   0.00000  Uiso   1.00
N368   N     0.79231   0.16853   0.27743   0.00000  Uiso   1.00
C369   C     0.66025   0.52804   0.64832   0.00000  Uiso   1.00
C370   C     0.65037   0.45261   0.62366   0.00000  Uiso   1.00
C371   C     0.58185   0.41683   0.61496   0.00000  Uiso   1.00
C372   C     0.58482   0.34813   0.59195   0.00000  Uiso   1.00
C373   C     0.55898   0.23580   0.55578   0.00000  Uiso   1.00
C374   C     0.71343   0.51243   0.68823   0.00000  Uiso   1.00
C375   C     0.69794   0.52695   0.73382   0.00000  Uiso   1.00
C376   C     0.75400   0.50861   0.76516   0.00000  Uiso   1.00
C377   C     0.82609   0.48921   0.82923   0.00000  Uiso   1.00
C378   C     0.70405   0.57909   0.61567   0.00000  Uiso   1.00
C379   C     0.68069   0.64968   0.60026   0.00000  Uiso   1.00
C380   C     0.72887   0.68748   0.57052   0.00000  Uiso   1.00
C381   C     0.78639   0.77158   0.52194   0.00000  Uiso   1.00
C382   C     0.78735   0.46967   0.62292   0.00000  Uiso   1.00
C383   C     0.71940   0.42090   0.60987   0.00000  Uiso   1.00
C384   C     0.72248   0.35224   0.58686   0.00000  Uiso   1.00
C385   C     0.65398   0.31637   0.57813   0.00000  Uiso   1.00
C386   C     0.78247   0.48072   0.67443   0.00000  Uiso   1.00
C387   C     0.83857   0.46237   0.70572   0.00000  Uiso   1.00
C388   C     0.82317   0.47685   0.75134   0.00000  Uiso   1.00
C389   C     0.77309   0.54739   0.60187   0.00000  Uiso   1.00
C390   C     0.82131   0.58509   0.57216   0.00000  Uiso   1.00
C391   C     0.79803   0.65572   0.55671   0.00000  Uiso   1.00
H392   H     0.60650   0.55273   0.65906   0.00000  Uiso   1.00
H393   H     0.52844   0.44138   0.62565   0.00000  Uiso   1.00
H394   H     0.64452   0.55149   0.74448   0.00000  Uiso   1.00
H395   H     0.62727   0.67420   0.61094   0.00000  Uiso   1.00
H396   H     0.47234   0.30393   0.58253   0.00000  Uiso   1.00
H397   H     0.71710   0.53613   0.83310   0.00000  Uiso   1.00
H398   H     0.68072   0.79489   0.55151   0.00000  Uiso   1.00
H399   H     0.84110   0.44499   0.61218   0.00000  Uiso   1.00
H400   H     0.77591   0.32772   0.57619   0.00000  Uiso   1.00
H401   H     0.89198   0.43783   0.69503   0.00000  Uiso   1.00
H402   H     0.87473   0.56054   0.56149   0.00000  Uiso   1.00
H403   H     0.67319   0.21168   0.54239   0.00000  Uiso   1.00
H404   H     0.91796   0.44389   0.79296   0.00000  Uiso   1.00
H405   H     0.88158   0.70264   0.51137   0.00000  Uiso   1.00
O406   O     0.52565   0.18260   0.53965   0.00000  Uiso   1.00
O407   O     0.84677   0.48725   0.86838   0.00000  Uiso   1.00
O408   O     0.79904   0.82673   0.49894   0.00000  Uiso   1.00
N409   N     0.52856   0.29832   0.57802   0.00000  Uiso   1.00
N410   N     0.75739   0.51540   0.81228   0.00000  Uiso   1.00
N411   N     0.72339   0.75733   0.54903   0.00000  Uiso   1.00
N412   N     0.63663   0.24868   0.55642   0.00000  Uiso   1.00
N413   N     0.86547   0.46577   0.79068   0.00000  Uiso   1.00
N414   N     0.83147   0.70769   0.52743   0.00000  Uiso   1.00
C415   C     0.16025   0.02804   0.14832   0.00000  Uiso   1.00
C416   C     0.15037   0.95261   0.12366   0.00000  Uiso   1.00
C417   C     0.08185   0.91683   0.11496   0.00000  Uiso   1.00
C418   C     0.08482   0.84813   0.09195   0.00000  Uiso   1.00
C419   C     0.05898   0.73580   0.05578   0.00000  Uiso   1.00
C420   C     0.21343   0.01243   0.18823   0.00000  Uiso   1.00
C421   C     0.19794   0.02695   0.23382   0.00000  Uiso   1.00
C422   C     0.25400   0.00861   0.26516   0.00000  Uiso   1.00
C423   C     0.32609   0.98921   0.32923   0.00000  Uiso   1.00
C424   C     0.20405   0.07909   0.11567   0.00000  Uiso   1.00
C425   C     0.18069   0.14968   0.10026   0.00000  Uiso   1.00
C426   C     0.22887   0.18748   0.07052   0.00000  Uiso   1.00
C427   C     0.28639   0.27158   0.02194   0.00000  Uiso   1.00
C428   C     0.28735   0.96967   0.12292   0.00000  Uiso   1.00
C429   C     0.21940   0.92090   0.10987   0.00000  Uiso   1.00
C430   C     0.22248   0.85224   0.08686   0.00000  Uiso   1.00
C431   C     0.15398   0.81637   0.07813   0.00000  Uiso   1.00
C432   C     0.28247   0.98072   0.17443   0.00000  Uiso   1.00
C433   C     0.33857   0.96237   0.20572   0.00000  Uiso   1.00
C434   C     0.32317   0.97685   0.25134   0.00000  Uiso   1.00
C435   C     0.27309   0.04739   0.10187   0.00000  Uiso   1.00
C436   C     0.32131   0.08509   0.07216   0.00000  Uiso   1.00
C437   C     0.29803   0.15572   0.05671   0.00000  Uiso   1.00
H438   H     0.10650   0.05273   0.15906   0.00000  Uiso   1.00
H439   H     0.02844   0.94138   0.12565   0.00000  Uiso   1.00
H440   H     0.14452   0.05149   0.24448   0.00000  Uiso   1.00
H441   H     0.12727   0.17420   0.11094   0.00000  Uiso   1.00
H442   H     0.97234   0.80393   0.08253   0.00000  Uiso   1.00
H443   H     0.21710   0.03613   0.33310   0.00000  Uiso   1.00
H444   H     0.18072   0.29489   0.05151   0.00000  Uiso   1.00
H445   H     0.34110   0.94499   0.11218   0.00000  Uiso   1.00
H446   H     0.27591   0.82772   0.07619   0.00000  Uiso   1.00
H447   H     0.39198   0.93783   0.19503   0.00000  Uiso   1.00
H448   H     0.37473   0.06054   0.06149   0.00000  Uiso   1.00
H449   H     0.17319   0.71168   0.04239   0.00000  Uiso   1.00
H450   H     0.41796   0.94389   0.29296   0.00000  Uiso   1.00
H451   H     0.38158   0.20264   0.01137   0.00000  Uiso   1.00
O452   O     0.02565   0.68260   0.03965   0.00000  Uiso   1.00
O453   O     0.34677   0.98725   0.36838   0.00000  Uiso   1.00
O454   O     0.29904   0.32673   0.99894   0.00000  Uiso   1.00
N455   N     0.02856   0.79832   0.07802   0.00000  Uiso   1.00
N456   N     0.25739   0.01540   0.31228   0.00000  Uiso   1.00
N457   N     0.22339   0.25733   0.04903   0.00000  Uiso   1.00
N458   N     0.13663   0.74868   0.05642   0.00000  Uiso   1.00
N459   N     0.36547   0.96577   0.29068   0.00000  Uiso   1.00
N460   N     0.33147   0.20769   0.02743   0.00000  Uiso   1.00
C461   C     0.33975   0.47196   0.64832   0.00000  Uiso   1.00
C462   C     0.34963   0.54739   0.62366   0.00000  Uiso   1.00
C463   C     0.41815   0.58317   0.61496   0.00000  Uiso   1.00
C464   C     0.41518   0.65187   0.59195   0.00000  Uiso   1.00
C465   C     0.44102   0.76420   0.55578   0.00000  Uiso   1.00
C466   C     0.28657   0.48757   0.68823   0.00000  Uiso   1.00
C467   C     0.30206   0.47305   0.73382   0.00000  Uiso   1.00
C468   C     0.24600   0.49139   0.76516   0.00000  Uiso   1.00
C469   C     0.17391   0.51079   0.82923   0.00000  Uiso   1.00
C470   C     0.29595   0.42091   0.61567   0.00000  Uiso   1.00
C471   C     0.31931   0.35032   0.60026   0.00000  Uiso   1.00
C472   C     0.27113   0.31252   0.57052   0.00000  Uiso   1.00
C473   C     0.21361   0.22842   0.52194   0.00000  Uiso   1.00
C474   C     0.21265   0.53033   0.62292   0.00000  Uiso   1.00
C475   C     0.28060   0.57910   0.60987   0.00000  Uiso   1.00
C476   C     0.27752   0.64776   0.58686   0.00000  Uiso   1.00
C477   C     0.34602   0.68363   0.57813   0.00000  Uiso   1.00
C478   C     0.21753   0.51928   0.67443   0.00000  Uiso   1.00
C479   C     0.16143   0.53763   0.70572   0.00000  Uiso   1.00
C480   C     0.17683   0.52315   0.75134   0.00000  Uiso   1.00
C481   C     0.22691   0.45261   0.60187   0.00000  Uiso   1.00
C482   C     0.17869   0.41491   0.57216   0.00000  Uiso   1.00
C483   C     0.20197   0.34428   0.55671   0.00000  Uiso   1.00
H484   H     0.39350   0.44727   0.65906   0.00000  Uiso   1.00
H485   H     0.47156   0.55862   0.62565   0.00000  Uiso   1.00
H486   H     0.35548   0.44851   0.74448   0.00000  Uiso   1.00
H487   H     0.37273   0.32580   0.61094   0.00000  Uiso   1.00
H488   H     0.52766   0.69607   0.58253   0.00000  Uiso   1.00
H489   H     0.28290   0.46387   0.83310   0.00000  Uiso   1.00
H490   H     0.31928   0.20511   0.55151   0.00000  Uiso   1.00
H491   H     0.15890   0.55501   0.61218   0.00000  Uiso   1.00
H492   H     0.22409   0.67228   0.57619   0.00000  Uiso   1.00
H493   H     0.10802   0.56217   0.69503   0.00000  Uiso   1.00
H494   H     0.12527   0.43946   0.56149   0.00000  Uiso   1.00
H495   H     0.32681   0.78832   0.54239   0.00000  Uiso   1.00
H496   H     0.08204   0.55611   0.79296   0.00000  Uiso   1.00
H497   H     0.11842   0.29736   0.51137   0.00000  Uiso   1.00
O498   O     0.47435   0.81740   0.53965   0.00000  Uiso   1.00
O499   O     0.15323   0.51275   0.86838   0.00000  Uiso   1.00
O500   O     0.20096   0.17327   0.49894   0.00000  Uiso   1.00
N501   N     0.47144   0.70168   0.57802   0.00000  Uiso   1.00
N502   N     0.24261   0.48460   0.81228   0.00000  Uiso   1.00
N503   N     0.27661   0.24267   0.54903   0.00000  Uiso   1.00
N504   N     0.36337   0.75132   0.55642   0.00000  Uiso   1.00
N505   N     0.13453   0.53423   0.79068   0.00000  Uiso   1.00
N506   N     0.16853   0.29231   0.52743   0.00000  Uiso   1.00
C507   C     0.83975   0.97196   0.14832   0.00000  Uiso   1.00
C508   C     0.84963   0.04739   0.12366   0.00000  Uiso   1.00
C509   C     0.91815   0.08317   0.11496   0.00000  Uiso   1.00
C510   C     0.91518   0.15187   0.09195   0.00000  Uiso   1.00
C511   C     0.94102   0.26420   0.05578   0.00000  Uiso   1.00
C512   C     0.78657   0.98757   0.18823   0.00000  Uiso   1.00
C513   C     0.80206   0.97305   0.23382   0.00000  Uiso   1.00
C514   C     0.74600   0.99139   0.26516   0.00000  Uiso   1.00
C515   C     0.67391   0.01079   0.32923   0.00000  Uiso   1.00
C516   C     0.79595   0.92091   0.11567   0.00000  Uiso   1.00
C517   C     0.81931   0.85032   0.10026   0.00000  Uiso   1.00
C518   C     0.77113   0.81252   0.07052   0.00000  Uiso   1.00
C519   C     0.71361   0.72842   0.02194   0.00000  Uiso   1.00
C520   C     0.71265   0.03033   0.12292   0.00000  Uiso   1.00
C521   C     0.78060   0.07910   0.10987   0.00000  Uiso   1.00
C522   C     0.77752   0.14776   0.08686   0.00000  Uiso   1.00
C523   C     0.84602   0.18363   0.07813   0.00000  Uiso   1.00
C524   C     0.71753   0.01928   0.17443   0.00000  Uiso   1.00
C525   C     0.66143   0.03763   0.20572   0.00000  Uiso   1.00
C526   C     0.67683   0.02315   0.25134   0.00000  Uiso   1.00
C527   C     0.72691   0.95261   0.10187   0.00000  Uiso   1.00
C528   C     0.67869   0.91491   0.07216   0.00000  Uiso   1.00
C529   C     0.70197   0.84428   0.05671   0.00000  Uiso   1.00
H530   H     0.89350   0.94727   0.15906   0.00000  Uiso   1.00
H531   H     0.97156   0.05862   0.12565   0.00000  Uiso   1.00
H532   H     0.85548   0.94851   0.24448   0.00000  Uiso   1.00
H533   H     0.87273   0.82580   0.11094   0.00000  Uiso   1.00
H534   H     0.02766   0.19607   0.08253   0.00000  Uiso   1.00
H535   H     0.78290   0.96387   0.33310   0.00000  Uiso   1.00
H536   H     0.81928   0.70511   0.05151   0.00000  Uiso   1.00
H537   H     0.65890   0.05501   0.11218   0.00000  Uiso   1.00
H538   H     0.72409   0.17228   0.07619   0.00000  Uiso   1.00
H539   H     0.60802   0.06217   0.19503   0.00000  Uiso   1.00
H540   H     0.62527   0.93946   0.06149   0.00000  Uiso   1.00
H541   H     0.82681   0.28832   0.04239   0.00000  Uiso   1.00
H542   H     0.58204   0.05611   0.29296   0.00000  Uiso   1.00
H543   H     0.61842   0.79736   0.01137   0.00000  Uiso   1.00
O544   O     0.97435   0.31740   0.03965   0.00000  Uiso   1.00
O545   O     0.65323   0.01275   0.36838   0.00000  Uiso   1.00
O546   O     0.70096   0.67327   0.99894   0.00000  Uiso   1.00
N547   N     0.97144   0.20168   0.07802   0.00000  Uiso   1.00
N548   N     0.74261   0.98460   0.31228   0.00000  Uiso   1.00
N549   N     0.77661   0.74267   0.04903   0.00000  Uiso   1.00
N550   N     0.86337   0.25132   0.05642   0.00000  Uiso   1.00
N551   N     0.63453   0.03423   0.29068   0.00000  Uiso   1.00
N552   N     0.66853   0.79231   0.02743   0.00000  Uiso   1.00
C553   C     0.97196   0.16025   0.85168   0.00000  Uiso   1.00
C554   C     0.04739   0.15037   0.87634   0.00000  Uiso   1.00
C555   C     0.08317   0.08185   0.88504   0.00000  Uiso   1.00
C556   C     0.15187   0.08482   0.90805   0.00000  Uiso   1.00
C557   C     0.26420   0.05898   0.94422   0.00000  Uiso   1.00
C558   C     0.98757   0.21343   0.81177   0.00000  Uiso   1.00
C559   C     0.97305   0.19794   0.76618   0.00000  Uiso   1.00
C560   C     0.99139   0.25400   0.73484   0.00000  Uiso   1.00
C561   C     0.01079   0.32609   0.67077   0.00000  Uiso   1.00
C562   C     0.92091   0.20405   0.88433   0.00000  Uiso   1.00
C563   C     0.85032   0.18069   0.89974   0.00000  Uiso   1.00
C564   C     0.81252   0.22887   0.92948   0.00000  Uiso   1.00
C565   C     0.72842   0.28639   0.97806   0.00000  Uiso   1.00
C566   C     0.03033   0.28735   0.87708   0.00000  Uiso   1.00
C567   C     0.07910   0.21940   0.89013   0.00000  Uiso   1.00
C568   C     0.14776   0.22248   0.91314   0.00000  Uiso   1.00
C569   C     0.18363   0.15398   0.92187   0.00000  Uiso   1.00
C570   C     0.01928   0.28247   0.82557   0.00000  Uiso   1.00
C571   C     0.03763   0.33857   0.79428   0.00000  Uiso   1.00
C572   C     0.02315   0.32317   0.74866   0.00000  Uiso   1.00
C573   C     0.95261   0.27309   0.89813   0.00000  Uiso   1.00
C574   C     0.91491   0.32131   0.92784   0.00000  Uiso   1.00
C575   C     0.84428   0.29803   0.94329   0.00000  Uiso   1.00
H576   H     0.94727   0.10650   0.84094   0.00000  Uiso   1.00
H577   H     0.05862   0.02844   0.87435   0.00000  Uiso   1.00
H578   H     0.94851   0.14452   0.75552   0.00000  Uiso   1.00
H579   H     0.82580   0.12727   0.88906   0.00000  Uiso   1.00
H580   H     0.19607   0.97234   0.91747   0.00000  Uiso   1.00
H581   H     0.96387   0.21710   0.66690   0.00000  Uiso   1.00
H582   H     0.70511   0.18072   0.94849   0.00000  Uiso   1.00
H583   H     0.05501   0.34110   0.88782   0.00000  Uiso   1.00
H584   H     0.17228   0.27591   0.92381   0.00000  Uiso   1.00
H585   H     0.06217   0.39198   0.80497   0.00000  Uiso   1.00
H586   H     0.93946   0.37473   0.93851   0.00000  Uiso   1.00
H587   H     0.28832   0.17319   0.95761   0.00000  Uiso   1.00
H588   H     0.05611   0.41796   0.70704   0.00000  Uiso   1.00
H589   H     0.79736   0.38158   0.98863   0.00000  Uiso   1.00
O590   O     0.31740   0.02565   0.96035   0.00000  Uiso   1.00
O591   O     0.01275   0.34677   0.63162   0.00000  Uiso   1.00
O592   O     0.67327   0.29904   0.00106   0.00000  Uiso   1.00
N593   N     0.20168   0.02856   0.92198   0.00000  Uiso   1.00
N594   N     0.98460   0.25739   0.68772   0.00000  Uiso   1.00
N595   N     0.74267   0.22339   0.95097   0.00000  Uiso   1.00
N596   N     0.25132   0.13663   0.94358   0.00000  Uiso   1.00
N597   N     0.03423   0.36547   0.70932   0.00000  Uiso   1.00
N598   N     0.79231   0.33147   0.97257   0.00000  Uiso   1.00
C599   C     0.47196   0.66025   0.35168   0.00000  Uiso   1.00
C600   C     0.54739   0.65037   0.37634   0.00000  Uiso   1.00
C601   C     0.58317   0.58185   0.38504   0.00000  Uiso   1.00
C602   C     0.65187   0.58482   0.40805   0.00000  Uiso   1.00
C603   C     0.76420   0.55898   0.44422   0.00000  Uiso   1.00
C604   C     0.48757   0.71343   0.31177   0.00000  Uiso   1.00
C605   C     0.47305   0.69794   0.26618   0.00000  Uiso   1.00
C606   C     0.49139   0.75400   0.23484   0.00000  Uiso   1.00
C607   C     0.51079   0.82609   0.17077   0.00000  Uiso   1.00
C608   C     0.42091   0.70405   0.38433   0.00000  Uiso   1.00
C609   C     0.35032   0.68069   0.39974   0.00000  Uiso   1.00
C610   C     0.31252   0.72887   0.42948   0.00000  Uiso   1.00
C611   C     0.22842   0.78639   0.47806   0.00000  Uiso   1.00
C612   C     0.53033   0.78735   0.37708   0.00000  Uiso   1.00
C613   C     0.57910   0.71940   0.39013   0.00000  Uiso   1.00
C614   C     0.64776   0.72248   0.41314   0.00000  Uiso   1.00
C615   C     0.68363   0.65398   0.42187   0.00000  Uiso   1.00
C616   C     0.51928   0.78247   0.32557   0.00000  Uiso   1.00
C617   C     0.53763   0.83857   0.29428   0.00000  Uiso   1.00
C618   C     0.52315   0.82317   0.24866   0.00000  Uiso   1.00
C619   C     0.45261   0.77309   0.39813   0.00000  Uiso   1.00
C620   C     0.41491   0.82131   0.42784   0.00000  Uiso   1.00
C621   C     0.34428   0.79803   0.44329   0.00000  Uiso   1.00
H622   H     0.44727   0.60650   0.34094   0.00000  Uiso   1.00
H623   H     0.55862   0.52844   0.37435   0.00000  Uiso   1.00
H624   H     0.44851   0.64452   0.25552   0.00000  Uiso   1.00
H625   H     0.32580   0.62727   0.38906   0.00000  Uiso   1.00
H626   H     0.69607   0.47234   0.41747   0.00000  Uiso   1.00
H627   H     0.46387   0.71710   0.16690   0.00000  Uiso   1.00
H628   H     0.20511   0.68072   0.44849   0.00000  Uiso   1.00
H629   H     0.55501   0.84110   0.38782   0.00000  Uiso   1.00
H630   H     0.67228   0.77591   0.42381   0.00000  Uiso   1.00
H631   H     0.56217   0.89198   0.30497   0.00000  Uiso   1.00
H632   H     0.43946   0.87473   0.43851   0.00000  Uiso   1.00
H633   H     0.78832   0.67319   0.45761   0.00000  Uiso   1.00
H634   H     0.55611   0.91796   0.20704   0.00000  Uiso   1.00
H635   H     0.29736   0.88158   0.48863   0.00000  Uiso   1.00
O636   O     0.81740   0.52565   0.46035   0.00000  Uiso   1.00
O637   O     0.51275   0.84677   0.13162   0.00000  Uiso   1.00
O638   O     0.17327   0.79904   0.50106   0.00000  Uiso   1.00
N639   N     0.70168   0.52856   0.42198   0.00000  Uiso   1.00
N640   N     0.48460   0.75739   0.18772   0.00000  Uiso   1.00
N641   N     0.24267   0.72339   0.45097   0.00000  Uiso   1.00
N642   N     0.75132   0.63663   0.44358   0.00000  Uiso   1.00
N643   N     0.53423   0.86547   0.20932   0.00000  Uiso   1.00
N644   N     0.29231   0.83147   0.47257   0.00000  Uiso   1.00
C645   C     0.02804   0.83975   0.85168   0.00000  Uiso   1.00
C646   C     0.95261   0.84963   0.87634   0.00000  Uiso   1.00
C647   C     0.91683   0.91815   0.88504   0.00000  Uiso   1.00
C648   C     0.84813   0.91518   0.90805   0.00000  Uiso   1.00
C649   C     0.73580   0.94102   0.94422   0.00000  Uiso   1.00
C650   C     0.01243   0.78657   0.81177   0.00000  Uiso   1.00
C651   C     0.02695   0.80206   0.76618   0.00000  Uiso   1.00
C652   C     0.00861   0.74600   0.73484   0.00000  Uiso   1.00
C653   C     0.98921   0.67391   0.67077   0.00000  Uiso   1.00
C654   C     0.07909   0.79595   0.88433   0.00000  Uiso   1.00
C655   C     0.14968   0.81931   0.89974   0.00000  Uiso   1.00
C656   C     0.18748   0.77113   0.92948   0.00000  Uiso   1.00
C657   C     0.27158   0.71361   0.97806   0.00000  Uiso   1.00
C658   C     0.96967   0.71265   0.87708   0.00000  Uiso   1.00
C659   C     0.92090   0.78060   0.89013   0.00000  Uiso   1.00
C660   C     0.85224   0.77752   0.91314   0.00000  Uiso   1.00
C661   C     0.81637   0.84602   0.92187   0.00000  Uiso   1.00
C662   C     0.98072   0.71753   0.82557   0.00000  Uiso   1.00
C663   C     0.96237   0.66143   0.79428   0.00000  Uiso   1.00
C664   C     0.97685   0.67683   0.74866   0.00000  Uiso   1.00
C665   C     0.04739   0.72691   0.89813   0.00000  Uiso   1.00
C666   C     0.08509   0.67869   0.92784   0.00000  Uiso   1.00
C667   C     0.15572   0.70197   0.94329   0.00000  Uiso   1.00
H668   H     0.05273   0.89350   0.84094   0.00000  Uiso   1.00
H669   H     0.94138   0.97156   0.87435   0.00000  Uiso   1.00
H670   H     0.05149   0.85548   0.75552   0.00000  Uiso   1.00
H671   H     0.17420   0.87273   0.88906   0.00000  Uiso   1.00
H672   H     0.80393   0.02766   0.91747   0.00000  Uiso   1.00
H673   H     0.03613   0.78290   0.66690   0.00000  Uiso   1.00
H674   H     0.29489   0.81928   0.94849   0.00000  Uiso   1.00
H675   H     0.94499   0.65890   0.88782   0.00000  Uiso   1.00
H676   H     0.82772   0.72409   0.92381   0.00000  Uiso   1.00
H677   H     0.93783   0.60802   0.80497   0.00000  Uiso   1.00
H678   H     0.06054   0.62527   0.93851   0.00000  Uiso   1.00
H679   H     0.71168   0.82681   0.95761   0.00000  Uiso   1.00
H680   H     0.94389   0.58204   0.70704   0.00000  Uiso   1.00
H681   H     0.20264   0.61842   0.98863   0.00000  Uiso   1.00
O682   O     0.68260   0.97435   0.96035   0.00000  Uiso   1.00
O683   O     0.98725   0.65323   0.63162   0.00000  Uiso   1.00
O684   O     0.32673   0.70096   0.00106   0.00000  Uiso   1.00
N685   N     0.79832   0.97144   0.92198   0.00000  Uiso   1.00
N686   N     0.01540   0.74261   0.68772   0.00000  Uiso   1.00
N687   N     0.25733   0.77661   0.95097   0.00000  Uiso   1.00
N688   N     0.74868   0.86337   0.94358   0.00000  Uiso   1.00
N689   N     0.96577   0.63453   0.70932   0.00000  Uiso   1.00
N690   N     0.20769   0.66853   0.97257   0.00000  Uiso   1.00
C691   C     0.52804   0.33975   0.35168   0.00000  Uiso   1.00
C692   C     0.45261   0.34963   0.37634   0.00000  Uiso   1.00
C693   C     0.41683   0.41815   0.38504   0.00000  Uiso   1.00
C694   C     0.34813   0.41518   0.40805   0.00000  Uiso   1.00
C695   C     0.23580   0.44102   0.44422   0.00000  Uiso   1.00
C696   C     0.51243   0.28657   0.31177   0.00000  Uiso   1.00
C697   C     0.52695   0.30206   0.26618   0.00000  Uiso   1.00
C698   C     0.50861   0.24600   0.23484   0.00000  Uiso   1.00
C699   C     0.48921   0.17391   0.17077   0.00000  Uiso   1.00
C700   C     0.57909   0.29595   0.38433   0.00000  Uiso   1.00
C701   C     0.64968   0.31931   0.39974   0.00000  Uiso   1.00
C702   C     0.68748   0.27113   0.42948   0.00000  Uiso   1.00
C703   C     0.77158   0.21361   0.47806   0.00000  Uiso   1.00
C704   C     0.46967   0.21265   0.37708   0.00000  Uiso   1.00
C705   C     0.42090   0.28060   0.39013   0.00000  Uiso   1.00
C706   C     0.35224   0.27752   0.41314   0.00000  Uiso   1.00
C707   C     0.31637   0.34602   0.42187   0.00000  Uiso   1.00
C708   C     0.48072   0.21753   0.32557   0.00000  Uiso   1.00
C709   C     0.46237   0.16143   0.29428   0.00000  Uiso   1.00
C710   C     0.47685   0.17683   0.24866   0.00000  Uiso   1.00
C711   C     0.54739   0.22691   0.39813   0.00000  Uiso   1.00
C712   C     0.58509   0.17869   0.42784   0.00000  Uiso   1.00
C713   C     0.65572   0.20197   0.44329   0.00000  Uiso   1.00
H714   H     0.55273   0.39350   0.34094   0.00000  Uiso   1.00
H715   H     0.44138   0.47156   0.37435   0.00000  Uiso   1.00
H716   H     0.55149   0.35548   0.25552   0.00000  Uiso   1.00
H717   H     0.67420   0.37273   0.38906   0.00000  Uiso   1.00
H718   H     0.30393   0.52766   0.41747   0.00000  Uiso   1.00
H719   H     0.53613   0.28290   0.16690   0.00000  Uiso   1.00
H720   H     0.79489   0.31928   0.44849   0.00000  Uiso   1.00
H721   H     0.44499   0.15890   0.38782   0.00000  Uiso   1.00
H722   H     0.32772   0.22409   0.42381   0.00000  Uiso   1.00
H723   H     0.43783   0.10802   0.30497   0.00000  Uiso   1.00
H724   H     0.56054   0.12527   0.43851   0.00000  Uiso   1.00
H725   H     0.21168   0.32681   0.45761   0.00000  Uiso   1.00
H726   H     0.44389   0.08204   0.20704   0.00000  Uiso   1.00
H727   H     0.70264   0.11842   0.48863   0.00000  Uiso   1.00
O728   O     0.18260   0.47435   0.46035   0.00000  Uiso   1.00
O729   O     0.48725   0.15323   0.13162   0.00000  Uiso   1.00
O730   O     0.82673   0.20096   0.50106   0.00000  Uiso   1.00
N731   N     0.29832   0.47144   0.42198   0.00000  Uiso   1.00
N732   N     0.51540   0.24261   0.18772   0.00000  Uiso   1.00
N733   N     0.75733   0.27661   0.45097   0.00000  Uiso   1.00
N734   N     0.24868   0.36337   0.44358   0.00000  Uiso   1.00
N735   N     0.46577   0.13453   0.20932   0.00000  Uiso   1.00
N736   N     0.70769   0.16853   0.47257   0.00000  Uiso   1.00
