data_job_03926
_audit_creation_date              2018-12-19
_audit_creation_method            'Materials Studio'
_symmetry_space_group_name_H-M    'P1'
_symmetry_Int_Tables_number       1
_symmetry_cell_setting            triclinic
loop_
_symmetry_equiv_pos_as_xyz
  x,y,z
_cell_length_a                    31.4065
_cell_length_b                    31.4065
_cell_length_c                    10.1382
_cell_angle_alpha                 90.0000
_cell_angle_beta                  90.0000
_cell_angle_gamma                 90.0000
loop_
_atom_site_label
_atom_site_type_symbol
_atom_site_fract_x
_atom_site_fract_y
_atom_site_fract_z
_atom_site_U_iso_or_equiv
_atom_site_adp_type
_atom_site_occupancy
C1     C     0.87608   0.58518   0.26872   0.00000  Uiso   1.00
C2     C     0.84999   0.61265   0.17463   0.00000  Uiso   1.00
C3     C     0.85300   0.61238   0.03807   0.00000  Uiso   1.00
C4     C     0.82636   0.63988   0.96963   0.00000  Uiso   1.00
C5     C     0.79021   0.67847   0.81351   0.00000  Uiso   1.00
C6     C     0.89822   0.61601   0.36254   0.00000  Uiso   1.00
C7     C     0.94179   0.61857   0.38398   0.00000  Uiso   1.00
C8     C     0.95575   0.64890   0.47374   0.00000  Uiso   1.00
C9     C     0.99448   0.69268   0.60944   0.00000  Uiso   1.00
C10    C     0.84395   0.56069   0.35211   0.00000  Uiso   1.00
C11    C     0.84188   0.51674   0.36482   0.00000  Uiso   1.00
C12    C     0.81015   0.50050   0.44583   0.00000  Uiso   1.00
C13    C     0.76461   0.45840   0.56532   0.00000  Uiso   1.00
C14    C     0.82341   0.63449   0.39002   0.00000  Uiso   1.00
C15    C     0.82138   0.63943   0.24052   0.00000  Uiso   1.00
C16    C     0.79472   0.66694   0.17227   0.00000  Uiso   1.00
C17    C     0.79770   0.66671   0.03563   0.00000  Uiso   1.00
C18    C     0.86961   0.64279   0.42843   0.00000  Uiso   1.00
C19    C     0.88351   0.67312   0.51819   0.00000  Uiso   1.00
C20    C     0.92709   0.67573   0.53975   0.00000  Uiso   1.00
C21    C     0.81533   0.58748   0.41800   0.00000  Uiso   1.00
C22    C     0.78360   0.57130   0.49902   0.00000  Uiso   1.00
C23    C     0.78149   0.52733   0.51183   0.00000  Uiso   1.00
H24    H     0.89836   0.56434   0.21743   0.00000  Uiso   1.00
H25    H     0.87515   0.59165   0.98712   0.00000  Uiso   1.00
H26    H     0.96393   0.59784   0.33299   0.00000  Uiso   1.00
H27    H     0.86403   0.49603   0.31382   0.00000  Uiso   1.00
H28    H     0.83681   0.63376   0.76083   0.00000  Uiso   1.00
H29    H     0.02400   0.64679   0.49015   0.00000  Uiso   1.00
H30    H     0.81335   0.43211   0.44973   0.00000  Uiso   1.00
H31    H     0.80113   0.65535   0.44132   0.00000  Uiso   1.00
H32    H     0.77258   0.68766   0.22329   0.00000  Uiso   1.00
H33    H     0.86136   0.69384   0.56916   0.00000  Uiso   1.00
H34    H     0.76147   0.59203   0.54999   0.00000  Uiso   1.00
H35    H     0.75357   0.71169   0.95251   0.00000  Uiso   1.00
H36    H     0.94075   0.72471   0.68185   0.00000  Uiso   1.00
H37    H     0.73010   0.51003   0.64142   0.00000  Uiso   1.00
O38    O     0.77817   0.69235   0.70920   0.00000  Uiso   1.00
O39    O     0.02375   0.70943   0.66607   0.00000  Uiso   1.00
O40    O     0.74739   0.42778   0.61302   0.00000  Uiso   1.00
N41    N     0.82113   0.64766   0.83586   0.00000  Uiso   1.00
N42    N     0.99614   0.65985   0.51772   0.00000  Uiso   1.00
N43    N     0.79921   0.45914   0.47996   0.00000  Uiso   1.00
N44    N     0.77634   0.68959   0.93901   0.00000  Uiso   1.00
N45    N     0.95135   0.70177   0.62087   0.00000  Uiso   1.00
N46    N     0.75441   0.50107   0.58310   0.00000  Uiso   1.00
C47    C     0.37608   0.08518   0.76872   0.00000  Uiso   1.00
C48    C     0.34999   0.11265   0.67463   0.00000  Uiso   1.00
C49    C     0.35300   0.11238   0.53807   0.00000  Uiso   1.00
C50    C     0.32636   0.13988   0.46963   0.00000  Uiso   1.00
C51    C     0.29021   0.17847   0.31351   0.00000  Uiso   1.00
C52    C     0.39822   0.11601   0.86254   0.00000  Uiso   1.00
C53    C     0.44179   0.11857   0.88398   0.00000  Uiso   1.00
C54    C     0.45575   0.14890   0.97374   0.00000  Uiso   1.00
C55    C     0.49448   0.19268   0.10944   0.00000  Uiso   1.00
C56    C     0.34395   0.06069   0.85211   0.00000  Uiso   1.00
C57    C     0.34188   0.01674   0.86482   0.00000  Uiso   1.00
C58    C     0.31015   0.00050   0.94583   0.00000  Uiso   1.00
C59    C     0.26461   0.95840   0.06532   0.00000  Uiso   1.00
C60    C     0.32341   0.13449   0.89002   0.00000  Uiso   1.00
C61    C     0.32138   0.13943   0.74052   0.00000  Uiso   1.00
C62    C     0.29472   0.16694   0.67227   0.00000  Uiso   1.00
C63    C     0.29770   0.16671   0.53563   0.00000  Uiso   1.00
C64    C     0.36961   0.14279   0.92843   0.00000  Uiso   1.00
C65    C     0.38351   0.17312   0.01819   0.00000  Uiso   1.00
C66    C     0.42709   0.17573   0.03975   0.00000  Uiso   1.00
C67    C     0.31533   0.08748   0.91800   0.00000  Uiso   1.00
C68    C     0.28360   0.07130   0.99902   0.00000  Uiso   1.00
C69    C     0.28149   0.02733   0.01183   0.00000  Uiso   1.00
H70    H     0.39836   0.06434   0.71743   0.00000  Uiso   1.00
H71    H     0.37515   0.09165   0.48712   0.00000  Uiso   1.00
H72    H     0.46393   0.09784   0.83299   0.00000  Uiso   1.00
H73    H     0.36403   0.99603   0.81382   0.00000  Uiso   1.00
H74    H     0.33681   0.13376   0.26083   0.00000  Uiso   1.00
H75    H     0.52400   0.14679   0.99015   0.00000  Uiso   1.00
H76    H     0.31335   0.93211   0.94973   0.00000  Uiso   1.00
H77    H     0.30113   0.15535   0.94132   0.00000  Uiso   1.00
H78    H     0.27258   0.18766   0.72329   0.00000  Uiso   1.00
H79    H     0.36136   0.19384   0.06916   0.00000  Uiso   1.00
H80    H     0.26147   0.09203   0.04999   0.00000  Uiso   1.00
H81    H     0.25357   0.21169   0.45251   0.00000  Uiso   1.00
H82    H     0.44075   0.22471   0.18185   0.00000  Uiso   1.00
H83    H     0.23010   0.01003   0.14142   0.00000  Uiso   1.00
O84    O     0.27817   0.19235   0.20920   0.00000  Uiso   1.00
O85    O     0.52375   0.20943   0.16607   0.00000  Uiso   1.00
O86    O     0.24739   0.92778   0.11302   0.00000  Uiso   1.00
N87    N     0.32113   0.14766   0.33586   0.00000  Uiso   1.00
N88    N     0.49614   0.15985   0.01772   0.00000  Uiso   1.00
N89    N     0.29921   0.95914   0.97996   0.00000  Uiso   1.00
N90    N     0.27634   0.18959   0.43901   0.00000  Uiso   1.00
N91    N     0.45135   0.20177   0.12087   0.00000  Uiso   1.00
N92    N     0.25441   0.00107   0.08310   0.00000  Uiso   1.00
C93    C     0.62392   0.91482   0.76872   0.00000  Uiso   1.00
C94    C     0.65001   0.88735   0.67463   0.00000  Uiso   1.00
C95    C     0.64700   0.88762   0.53807   0.00000  Uiso   1.00
C96    C     0.67364   0.86012   0.46963   0.00000  Uiso   1.00
C97    C     0.70979   0.82153   0.31351   0.00000  Uiso   1.00
C98    C     0.60178   0.88399   0.86254   0.00000  Uiso   1.00
C99    C     0.55821   0.88143   0.88398   0.00000  Uiso   1.00
C100   C     0.54425   0.85110   0.97374   0.00000  Uiso   1.00
C101   C     0.50552   0.80732   0.10944   0.00000  Uiso   1.00
C102   C     0.65605   0.93931   0.85211   0.00000  Uiso   1.00
C103   C     0.65812   0.98326   0.86482   0.00000  Uiso   1.00
C104   C     0.68985   0.99950   0.94583   0.00000  Uiso   1.00
C105   C     0.73539   0.04160   0.06532   0.00000  Uiso   1.00
C106   C     0.67659   0.86551   0.89002   0.00000  Uiso   1.00
C107   C     0.67862   0.86057   0.74052   0.00000  Uiso   1.00
C108   C     0.70528   0.83306   0.67227   0.00000  Uiso   1.00
C109   C     0.70230   0.83329   0.53563   0.00000  Uiso   1.00
C110   C     0.63039   0.85721   0.92843   0.00000  Uiso   1.00
C111   C     0.61649   0.82688   0.01819   0.00000  Uiso   1.00
C112   C     0.57291   0.82427   0.03975   0.00000  Uiso   1.00
C113   C     0.68467   0.91252   0.91800   0.00000  Uiso   1.00
C114   C     0.71640   0.92870   0.99902   0.00000  Uiso   1.00
C115   C     0.71851   0.97267   0.01183   0.00000  Uiso   1.00
H116   H     0.60164   0.93566   0.71743   0.00000  Uiso   1.00
H117   H     0.62485   0.90835   0.48712   0.00000  Uiso   1.00
H118   H     0.53607   0.90216   0.83299   0.00000  Uiso   1.00
H119   H     0.63597   0.00397   0.81382   0.00000  Uiso   1.00
H120   H     0.66319   0.86624   0.26083   0.00000  Uiso   1.00
H121   H     0.47600   0.85321   0.99015   0.00000  Uiso   1.00
H122   H     0.68665   0.06789   0.94973   0.00000  Uiso   1.00
H123   H     0.69887   0.84465   0.94132   0.00000  Uiso   1.00
H124   H     0.72742   0.81234   0.72329   0.00000  Uiso   1.00
H125   H     0.63864   0.80616   0.06916   0.00000  Uiso   1.00
H126   H     0.73853   0.90797   0.04999   0.00000  Uiso   1.00
H127   H     0.74643   0.78831   0.45251   0.00000  Uiso   1.00
H128   H     0.55925   0.77529   0.18185   0.00000  Uiso   1.00
H129   H     0.76990   0.98997   0.14142   0.00000  Uiso   1.00
O130   O     0.72183   0.80765   0.20920   0.00000  Uiso   1.00
O131   O     0.47625   0.79057   0.16607   0.00000  Uiso   1.00
O132   O     0.75261   0.07222   0.11302   0.00000  Uiso   1.00
N133   N     0.67887   0.85234   0.33586   0.00000  Uiso   1.00
N134   N     0.50386   0.84015   0.01772   0.00000  Uiso   1.00
N135   N     0.70079   0.04086   0.97996   0.00000  Uiso   1.00
N136   N     0.72366   0.81041   0.43901   0.00000  Uiso   1.00
N137   N     0.54865   0.79823   0.12087   0.00000  Uiso   1.00
N138   N     0.74559   0.99893   0.08310   0.00000  Uiso   1.00
C139   C     0.12392   0.41482   0.26872   0.00000  Uiso   1.00
C140   C     0.15001   0.38735   0.17463   0.00000  Uiso   1.00
C141   C     0.14700   0.38762   0.03807   0.00000  Uiso   1.00
C142   C     0.17364   0.36012   0.96963   0.00000  Uiso   1.00
C143   C     0.20979   0.32153   0.81351   0.00000  Uiso   1.00
C144   C     0.10178   0.38399   0.36254   0.00000  Uiso   1.00
C145   C     0.05821   0.38143   0.38398   0.00000  Uiso   1.00
C146   C     0.04425   0.35110   0.47374   0.00000  Uiso   1.00
C147   C     0.00552   0.30732   0.60944   0.00000  Uiso   1.00
C148   C     0.15605   0.43931   0.35211   0.00000  Uiso   1.00
C149   C     0.15812   0.48326   0.36482   0.00000  Uiso   1.00
C150   C     0.18985   0.49950   0.44583   0.00000  Uiso   1.00
C151   C     0.23539   0.54160   0.56532   0.00000  Uiso   1.00
C152   C     0.17659   0.36551   0.39002   0.00000  Uiso   1.00
C153   C     0.17862   0.36057   0.24052   0.00000  Uiso   1.00
C154   C     0.20528   0.33306   0.17227   0.00000  Uiso   1.00
C155   C     0.20230   0.33329   0.03563   0.00000  Uiso   1.00
C156   C     0.13039   0.35721   0.42843   0.00000  Uiso   1.00
C157   C     0.11649   0.32688   0.51819   0.00000  Uiso   1.00
C158   C     0.07291   0.32427   0.53975   0.00000  Uiso   1.00
C159   C     0.18467   0.41252   0.41800   0.00000  Uiso   1.00
C160   C     0.21640   0.42870   0.49902   0.00000  Uiso   1.00
C161   C     0.21851   0.47267   0.51183   0.00000  Uiso   1.00
H162   H     0.10164   0.43566   0.21743   0.00000  Uiso   1.00
H163   H     0.12485   0.40835   0.98712   0.00000  Uiso   1.00
H164   H     0.03607   0.40216   0.33299   0.00000  Uiso   1.00
H165   H     0.13597   0.50397   0.31382   0.00000  Uiso   1.00
H166   H     0.16319   0.36624   0.76083   0.00000  Uiso   1.00
H167   H     0.97600   0.35321   0.49015   0.00000  Uiso   1.00
H168   H     0.18665   0.56789   0.44973   0.00000  Uiso   1.00
H169   H     0.19887   0.34465   0.44132   0.00000  Uiso   1.00
H170   H     0.22742   0.31234   0.22329   0.00000  Uiso   1.00
H171   H     0.13864   0.30616   0.56916   0.00000  Uiso   1.00
H172   H     0.23853   0.40797   0.54999   0.00000  Uiso   1.00
H173   H     0.24643   0.28831   0.95251   0.00000  Uiso   1.00
H174   H     0.05925   0.27529   0.68185   0.00000  Uiso   1.00
H175   H     0.26990   0.48997   0.64142   0.00000  Uiso   1.00
O176   O     0.22183   0.30765   0.70920   0.00000  Uiso   1.00
O177   O     0.97625   0.29057   0.66607   0.00000  Uiso   1.00
O178   O     0.25261   0.57222   0.61302   0.00000  Uiso   1.00
N179   N     0.17887   0.35234   0.83586   0.00000  Uiso   1.00
N180   N     0.00386   0.34015   0.51772   0.00000  Uiso   1.00
N181   N     0.20079   0.54086   0.47996   0.00000  Uiso   1.00
N182   N     0.22366   0.31041   0.93901   0.00000  Uiso   1.00
N183   N     0.04865   0.29823   0.62087   0.00000  Uiso   1.00
N184   N     0.24559   0.49893   0.58310   0.00000  Uiso   1.00
C185   C     0.41482   0.37608   0.51872   0.00000  Uiso   1.00
C186   C     0.38735   0.34999   0.42463   0.00000  Uiso   1.00
C187   C     0.38762   0.35300   0.28807   0.00000  Uiso   1.00
C188   C     0.36012   0.32636   0.21963   0.00000  Uiso   1.00
C189   C     0.32153   0.29021   0.06351   0.00000  Uiso   1.00
C190   C     0.38399   0.39822   0.61254   0.00000  Uiso   1.00
C191   C     0.38143   0.44179   0.63398   0.00000  Uiso   1.00
C192   C     0.35110   0.45575   0.72374   0.00000  Uiso   1.00
C193   C     0.30732   0.49448   0.85944   0.00000  Uiso   1.00
C194   C     0.43931   0.34395   0.60211   0.00000  Uiso   1.00
C195   C     0.48326   0.34188   0.61482   0.00000  Uiso   1.00
C196   C     0.49950   0.31015   0.69583   0.00000  Uiso   1.00
C197   C     0.54160   0.26461   0.81532   0.00000  Uiso   1.00
C198   C     0.36551   0.32341   0.64002   0.00000  Uiso   1.00
C199   C     0.36057   0.32138   0.49052   0.00000  Uiso   1.00
C200   C     0.33306   0.29472   0.42227   0.00000  Uiso   1.00
C201   C     0.33329   0.29770   0.28563   0.00000  Uiso   1.00
C202   C     0.35721   0.36961   0.67843   0.00000  Uiso   1.00
C203   C     0.32688   0.38351   0.76819   0.00000  Uiso   1.00
C204   C     0.32427   0.42709   0.78975   0.00000  Uiso   1.00
C205   C     0.41252   0.31533   0.66800   0.00000  Uiso   1.00
C206   C     0.42870   0.28360   0.74902   0.00000  Uiso   1.00
C207   C     0.47267   0.28149   0.76183   0.00000  Uiso   1.00
H208   H     0.43566   0.39836   0.46743   0.00000  Uiso   1.00
H209   H     0.40835   0.37515   0.23712   0.00000  Uiso   1.00
H210   H     0.40216   0.46393   0.58299   0.00000  Uiso   1.00
H211   H     0.50397   0.36403   0.56382   0.00000  Uiso   1.00
H212   H     0.36624   0.33681   0.01083   0.00000  Uiso   1.00
H213   H     0.35321   0.52400   0.74015   0.00000  Uiso   1.00
H214   H     0.56789   0.31335   0.69973   0.00000  Uiso   1.00
H215   H     0.34465   0.30113   0.69132   0.00000  Uiso   1.00
H216   H     0.31234   0.27258   0.47329   0.00000  Uiso   1.00
H217   H     0.30616   0.36136   0.81916   0.00000  Uiso   1.00
H218   H     0.40797   0.26147   0.79999   0.00000  Uiso   1.00
H219   H     0.28831   0.25357   0.20251   0.00000  Uiso   1.00
H220   H     0.27529   0.44075   0.93185   0.00000  Uiso   1.00
H221   H     0.48997   0.23010   0.89142   0.00000  Uiso   1.00
O222   O     0.30765   0.27817   0.95920   0.00000  Uiso   1.00
O223   O     0.29057   0.52375   0.91607   0.00000  Uiso   1.00
O224   O     0.57222   0.24739   0.86302   0.00000  Uiso   1.00
N225   N     0.35234   0.32113   0.08586   0.00000  Uiso   1.00
N226   N     0.34015   0.49614   0.76772   0.00000  Uiso   1.00
N227   N     0.54086   0.29921   0.72996   0.00000  Uiso   1.00
N228   N     0.31041   0.27634   0.18901   0.00000  Uiso   1.00
N229   N     0.29823   0.45135   0.87087   0.00000  Uiso   1.00
N230   N     0.49893   0.25441   0.83310   0.00000  Uiso   1.00
C231   C     0.91482   0.87608   0.01872   0.00000  Uiso   1.00
C232   C     0.88735   0.84999   0.92463   0.00000  Uiso   1.00
C233   C     0.88762   0.85300   0.78807   0.00000  Uiso   1.00
C234   C     0.86012   0.82636   0.71963   0.00000  Uiso   1.00
C235   C     0.82153   0.79021   0.56351   0.00000  Uiso   1.00
C236   C     0.88399   0.89822   0.11254   0.00000  Uiso   1.00
C237   C     0.88143   0.94179   0.13398   0.00000  Uiso   1.00
C238   C     0.85110   0.95575   0.22374   0.00000  Uiso   1.00
C239   C     0.80732   0.99448   0.35944   0.00000  Uiso   1.00
C240   C     0.93931   0.84395   0.10211   0.00000  Uiso   1.00
C241   C     0.98326   0.84188   0.11482   0.00000  Uiso   1.00
C242   C     0.99950   0.81015   0.19583   0.00000  Uiso   1.00
C243   C     0.04160   0.76461   0.31532   0.00000  Uiso   1.00
C244   C     0.86551   0.82341   0.14002   0.00000  Uiso   1.00
C245   C     0.86057   0.82138   0.99052   0.00000  Uiso   1.00
C246   C     0.83306   0.79472   0.92227   0.00000  Uiso   1.00
C247   C     0.83329   0.79770   0.78563   0.00000  Uiso   1.00
C248   C     0.85721   0.86961   0.17843   0.00000  Uiso   1.00
C249   C     0.82688   0.88351   0.26819   0.00000  Uiso   1.00
C250   C     0.82427   0.92709   0.28975   0.00000  Uiso   1.00
C251   C     0.91252   0.81533   0.16800   0.00000  Uiso   1.00
C252   C     0.92870   0.78360   0.24902   0.00000  Uiso   1.00
C253   C     0.97267   0.78149   0.26183   0.00000  Uiso   1.00
H254   H     0.93566   0.89836   0.96743   0.00000  Uiso   1.00
H255   H     0.90835   0.87515   0.73712   0.00000  Uiso   1.00
H256   H     0.90216   0.96393   0.08299   0.00000  Uiso   1.00
H257   H     0.00397   0.86403   0.06382   0.00000  Uiso   1.00
H258   H     0.86624   0.83681   0.51083   0.00000  Uiso   1.00
H259   H     0.85321   0.02400   0.24015   0.00000  Uiso   1.00
H260   H     0.06789   0.81335   0.19973   0.00000  Uiso   1.00
H261   H     0.84465   0.80113   0.19132   0.00000  Uiso   1.00
H262   H     0.81234   0.77258   0.97329   0.00000  Uiso   1.00
H263   H     0.80616   0.86136   0.31916   0.00000  Uiso   1.00
H264   H     0.90797   0.76147   0.29999   0.00000  Uiso   1.00
H265   H     0.78831   0.75357   0.70251   0.00000  Uiso   1.00
H266   H     0.77529   0.94075   0.43185   0.00000  Uiso   1.00
H267   H     0.98997   0.73010   0.39142   0.00000  Uiso   1.00
O268   O     0.80765   0.77817   0.45920   0.00000  Uiso   1.00
O269   O     0.79057   0.02375   0.41607   0.00000  Uiso   1.00
O270   O     0.07222   0.74739   0.36302   0.00000  Uiso   1.00
N271   N     0.85234   0.82113   0.58586   0.00000  Uiso   1.00
N272   N     0.84015   0.99614   0.26772   0.00000  Uiso   1.00
N273   N     0.04086   0.79921   0.22996   0.00000  Uiso   1.00
N274   N     0.81041   0.77634   0.68901   0.00000  Uiso   1.00
N275   N     0.79823   0.95135   0.37087   0.00000  Uiso   1.00
N276   N     0.99893   0.75441   0.33310   0.00000  Uiso   1.00
C277   C     0.08518   0.12392   0.01872   0.00000  Uiso   1.00
C278   C     0.11265   0.15001   0.92463   0.00000  Uiso   1.00
C279   C     0.11238   0.14700   0.78807   0.00000  Uiso   1.00
C280   C     0.13988   0.17364   0.71963   0.00000  Uiso   1.00
C281   C     0.17847   0.20979   0.56351   0.00000  Uiso   1.00
C282   C     0.11601   0.10178   0.11254   0.00000  Uiso   1.00
C283   C     0.11857   0.05821   0.13398   0.00000  Uiso   1.00
C284   C     0.14890   0.04425   0.22374   0.00000  Uiso   1.00
C285   C     0.19268   0.00552   0.35944   0.00000  Uiso   1.00
C286   C     0.06069   0.15605   0.10211   0.00000  Uiso   1.00
C287   C     0.01674   0.15812   0.11482   0.00000  Uiso   1.00
C288   C     0.00050   0.18985   0.19583   0.00000  Uiso   1.00
C289   C     0.95840   0.23539   0.31532   0.00000  Uiso   1.00
C290   C     0.13449   0.17659   0.14002   0.00000  Uiso   1.00
C291   C     0.13943   0.17862   0.99052   0.00000  Uiso   1.00
C292   C     0.16694   0.20528   0.92227   0.00000  Uiso   1.00
C293   C     0.16671   0.20230   0.78563   0.00000  Uiso   1.00
C294   C     0.14279   0.13039   0.17843   0.00000  Uiso   1.00
C295   C     0.17312   0.11649   0.26819   0.00000  Uiso   1.00
C296   C     0.17573   0.07291   0.28975   0.00000  Uiso   1.00
C297   C     0.08748   0.18467   0.16800   0.00000  Uiso   1.00
C298   C     0.07130   0.21640   0.24902   0.00000  Uiso   1.00
C299   C     0.02733   0.21851   0.26183   0.00000  Uiso   1.00
H300   H     0.06434   0.10164   0.96743   0.00000  Uiso   1.00
H301   H     0.09165   0.12485   0.73712   0.00000  Uiso   1.00
H302   H     0.09784   0.03607   0.08299   0.00000  Uiso   1.00
H303   H     0.99603   0.13597   0.06382   0.00000  Uiso   1.00
H304   H     0.13376   0.16319   0.51083   0.00000  Uiso   1.00
H305   H     0.14679   0.97600   0.24015   0.00000  Uiso   1.00
H306   H     0.93211   0.18665   0.19973   0.00000  Uiso   1.00
H307   H     0.15535   0.19887   0.19132   0.00000  Uiso   1.00
H308   H     0.18766   0.22742   0.97329   0.00000  Uiso   1.00
H309   H     0.19384   0.13864   0.31916   0.00000  Uiso   1.00
H310   H     0.09203   0.23853   0.29999   0.00000  Uiso   1.00
H311   H     0.21169   0.24643   0.70251   0.00000  Uiso   1.00
H312   H     0.22471   0.05925   0.43185   0.00000  Uiso   1.00
H313   H     0.01003   0.26990   0.39142   0.00000  Uiso   1.00
O314   O     0.19235   0.22183   0.45920   0.00000  Uiso   1.00
O315   O     0.20943   0.97625   0.41607   0.00000  Uiso   1.00
O316   O     0.92778   0.25261   0.36302   0.00000  Uiso   1.00
N317   N     0.14766   0.17887   0.58586   0.00000  Uiso   1.00
N318   N     0.15985   0.00386   0.26772   0.00000  Uiso   1.00
N319   N     0.95914   0.20079   0.22996   0.00000  Uiso   1.00
N320   N     0.18959   0.22366   0.68901   0.00000  Uiso   1.00
N321   N     0.20177   0.04865   0.37087   0.00000  Uiso   1.00
N322   N     0.00107   0.24559   0.33310   0.00000  Uiso   1.00
C323   C     0.58518   0.62392   0.51872   0.00000  Uiso   1.00
C324   C     0.61265   0.65001   0.42463   0.00000  Uiso   1.00
C325   C     0.61238   0.64700   0.28807   0.00000  Uiso   1.00
C326   C     0.63988   0.67364   0.21963   0.00000  Uiso   1.00
C327   C     0.67847   0.70979   0.06351   0.00000  Uiso   1.00
C328   C     0.61601   0.60178   0.61254   0.00000  Uiso   1.00
C329   C     0.61857   0.55821   0.63398   0.00000  Uiso   1.00
C330   C     0.64890   0.54425   0.72374   0.00000  Uiso   1.00
C331   C     0.69268   0.50552   0.85944   0.00000  Uiso   1.00
C332   C     0.56069   0.65605   0.60211   0.00000  Uiso   1.00
C333   C     0.51674   0.65812   0.61482   0.00000  Uiso   1.00
C334   C     0.50050   0.68985   0.69583   0.00000  Uiso   1.00
C335   C     0.45840   0.73539   0.81532   0.00000  Uiso   1.00
C336   C     0.63449   0.67659   0.64002   0.00000  Uiso   1.00
C337   C     0.63943   0.67862   0.49052   0.00000  Uiso   1.00
C338   C     0.66694   0.70528   0.42227   0.00000  Uiso   1.00
C339   C     0.66671   0.70230   0.28563   0.00000  Uiso   1.00
C340   C     0.64279   0.63039   0.67843   0.00000  Uiso   1.00
C341   C     0.67312   0.61649   0.76819   0.00000  Uiso   1.00
C342   C     0.67573   0.57291   0.78975   0.00000  Uiso   1.00
C343   C     0.58748   0.68467   0.66800   0.00000  Uiso   1.00
C344   C     0.57130   0.71640   0.74902   0.00000  Uiso   1.00
C345   C     0.52733   0.71851   0.76183   0.00000  Uiso   1.00
H346   H     0.56434   0.60164   0.46743   0.00000  Uiso   1.00
H347   H     0.59165   0.62485   0.23712   0.00000  Uiso   1.00
H348   H     0.59784   0.53607   0.58299   0.00000  Uiso   1.00
H349   H     0.49603   0.63597   0.56382   0.00000  Uiso   1.00
H350   H     0.63376   0.66319   0.01083   0.00000  Uiso   1.00
H351   H     0.64679   0.47600   0.74015   0.00000  Uiso   1.00
H352   H     0.43211   0.68665   0.69973   0.00000  Uiso   1.00
H353   H     0.65535   0.69887   0.69132   0.00000  Uiso   1.00
H354   H     0.68766   0.72742   0.47329   0.00000  Uiso   1.00
H355   H     0.69384   0.63864   0.81916   0.00000  Uiso   1.00
H356   H     0.59203   0.73853   0.79999   0.00000  Uiso   1.00
H357   H     0.71169   0.74643   0.20251   0.00000  Uiso   1.00
H358   H     0.72471   0.55925   0.93185   0.00000  Uiso   1.00
H359   H     0.51003   0.76990   0.89142   0.00000  Uiso   1.00
O360   O     0.69235   0.72183   0.95920   0.00000  Uiso   1.00
O361   O     0.70943   0.47625   0.91607   0.00000  Uiso   1.00
O362   O     0.42778   0.75261   0.86302   0.00000  Uiso   1.00
N363   N     0.64766   0.67887   0.08586   0.00000  Uiso   1.00
N364   N     0.65985   0.50386   0.76772   0.00000  Uiso   1.00
N365   N     0.45914   0.70079   0.72996   0.00000  Uiso   1.00
N366   N     0.68959   0.72366   0.18901   0.00000  Uiso   1.00
N367   N     0.70177   0.54865   0.87087   0.00000  Uiso   1.00
N368   N     0.50107   0.74559   0.83310   0.00000  Uiso   1.00
C369   C     0.12392   0.91482   0.98128   0.00000  Uiso   1.00
C370   C     0.15001   0.88735   0.07537   0.00000  Uiso   1.00
C371   C     0.14700   0.88762   0.21193   0.00000  Uiso   1.00
C372   C     0.17364   0.86012   0.28037   0.00000  Uiso   1.00
C373   C     0.20979   0.82153   0.43649   0.00000  Uiso   1.00
C374   C     0.10178   0.88399   0.88746   0.00000  Uiso   1.00
C375   C     0.05821   0.88143   0.86602   0.00000  Uiso   1.00
C376   C     0.04425   0.85110   0.77626   0.00000  Uiso   1.00
C377   C     0.00552   0.80732   0.64056   0.00000  Uiso   1.00
C378   C     0.15605   0.93931   0.89789   0.00000  Uiso   1.00
C379   C     0.15812   0.98326   0.88518   0.00000  Uiso   1.00
C380   C     0.18985   0.99950   0.80417   0.00000  Uiso   1.00
C381   C     0.23539   0.04160   0.68468   0.00000  Uiso   1.00
C382   C     0.17659   0.86551   0.85998   0.00000  Uiso   1.00
C383   C     0.17862   0.86057   0.00948   0.00000  Uiso   1.00
C384   C     0.20528   0.83306   0.07773   0.00000  Uiso   1.00
C385   C     0.20230   0.83329   0.21437   0.00000  Uiso   1.00
C386   C     0.13039   0.85721   0.82157   0.00000  Uiso   1.00
C387   C     0.11649   0.82688   0.73181   0.00000  Uiso   1.00
C388   C     0.07291   0.82427   0.71025   0.00000  Uiso   1.00
C389   C     0.18467   0.91252   0.83200   0.00000  Uiso   1.00
C390   C     0.21640   0.92870   0.75098   0.00000  Uiso   1.00
C391   C     0.21851   0.97267   0.73817   0.00000  Uiso   1.00
H392   H     0.10164   0.93566   0.03257   0.00000  Uiso   1.00
H393   H     0.12485   0.90835   0.26288   0.00000  Uiso   1.00
H394   H     0.03607   0.90216   0.91701   0.00000  Uiso   1.00
H395   H     0.13597   0.00397   0.93618   0.00000  Uiso   1.00
H396   H     0.16319   0.86624   0.48917   0.00000  Uiso   1.00
H397   H     0.97600   0.85321   0.75985   0.00000  Uiso   1.00
H398   H     0.18665   0.06789   0.80027   0.00000  Uiso   1.00
H399   H     0.19887   0.84465   0.80868   0.00000  Uiso   1.00
H400   H     0.22742   0.81234   0.02671   0.00000  Uiso   1.00
H401   H     0.13864   0.80616   0.68084   0.00000  Uiso   1.00
H402   H     0.23853   0.90797   0.70001   0.00000  Uiso   1.00
H403   H     0.24643   0.78831   0.29749   0.00000  Uiso   1.00
H404   H     0.05925   0.77529   0.56815   0.00000  Uiso   1.00
H405   H     0.26990   0.98997   0.60858   0.00000  Uiso   1.00
O406   O     0.22183   0.80765   0.54080   0.00000  Uiso   1.00
O407   O     0.97625   0.79057   0.58393   0.00000  Uiso   1.00
O408   O     0.25261   0.07222   0.63698   0.00000  Uiso   1.00
N409   N     0.17887   0.85234   0.41414   0.00000  Uiso   1.00
N410   N     0.00386   0.84015   0.73228   0.00000  Uiso   1.00
N411   N     0.20079   0.04086   0.77004   0.00000  Uiso   1.00
N412   N     0.22366   0.81041   0.31099   0.00000  Uiso   1.00
N413   N     0.04865   0.79823   0.62913   0.00000  Uiso   1.00
N414   N     0.24559   0.99893   0.66690   0.00000  Uiso   1.00
C415   C     0.62392   0.41482   0.48128   0.00000  Uiso   1.00
C416   C     0.65001   0.38735   0.57537   0.00000  Uiso   1.00
C417   C     0.64700   0.38762   0.71193   0.00000  Uiso   1.00
C418   C     0.67364   0.36012   0.78037   0.00000  Uiso   1.00
C419   C     0.70979   0.32153   0.93649   0.00000  Uiso   1.00
C420   C     0.60178   0.38399   0.38746   0.00000  Uiso   1.00
C421   C     0.55821   0.38143   0.36602   0.00000  Uiso   1.00
C422   C     0.54425   0.35110   0.27626   0.00000  Uiso   1.00
C423   C     0.50552   0.30732   0.14056   0.00000  Uiso   1.00
C424   C     0.65605   0.43931   0.39789   0.00000  Uiso   1.00
C425   C     0.65812   0.48326   0.38518   0.00000  Uiso   1.00
C426   C     0.68985   0.49950   0.30417   0.00000  Uiso   1.00
C427   C     0.73539   0.54160   0.18468   0.00000  Uiso   1.00
C428   C     0.67659   0.36551   0.35998   0.00000  Uiso   1.00
C429   C     0.67862   0.36057   0.50948   0.00000  Uiso   1.00
C430   C     0.70528   0.33306   0.57773   0.00000  Uiso   1.00
C431   C     0.70230   0.33329   0.71437   0.00000  Uiso   1.00
C432   C     0.63039   0.35721   0.32157   0.00000  Uiso   1.00
C433   C     0.61649   0.32688   0.23181   0.00000  Uiso   1.00
C434   C     0.57291   0.32427   0.21025   0.00000  Uiso   1.00
C435   C     0.68467   0.41252   0.33200   0.00000  Uiso   1.00
C436   C     0.71640   0.42870   0.25098   0.00000  Uiso   1.00
C437   C     0.71851   0.47267   0.23817   0.00000  Uiso   1.00
H438   H     0.60164   0.43566   0.53257   0.00000  Uiso   1.00
H439   H     0.62485   0.40835   0.76288   0.00000  Uiso   1.00
H440   H     0.53607   0.40216   0.41701   0.00000  Uiso   1.00
H441   H     0.63597   0.50397   0.43618   0.00000  Uiso   1.00
H442   H     0.66319   0.36624   0.98917   0.00000  Uiso   1.00
H443   H     0.47600   0.35321   0.25985   0.00000  Uiso   1.00
H444   H     0.68665   0.56789   0.30027   0.00000  Uiso   1.00
H445   H     0.69887   0.34465   0.30868   0.00000  Uiso   1.00
H446   H     0.72742   0.31234   0.52671   0.00000  Uiso   1.00
H447   H     0.63864   0.30616   0.18084   0.00000  Uiso   1.00
H448   H     0.73853   0.40797   0.20001   0.00000  Uiso   1.00
H449   H     0.74643   0.28831   0.79749   0.00000  Uiso   1.00
H450   H     0.55925   0.27529   0.06815   0.00000  Uiso   1.00
H451   H     0.76990   0.48997   0.10858   0.00000  Uiso   1.00
O452   O     0.72183   0.30765   0.04080   0.00000  Uiso   1.00
O453   O     0.47625   0.29057   0.08393   0.00000  Uiso   1.00
O454   O     0.75261   0.57222   0.13698   0.00000  Uiso   1.00
N455   N     0.67887   0.35234   0.91414   0.00000  Uiso   1.00
N456   N     0.50386   0.34015   0.23228   0.00000  Uiso   1.00
N457   N     0.70079   0.54086   0.27004   0.00000  Uiso   1.00
N458   N     0.72366   0.31041   0.81099   0.00000  Uiso   1.00
N459   N     0.54865   0.29823   0.12913   0.00000  Uiso   1.00
N460   N     0.74559   0.49893   0.16690   0.00000  Uiso   1.00
C461   C     0.37608   0.58518   0.48128   0.00000  Uiso   1.00
C462   C     0.34999   0.61265   0.57537   0.00000  Uiso   1.00
C463   C     0.35300   0.61238   0.71193   0.00000  Uiso   1.00
C464   C     0.32636   0.63988   0.78037   0.00000  Uiso   1.00
C465   C     0.29021   0.67847   0.93649   0.00000  Uiso   1.00
C466   C     0.39822   0.61601   0.38746   0.00000  Uiso   1.00
C467   C     0.44179   0.61857   0.36602   0.00000  Uiso   1.00
C468   C     0.45575   0.64890   0.27626   0.00000  Uiso   1.00
C469   C     0.49448   0.69268   0.14056   0.00000  Uiso   1.00
C470   C     0.34395   0.56069   0.39789   0.00000  Uiso   1.00
C471   C     0.34188   0.51674   0.38518   0.00000  Uiso   1.00
C472   C     0.31015   0.50050   0.30417   0.00000  Uiso   1.00
C473   C     0.26461   0.45840   0.18468   0.00000  Uiso   1.00
C474   C     0.32341   0.63449   0.35998   0.00000  Uiso   1.00
C475   C     0.32138   0.63943   0.50948   0.00000  Uiso   1.00
C476   C     0.29472   0.66694   0.57773   0.00000  Uiso   1.00
C477   C     0.29770   0.66671   0.71437   0.00000  Uiso   1.00
C478   C     0.36961   0.64279   0.32157   0.00000  Uiso   1.00
C479   C     0.38351   0.67312   0.23181   0.00000  Uiso   1.00
C480   C     0.42709   0.67573   0.21025   0.00000  Uiso   1.00
C481   C     0.31533   0.58748   0.33200   0.00000  Uiso   1.00
C482   C     0.28360   0.57130   0.25098   0.00000  Uiso   1.00
C483   C     0.28149   0.52733   0.23817   0.00000  Uiso   1.00
H484   H     0.39836   0.56434   0.53257   0.00000  Uiso   1.00
H485   H     0.37515   0.59165   0.76288   0.00000  Uiso   1.00
H486   H     0.46393   0.59784   0.41701   0.00000  Uiso   1.00
H487   H     0.36403   0.49603   0.43618   0.00000  Uiso   1.00
H488   H     0.33681   0.63376   0.98917   0.00000  Uiso   1.00
H489   H     0.52400   0.64679   0.25985   0.00000  Uiso   1.00
H490   H     0.31335   0.43211   0.30027   0.00000  Uiso   1.00
H491   H     0.30113   0.65535   0.30868   0.00000  Uiso   1.00
H492   H     0.27258   0.68766   0.52671   0.00000  Uiso   1.00
H493   H     0.36136   0.69384   0.18084   0.00000  Uiso   1.00
H494   H     0.26147   0.59203   0.20001   0.00000  Uiso   1.00
H495   H     0.25357   0.71169   0.79749   0.00000  Uiso   1.00
H496   H     0.44075   0.72471   0.06815   0.00000  Uiso   1.00
H497   H     0.23010   0.51003   0.10858   0.00000  Uiso   1.00
O498   O     0.27817   0.69235   0.04080   0.00000  Uiso   1.00
O499   O     0.52375   0.70943   0.08393   0.00000  Uiso   1.00
O500   O     0.24739   0.42778   0.13698   0.00000  Uiso   1.00
N501   N     0.32113   0.64766   0.91414   0.00000  Uiso   1.00
N502   N     0.49614   0.65985   0.23228   0.00000  Uiso   1.00
N503   N     0.29921   0.45914   0.27004   0.00000  Uiso   1.00
N504   N     0.27634   0.68959   0.81099   0.00000  Uiso   1.00
N505   N     0.45135   0.70177   0.12913   0.00000  Uiso   1.00
N506   N     0.25441   0.50107   0.16690   0.00000  Uiso   1.00
C507   C     0.87608   0.08518   0.98128   0.00000  Uiso   1.00
C508   C     0.84999   0.11265   0.07537   0.00000  Uiso   1.00
C509   C     0.85300   0.11238   0.21193   0.00000  Uiso   1.00
C510   C     0.82636   0.13988   0.28037   0.00000  Uiso   1.00
C511   C     0.79021   0.17847   0.43649   0.00000  Uiso   1.00
C512   C     0.89822   0.11601   0.88746   0.00000  Uiso   1.00
C513   C     0.94179   0.11857   0.86602   0.00000  Uiso   1.00
C514   C     0.95575   0.14890   0.77626   0.00000  Uiso   1.00
C515   C     0.99448   0.19268   0.64056   0.00000  Uiso   1.00
C516   C     0.84395   0.06069   0.89789   0.00000  Uiso   1.00
C517   C     0.84188   0.01674   0.88518   0.00000  Uiso   1.00
C518   C     0.81015   0.00050   0.80417   0.00000  Uiso   1.00
C519   C     0.76461   0.95840   0.68468   0.00000  Uiso   1.00
C520   C     0.82341   0.13449   0.85998   0.00000  Uiso   1.00
C521   C     0.82138   0.13943   0.00948   0.00000  Uiso   1.00
C522   C     0.79472   0.16694   0.07773   0.00000  Uiso   1.00
C523   C     0.79770   0.16671   0.21437   0.00000  Uiso   1.00
C524   C     0.86961   0.14279   0.82157   0.00000  Uiso   1.00
C525   C     0.88351   0.17312   0.73181   0.00000  Uiso   1.00
C526   C     0.92709   0.17573   0.71025   0.00000  Uiso   1.00
C527   C     0.81533   0.08748   0.83200   0.00000  Uiso   1.00
C528   C     0.78360   0.07130   0.75098   0.00000  Uiso   1.00
C529   C     0.78149   0.02733   0.73817   0.00000  Uiso   1.00
H530   H     0.89836   0.06434   0.03257   0.00000  Uiso   1.00
H531   H     0.87515   0.09165   0.26288   0.00000  Uiso   1.00
H532   H     0.96393   0.09784   0.91701   0.00000  Uiso   1.00
H533   H     0.86403   0.99603   0.93618   0.00000  Uiso   1.00
H534   H     0.83681   0.13376   0.48917   0.00000  Uiso   1.00
H535   H     0.02400   0.14679   0.75985   0.00000  Uiso   1.00
H536   H     0.81335   0.93211   0.80027   0.00000  Uiso   1.00
H537   H     0.80113   0.15535   0.80868   0.00000  Uiso   1.00
H538   H     0.77258   0.18766   0.02671   0.00000  Uiso   1.00
H539   H     0.86136   0.19384   0.68084   0.00000  Uiso   1.00
H540   H     0.76147   0.09203   0.70001   0.00000  Uiso   1.00
H541   H     0.75357   0.21169   0.29749   0.00000  Uiso   1.00
H542   H     0.94075   0.22471   0.56815   0.00000  Uiso   1.00
H543   H     0.73010   0.01003   0.60858   0.00000  Uiso   1.00
O544   O     0.77817   0.19235   0.54080   0.00000  Uiso   1.00
O545   O     0.02375   0.20943   0.58393   0.00000  Uiso   1.00
O546   O     0.74739   0.92778   0.63698   0.00000  Uiso   1.00
N547   N     0.82113   0.14766   0.41414   0.00000  Uiso   1.00
N548   N     0.99614   0.15985   0.73228   0.00000  Uiso   1.00
N549   N     0.79921   0.95914   0.77004   0.00000  Uiso   1.00
N550   N     0.77634   0.18959   0.31099   0.00000  Uiso   1.00
N551   N     0.95135   0.20177   0.62913   0.00000  Uiso   1.00
N552   N     0.75441   0.00107   0.66690   0.00000  Uiso   1.00
C553   C     0.58518   0.12392   0.73128   0.00000  Uiso   1.00
C554   C     0.61265   0.15001   0.82537   0.00000  Uiso   1.00
C555   C     0.61238   0.14700   0.96193   0.00000  Uiso   1.00
C556   C     0.63988   0.17364   0.03037   0.00000  Uiso   1.00
C557   C     0.67847   0.20979   0.18649   0.00000  Uiso   1.00
C558   C     0.61601   0.10178   0.63746   0.00000  Uiso   1.00
C559   C     0.61857   0.05821   0.61602   0.00000  Uiso   1.00
C560   C     0.64890   0.04425   0.52626   0.00000  Uiso   1.00
C561   C     0.69268   0.00552   0.39056   0.00000  Uiso   1.00
C562   C     0.56069   0.15605   0.64789   0.00000  Uiso   1.00
C563   C     0.51674   0.15812   0.63518   0.00000  Uiso   1.00
C564   C     0.50050   0.18985   0.55417   0.00000  Uiso   1.00
C565   C     0.45840   0.23539   0.43468   0.00000  Uiso   1.00
C566   C     0.63449   0.17659   0.60998   0.00000  Uiso   1.00
C567   C     0.63943   0.17862   0.75948   0.00000  Uiso   1.00
C568   C     0.66694   0.20528   0.82773   0.00000  Uiso   1.00
C569   C     0.66671   0.20230   0.96437   0.00000  Uiso   1.00
C570   C     0.64279   0.13039   0.57157   0.00000  Uiso   1.00
C571   C     0.67312   0.11649   0.48181   0.00000  Uiso   1.00
C572   C     0.67573   0.07291   0.46025   0.00000  Uiso   1.00
C573   C     0.58748   0.18467   0.58200   0.00000  Uiso   1.00
C574   C     0.57130   0.21640   0.50098   0.00000  Uiso   1.00
C575   C     0.52733   0.21851   0.48817   0.00000  Uiso   1.00
H576   H     0.56434   0.10164   0.78257   0.00000  Uiso   1.00
H577   H     0.59165   0.12485   0.01288   0.00000  Uiso   1.00
H578   H     0.59784   0.03607   0.66701   0.00000  Uiso   1.00
H579   H     0.49603   0.13597   0.68618   0.00000  Uiso   1.00
H580   H     0.63376   0.16319   0.23917   0.00000  Uiso   1.00
H581   H     0.64679   0.97600   0.50985   0.00000  Uiso   1.00
H582   H     0.43211   0.18665   0.55027   0.00000  Uiso   1.00
H583   H     0.65535   0.19887   0.55868   0.00000  Uiso   1.00
H584   H     0.68766   0.22742   0.77671   0.00000  Uiso   1.00
H585   H     0.69384   0.13864   0.43084   0.00000  Uiso   1.00
H586   H     0.59203   0.23853   0.45001   0.00000  Uiso   1.00
H587   H     0.71169   0.24643   0.04749   0.00000  Uiso   1.00
H588   H     0.72471   0.05925   0.31815   0.00000  Uiso   1.00
H589   H     0.51003   0.26990   0.35858   0.00000  Uiso   1.00
O590   O     0.69235   0.22183   0.29080   0.00000  Uiso   1.00
O591   O     0.70943   0.97625   0.33393   0.00000  Uiso   1.00
O592   O     0.42778   0.25261   0.38698   0.00000  Uiso   1.00
N593   N     0.64766   0.17887   0.16414   0.00000  Uiso   1.00
N594   N     0.65985   0.00386   0.48228   0.00000  Uiso   1.00
N595   N     0.45914   0.20079   0.52004   0.00000  Uiso   1.00
N596   N     0.68959   0.22366   0.06099   0.00000  Uiso   1.00
N597   N     0.70177   0.04865   0.37913   0.00000  Uiso   1.00
N598   N     0.50107   0.24559   0.41690   0.00000  Uiso   1.00
C599   C     0.08518   0.62392   0.23128   0.00000  Uiso   1.00
C600   C     0.11265   0.65001   0.32537   0.00000  Uiso   1.00
C601   C     0.11238   0.64700   0.46193   0.00000  Uiso   1.00
C602   C     0.13988   0.67364   0.53037   0.00000  Uiso   1.00
C603   C     0.17847   0.70979   0.68649   0.00000  Uiso   1.00
C604   C     0.11601   0.60178   0.13746   0.00000  Uiso   1.00
C605   C     0.11857   0.55821   0.11602   0.00000  Uiso   1.00
C606   C     0.14890   0.54425   0.02626   0.00000  Uiso   1.00
C607   C     0.19268   0.50552   0.89056   0.00000  Uiso   1.00
C608   C     0.06069   0.65605   0.14789   0.00000  Uiso   1.00
C609   C     0.01674   0.65812   0.13518   0.00000  Uiso   1.00
C610   C     0.00050   0.68985   0.05417   0.00000  Uiso   1.00
C611   C     0.95840   0.73539   0.93468   0.00000  Uiso   1.00
C612   C     0.13449   0.67659   0.10998   0.00000  Uiso   1.00
C613   C     0.13943   0.67862   0.25948   0.00000  Uiso   1.00
C614   C     0.16694   0.70528   0.32773   0.00000  Uiso   1.00
C615   C     0.16671   0.70230   0.46437   0.00000  Uiso   1.00
C616   C     0.14279   0.63039   0.07157   0.00000  Uiso   1.00
C617   C     0.17312   0.61649   0.98181   0.00000  Uiso   1.00
C618   C     0.17573   0.57291   0.96025   0.00000  Uiso   1.00
C619   C     0.08748   0.68467   0.08200   0.00000  Uiso   1.00
C620   C     0.07130   0.71640   0.00098   0.00000  Uiso   1.00
C621   C     0.02733   0.71851   0.98817   0.00000  Uiso   1.00
H622   H     0.06434   0.60164   0.28257   0.00000  Uiso   1.00
H623   H     0.09165   0.62485   0.51288   0.00000  Uiso   1.00
H624   H     0.09784   0.53607   0.16701   0.00000  Uiso   1.00
H625   H     0.99603   0.63597   0.18618   0.00000  Uiso   1.00
H626   H     0.13376   0.66319   0.73917   0.00000  Uiso   1.00
H627   H     0.14679   0.47600   0.00985   0.00000  Uiso   1.00
H628   H     0.93211   0.68665   0.05027   0.00000  Uiso   1.00
H629   H     0.15535   0.69887   0.05868   0.00000  Uiso   1.00
H630   H     0.18766   0.72742   0.27671   0.00000  Uiso   1.00
H631   H     0.19384   0.63864   0.93084   0.00000  Uiso   1.00
H632   H     0.09203   0.73853   0.95001   0.00000  Uiso   1.00
H633   H     0.21169   0.74643   0.54749   0.00000  Uiso   1.00
H634   H     0.22471   0.55925   0.81815   0.00000  Uiso   1.00
H635   H     0.01003   0.76990   0.85858   0.00000  Uiso   1.00
O636   O     0.19235   0.72183   0.79080   0.00000  Uiso   1.00
O637   O     0.20943   0.47625   0.83393   0.00000  Uiso   1.00
O638   O     0.92778   0.75261   0.88698   0.00000  Uiso   1.00
N639   N     0.14766   0.67887   0.66414   0.00000  Uiso   1.00
N640   N     0.15985   0.50386   0.98228   0.00000  Uiso   1.00
N641   N     0.95914   0.70079   0.02004   0.00000  Uiso   1.00
N642   N     0.18959   0.72366   0.56099   0.00000  Uiso   1.00
N643   N     0.20177   0.54865   0.87913   0.00000  Uiso   1.00
N644   N     0.00107   0.74559   0.91690   0.00000  Uiso   1.00
C645   C     0.91482   0.37608   0.23128   0.00000  Uiso   1.00
C646   C     0.88735   0.34999   0.32537   0.00000  Uiso   1.00
C647   C     0.88762   0.35300   0.46193   0.00000  Uiso   1.00
C648   C     0.86012   0.32636   0.53037   0.00000  Uiso   1.00
C649   C     0.82153   0.29021   0.68649   0.00000  Uiso   1.00
C650   C     0.88399   0.39822   0.13746   0.00000  Uiso   1.00
C651   C     0.88143   0.44179   0.11602   0.00000  Uiso   1.00
C652   C     0.85110   0.45575   0.02626   0.00000  Uiso   1.00
C653   C     0.80732   0.49448   0.89056   0.00000  Uiso   1.00
C654   C     0.93931   0.34395   0.14789   0.00000  Uiso   1.00
C655   C     0.98326   0.34188   0.13518   0.00000  Uiso   1.00
C656   C     0.99950   0.31015   0.05417   0.00000  Uiso   1.00
C657   C     0.04160   0.26461   0.93468   0.00000  Uiso   1.00
C658   C     0.86551   0.32341   0.10998   0.00000  Uiso   1.00
C659   C     0.86057   0.32138   0.25948   0.00000  Uiso   1.00
C660   C     0.83306   0.29472   0.32773   0.00000  Uiso   1.00
C661   C     0.83329   0.29770   0.46437   0.00000  Uiso   1.00
C662   C     0.85721   0.36961   0.07157   0.00000  Uiso   1.00
C663   C     0.82688   0.38351   0.98181   0.00000  Uiso   1.00
C664   C     0.82427   0.42709   0.96025   0.00000  Uiso   1.00
C665   C     0.91252   0.31533   0.08200   0.00000  Uiso   1.00
C666   C     0.92870   0.28360   0.00098   0.00000  Uiso   1.00
C667   C     0.97267   0.28149   0.98817   0.00000  Uiso   1.00
H668   H     0.93566   0.39836   0.28257   0.00000  Uiso   1.00
H669   H     0.90835   0.37515   0.51288   0.00000  Uiso   1.00
H670   H     0.90216   0.46393   0.16701   0.00000  Uiso   1.00
H671   H     0.00397   0.36403   0.18618   0.00000  Uiso   1.00
H672   H     0.86624   0.33681   0.73917   0.00000  Uiso   1.00
H673   H     0.85321   0.52400   0.00985   0.00000  Uiso   1.00
H674   H     0.06789   0.31335   0.05027   0.00000  Uiso   1.00
H675   H     0.84465   0.30113   0.05868   0.00000  Uiso   1.00
H676   H     0.81234   0.27258   0.27671   0.00000  Uiso   1.00
H677   H     0.80616   0.36136   0.93084   0.00000  Uiso   1.00
H678   H     0.90797   0.26147   0.95001   0.00000  Uiso   1.00
H679   H     0.78831   0.25357   0.54749   0.00000  Uiso   1.00
H680   H     0.77529   0.44075   0.81815   0.00000  Uiso   1.00
H681   H     0.98997   0.23010   0.85858   0.00000  Uiso   1.00
O682   O     0.80765   0.27817   0.79080   0.00000  Uiso   1.00
O683   O     0.79057   0.52375   0.83393   0.00000  Uiso   1.00
O684   O     0.07222   0.24739   0.88698   0.00000  Uiso   1.00
N685   N     0.85234   0.32113   0.66414   0.00000  Uiso   1.00
N686   N     0.84015   0.49614   0.98228   0.00000  Uiso   1.00
N687   N     0.04086   0.29921   0.02004   0.00000  Uiso   1.00
N688   N     0.81041   0.27634   0.56099   0.00000  Uiso   1.00
N689   N     0.79823   0.45135   0.87913   0.00000  Uiso   1.00
N690   N     0.99893   0.25441   0.91690   0.00000  Uiso   1.00
C691   C     0.41482   0.87608   0.73128   0.00000  Uiso   1.00
C692   C     0.38735   0.84999   0.82537   0.00000  Uiso   1.00
C693   C     0.38762   0.85300   0.96193   0.00000  Uiso   1.00
C694   C     0.36012   0.82636   0.03037   0.00000  Uiso   1.00
C695   C     0.32153   0.79021   0.18649   0.00000  Uiso   1.00
C696   C     0.38399   0.89822   0.63746   0.00000  Uiso   1.00
C697   C     0.38143   0.94179   0.61602   0.00000  Uiso   1.00
C698   C     0.35110   0.95575   0.52626   0.00000  Uiso   1.00
C699   C     0.30732   0.99448   0.39056   0.00000  Uiso   1.00
C700   C     0.43931   0.84395   0.64789   0.00000  Uiso   1.00
C701   C     0.48326   0.84188   0.63518   0.00000  Uiso   1.00
C702   C     0.49950   0.81015   0.55417   0.00000  Uiso   1.00
C703   C     0.54160   0.76461   0.43468   0.00000  Uiso   1.00
C704   C     0.36551   0.82341   0.60998   0.00000  Uiso   1.00
C705   C     0.36057   0.82138   0.75948   0.00000  Uiso   1.00
C706   C     0.33306   0.79472   0.82773   0.00000  Uiso   1.00
C707   C     0.33329   0.79770   0.96437   0.00000  Uiso   1.00
C708   C     0.35721   0.86961   0.57157   0.00000  Uiso   1.00
C709   C     0.32688   0.88351   0.48181   0.00000  Uiso   1.00
C710   C     0.32427   0.92709   0.46025   0.00000  Uiso   1.00
C711   C     0.41252   0.81533   0.58200   0.00000  Uiso   1.00
C712   C     0.42870   0.78360   0.50098   0.00000  Uiso   1.00
C713   C     0.47267   0.78149   0.48817   0.00000  Uiso   1.00
H714   H     0.43566   0.89836   0.78257   0.00000  Uiso   1.00
H715   H     0.40835   0.87515   0.01288   0.00000  Uiso   1.00
H716   H     0.40216   0.96393   0.66701   0.00000  Uiso   1.00
H717   H     0.50397   0.86403   0.68618   0.00000  Uiso   1.00
H718   H     0.36624   0.83681   0.23917   0.00000  Uiso   1.00
H719   H     0.35321   0.02400   0.50985   0.00000  Uiso   1.00
H720   H     0.56789   0.81335   0.55027   0.00000  Uiso   1.00
H721   H     0.34465   0.80113   0.55868   0.00000  Uiso   1.00
H722   H     0.31234   0.77258   0.77671   0.00000  Uiso   1.00
H723   H     0.30616   0.86136   0.43084   0.00000  Uiso   1.00
H724   H     0.40797   0.76147   0.45001   0.00000  Uiso   1.00
H725   H     0.28831   0.75357   0.04749   0.00000  Uiso   1.00
H726   H     0.27529   0.94075   0.31815   0.00000  Uiso   1.00
H727   H     0.48997   0.73010   0.35858   0.00000  Uiso   1.00
O728   O     0.30765   0.77817   0.29080   0.00000  Uiso   1.00
O729   O     0.29057   0.02375   0.33393   0.00000  Uiso   1.00
O730   O     0.57222   0.74739   0.38698   0.00000  Uiso   1.00
N731   N     0.35234   0.82113   0.16414   0.00000  Uiso   1.00
N732   N     0.34015   0.99614   0.48228   0.00000  Uiso   1.00
N733   N     0.54086   0.79921   0.52004   0.00000  Uiso   1.00
N734   N     0.31041   0.77634   0.06099   0.00000  Uiso   1.00
N735   N     0.29823   0.95135   0.37913   0.00000  Uiso   1.00
N736   N     0.49893   0.75441   0.41690   0.00000  Uiso   1.00
