data_job_00322
_audit_creation_date              2018-12-19
_audit_creation_method            'Materials Studio'
_symmetry_space_group_name_H-M    'P1'
_symmetry_Int_Tables_number       1
_symmetry_cell_setting            triclinic
loop_
_symmetry_equiv_pos_as_xyz
  x,y,z
_cell_length_a                    40.1969
_cell_length_b                    12.4277
_cell_length_c                    20.6591
_cell_angle_alpha                 90.0000
_cell_angle_beta                  90.0000
_cell_angle_gamma                 90.0000
loop_
_atom_site_label
_atom_site_type_symbol
_atom_site_fract_x
_atom_site_fract_y
_atom_site_fract_z
_atom_site_U_iso_or_equiv
_atom_site_adp_type
_atom_site_occupancy
C1     C     0.79557   0.62173   0.73918   0.00000  Uiso   1.00
C2     C     0.80795   0.73400   0.72163   0.00000  Uiso   1.00
C3     C     0.79479   0.79979   0.67378   0.00000  Uiso   1.00
C4     C     0.80963   0.89965   0.66520   0.00000  Uiso   1.00
C5     C     0.82474   0.06896   0.63216   0.00000  Uiso   1.00
C6     C     0.82554   0.54728   0.73258   0.00000  Uiso   1.00
C7     C     0.82716   0.45608   0.69394   0.00000  Uiso   1.00
C8     C     0.85681   0.39876   0.69459   0.00000  Uiso   1.00
C9     C     0.89922   0.27814   0.67858   0.00000  Uiso   1.00
C10    C     0.78734   0.62528   0.81120   0.00000  Uiso   1.00
C11    C     0.75685   0.59963   0.83867   0.00000  Uiso   1.00
C12    C     0.75434   0.60795   0.90551   0.00000  Uiso   1.00
C13    C     0.73744   0.60844   0.01157   0.00000  Uiso   1.00
C14    C     0.84534   0.68209   0.80905   0.00000  Uiso   1.00
C15    C     0.83498   0.76677   0.75958   0.00000  Uiso   1.00
C16    C     0.84985   0.86657   0.75108   0.00000  Uiso   1.00
C17    C     0.83671   0.93250   0.70322   0.00000  Uiso   1.00
C18    C     0.85257   0.58006   0.77053   0.00000  Uiso   1.00
C19    C     0.88222   0.52286   0.77124   0.00000  Uiso   1.00
C20    C     0.88389   0.43160   0.73261   0.00000  Uiso   1.00
C21    C     0.81437   0.65806   0.84915   0.00000  Uiso   1.00
C22    C     0.81191   0.66642   0.91596   0.00000  Uiso   1.00
C23    C     0.78142   0.64079   0.94353   0.00000  Uiso   1.00
H24    H     0.77453   0.59620   0.70964   0.00000  Uiso   1.00
H25    H     0.77387   0.77439   0.64442   0.00000  Uiso   1.00
H26    H     0.80624   0.43072   0.66458   0.00000  Uiso   1.00
H27    H     0.73594   0.57426   0.80929   0.00000  Uiso   1.00
H28    H     0.78507   0.98638   0.58883   0.00000  Uiso   1.00
H29    H     0.85331   0.26173   0.63137   0.00000  Uiso   1.00
H30    H     0.70506   0.56440   0.93650   0.00000  Uiso   1.00
H31    H     0.86639   0.70761   0.83859   0.00000  Uiso   1.00
H32    H     0.87076   0.89192   0.78045   0.00000  Uiso   1.00
H33    H     0.90313   0.54825   0.80061   0.00000  Uiso   1.00
H34    H     0.83283   0.69179   0.94532   0.00000  Uiso   1.00
H35    H     0.86371   0.08177   0.69924   0.00000  Uiso   1.00
H36    H     0.93195   0.35711   0.74177   0.00000  Uiso   1.00
H37    H     0.78371   0.65979   0.04691   0.00000  Uiso   1.00
O38    O     0.82562   0.15329   0.60345   0.00000  Uiso   1.00
O39    O     0.91514   0.20256   0.65926   0.00000  Uiso   1.00
O40    O     0.72065   0.59967   0.05959   0.00000  Uiso   1.00
N41    N     0.80297   0.98354   0.62281   0.00000  Uiso   1.00
N42    N     0.86677   0.30605   0.66256   0.00000  Uiso   1.00
N43    N     0.72818   0.58899   0.94784   0.00000  Uiso   1.00
N44    N     0.84529   0.03487   0.68221   0.00000  Uiso   1.00
N45    N     0.90909   0.35737   0.72197   0.00000  Uiso   1.00
N46    N     0.77050   0.64032   0.00725   0.00000  Uiso   1.00
C47    C     0.79557   0.12173   0.23918   0.00000  Uiso   1.00
C48    C     0.80795   0.23400   0.22163   0.00000  Uiso   1.00
C49    C     0.79479   0.29979   0.17378   0.00000  Uiso   1.00
C50    C     0.80963   0.39965   0.16520   0.00000  Uiso   1.00
C51    C     0.82474   0.56896   0.13216   0.00000  Uiso   1.00
C52    C     0.82554   0.04728   0.23258   0.00000  Uiso   1.00
C53    C     0.82716   0.95608   0.19394   0.00000  Uiso   1.00
C54    C     0.85681   0.89876   0.19459   0.00000  Uiso   1.00
C55    C     0.89922   0.77814   0.17858   0.00000  Uiso   1.00
C56    C     0.78734   0.12528   0.31120   0.00000  Uiso   1.00
C57    C     0.75685   0.09963   0.33867   0.00000  Uiso   1.00
C58    C     0.75434   0.10795   0.40551   0.00000  Uiso   1.00
C59    C     0.73744   0.10844   0.51157   0.00000  Uiso   1.00
C60    C     0.84534   0.18209   0.30905   0.00000  Uiso   1.00
C61    C     0.83498   0.26677   0.25958   0.00000  Uiso   1.00
C62    C     0.84985   0.36657   0.25108   0.00000  Uiso   1.00
C63    C     0.83671   0.43250   0.20322   0.00000  Uiso   1.00
C64    C     0.85257   0.08006   0.27053   0.00000  Uiso   1.00
C65    C     0.88222   0.02286   0.27124   0.00000  Uiso   1.00
C66    C     0.88389   0.93160   0.23261   0.00000  Uiso   1.00
C67    C     0.81437   0.15806   0.34915   0.00000  Uiso   1.00
C68    C     0.81191   0.16642   0.41596   0.00000  Uiso   1.00
C69    C     0.78142   0.14079   0.44353   0.00000  Uiso   1.00
H70    H     0.77453   0.09620   0.20964   0.00000  Uiso   1.00
H71    H     0.77387   0.27439   0.14442   0.00000  Uiso   1.00
H72    H     0.80624   0.93072   0.16458   0.00000  Uiso   1.00
H73    H     0.73594   0.07426   0.30929   0.00000  Uiso   1.00
H74    H     0.78507   0.48638   0.08883   0.00000  Uiso   1.00
H75    H     0.85331   0.76173   0.13137   0.00000  Uiso   1.00
H76    H     0.70506   0.06440   0.43650   0.00000  Uiso   1.00
H77    H     0.86639   0.20761   0.33859   0.00000  Uiso   1.00
H78    H     0.87076   0.39192   0.28045   0.00000  Uiso   1.00
H79    H     0.90313   0.04825   0.30061   0.00000  Uiso   1.00
H80    H     0.83283   0.19179   0.44532   0.00000  Uiso   1.00
H81    H     0.86371   0.58177   0.19924   0.00000  Uiso   1.00
H82    H     0.93195   0.85711   0.24177   0.00000  Uiso   1.00
H83    H     0.78371   0.15979   0.54691   0.00000  Uiso   1.00
O84    O     0.82562   0.65329   0.10345   0.00000  Uiso   1.00
O85    O     0.91514   0.70256   0.15926   0.00000  Uiso   1.00
O86    O     0.72065   0.09967   0.55959   0.00000  Uiso   1.00
N87    N     0.80297   0.48354   0.12281   0.00000  Uiso   1.00
N88    N     0.86677   0.80605   0.16256   0.00000  Uiso   1.00
N89    N     0.72818   0.08899   0.44784   0.00000  Uiso   1.00
N90    N     0.84529   0.53487   0.18221   0.00000  Uiso   1.00
N91    N     0.90909   0.85737   0.22197   0.00000  Uiso   1.00
N92    N     0.77050   0.14032   0.50725   0.00000  Uiso   1.00
C93    C     0.29557   0.62173   0.23918   0.00000  Uiso   1.00
C94    C     0.30795   0.73400   0.22163   0.00000  Uiso   1.00
C95    C     0.29479   0.79979   0.17378   0.00000  Uiso   1.00
C96    C     0.30963   0.89965   0.16520   0.00000  Uiso   1.00
C97    C     0.32474   0.06896   0.13216   0.00000  Uiso   1.00
C98    C     0.32554   0.54728   0.23258   0.00000  Uiso   1.00
C99    C     0.32716   0.45608   0.19394   0.00000  Uiso   1.00
C100   C     0.35681   0.39876   0.19459   0.00000  Uiso   1.00
C101   C     0.39922   0.27814   0.17858   0.00000  Uiso   1.00
C102   C     0.28734   0.62528   0.31120   0.00000  Uiso   1.00
C103   C     0.25685   0.59963   0.33867   0.00000  Uiso   1.00
C104   C     0.25434   0.60795   0.40551   0.00000  Uiso   1.00
C105   C     0.23744   0.60844   0.51157   0.00000  Uiso   1.00
C106   C     0.34534   0.68209   0.30905   0.00000  Uiso   1.00
C107   C     0.33498   0.76677   0.25958   0.00000  Uiso   1.00
C108   C     0.34985   0.86657   0.25108   0.00000  Uiso   1.00
C109   C     0.33671   0.93250   0.20322   0.00000  Uiso   1.00
C110   C     0.35257   0.58006   0.27053   0.00000  Uiso   1.00
C111   C     0.38222   0.52286   0.27124   0.00000  Uiso   1.00
C112   C     0.38389   0.43160   0.23261   0.00000  Uiso   1.00
C113   C     0.31437   0.65806   0.34915   0.00000  Uiso   1.00
C114   C     0.31191   0.66642   0.41596   0.00000  Uiso   1.00
C115   C     0.28142   0.64079   0.44353   0.00000  Uiso   1.00
H116   H     0.27453   0.59620   0.20964   0.00000  Uiso   1.00
H117   H     0.27387   0.77439   0.14442   0.00000  Uiso   1.00
H118   H     0.30624   0.43072   0.16458   0.00000  Uiso   1.00
H119   H     0.23594   0.57426   0.30929   0.00000  Uiso   1.00
H120   H     0.28507   0.98638   0.08883   0.00000  Uiso   1.00
H121   H     0.35331   0.26173   0.13137   0.00000  Uiso   1.00
H122   H     0.20506   0.56440   0.43650   0.00000  Uiso   1.00
H123   H     0.36639   0.70761   0.33859   0.00000  Uiso   1.00
H124   H     0.37076   0.89192   0.28045   0.00000  Uiso   1.00
H125   H     0.40313   0.54825   0.30061   0.00000  Uiso   1.00
H126   H     0.33283   0.69179   0.44532   0.00000  Uiso   1.00
H127   H     0.36371   0.08177   0.19924   0.00000  Uiso   1.00
H128   H     0.43195   0.35711   0.24177   0.00000  Uiso   1.00
H129   H     0.28371   0.65979   0.54691   0.00000  Uiso   1.00
O130   O     0.32562   0.15329   0.10345   0.00000  Uiso   1.00
O131   O     0.41514   0.20256   0.15926   0.00000  Uiso   1.00
O132   O     0.22065   0.59967   0.55959   0.00000  Uiso   1.00
N133   N     0.30297   0.98354   0.12281   0.00000  Uiso   1.00
N134   N     0.36677   0.30605   0.16256   0.00000  Uiso   1.00
N135   N     0.22818   0.58899   0.44784   0.00000  Uiso   1.00
N136   N     0.34529   0.03487   0.18221   0.00000  Uiso   1.00
N137   N     0.40909   0.35737   0.22197   0.00000  Uiso   1.00
N138   N     0.27050   0.64032   0.50725   0.00000  Uiso   1.00
C139   C     0.29557   0.12173   0.73918   0.00000  Uiso   1.00
C140   C     0.30795   0.23400   0.72163   0.00000  Uiso   1.00
C141   C     0.29479   0.29979   0.67378   0.00000  Uiso   1.00
C142   C     0.30963   0.39965   0.66520   0.00000  Uiso   1.00
C143   C     0.32474   0.56896   0.63216   0.00000  Uiso   1.00
C144   C     0.32554   0.04728   0.73258   0.00000  Uiso   1.00
C145   C     0.32716   0.95608   0.69394   0.00000  Uiso   1.00
C146   C     0.35681   0.89876   0.69459   0.00000  Uiso   1.00
C147   C     0.39922   0.77814   0.67858   0.00000  Uiso   1.00
C148   C     0.28734   0.12528   0.81120   0.00000  Uiso   1.00
C149   C     0.25685   0.09963   0.83867   0.00000  Uiso   1.00
C150   C     0.25434   0.10795   0.90551   0.00000  Uiso   1.00
C151   C     0.23744   0.10844   0.01157   0.00000  Uiso   1.00
C152   C     0.34534   0.18209   0.80905   0.00000  Uiso   1.00
C153   C     0.33498   0.26677   0.75958   0.00000  Uiso   1.00
C154   C     0.34985   0.36657   0.75108   0.00000  Uiso   1.00
C155   C     0.33671   0.43250   0.70322   0.00000  Uiso   1.00
C156   C     0.35257   0.08006   0.77053   0.00000  Uiso   1.00
C157   C     0.38222   0.02286   0.77124   0.00000  Uiso   1.00
C158   C     0.38389   0.93160   0.73261   0.00000  Uiso   1.00
C159   C     0.31437   0.15806   0.84915   0.00000  Uiso   1.00
C160   C     0.31191   0.16642   0.91596   0.00000  Uiso   1.00
C161   C     0.28142   0.14079   0.94353   0.00000  Uiso   1.00
H162   H     0.27453   0.09620   0.70964   0.00000  Uiso   1.00
H163   H     0.27387   0.27439   0.64442   0.00000  Uiso   1.00
H164   H     0.30624   0.93072   0.66458   0.00000  Uiso   1.00
H165   H     0.23594   0.07426   0.80929   0.00000  Uiso   1.00
H166   H     0.28507   0.48638   0.58883   0.00000  Uiso   1.00
H167   H     0.35331   0.76173   0.63137   0.00000  Uiso   1.00
H168   H     0.20506   0.06440   0.93650   0.00000  Uiso   1.00
H169   H     0.36639   0.20761   0.83859   0.00000  Uiso   1.00
H170   H     0.37076   0.39192   0.78045   0.00000  Uiso   1.00
H171   H     0.40313   0.04825   0.80061   0.00000  Uiso   1.00
H172   H     0.33283   0.19179   0.94532   0.00000  Uiso   1.00
H173   H     0.36371   0.58177   0.69924   0.00000  Uiso   1.00
H174   H     0.43195   0.85711   0.74177   0.00000  Uiso   1.00
H175   H     0.28371   0.15979   0.04691   0.00000  Uiso   1.00
O176   O     0.32562   0.65329   0.60345   0.00000  Uiso   1.00
O177   O     0.41514   0.70256   0.65926   0.00000  Uiso   1.00
O178   O     0.22065   0.09967   0.05959   0.00000  Uiso   1.00
N179   N     0.30297   0.48354   0.62281   0.00000  Uiso   1.00
N180   N     0.36677   0.80605   0.66256   0.00000  Uiso   1.00
N181   N     0.22818   0.08899   0.94784   0.00000  Uiso   1.00
N182   N     0.34529   0.53487   0.68221   0.00000  Uiso   1.00
N183   N     0.40909   0.85737   0.72197   0.00000  Uiso   1.00
N184   N     0.27050   0.14032   0.00725   0.00000  Uiso   1.00
C185   C     0.20443   0.37827   0.73918   0.00000  Uiso   1.00
C186   C     0.19205   0.26600   0.72163   0.00000  Uiso   1.00
C187   C     0.20521   0.20021   0.67378   0.00000  Uiso   1.00
C188   C     0.19037   0.10035   0.66520   0.00000  Uiso   1.00
C189   C     0.17526   0.93104   0.63216   0.00000  Uiso   1.00
C190   C     0.17446   0.45272   0.73258   0.00000  Uiso   1.00
C191   C     0.17284   0.54392   0.69394   0.00000  Uiso   1.00
C192   C     0.14319   0.60124   0.69459   0.00000  Uiso   1.00
C193   C     0.10078   0.72186   0.67858   0.00000  Uiso   1.00
C194   C     0.21266   0.37472   0.81120   0.00000  Uiso   1.00
C195   C     0.24315   0.40037   0.83867   0.00000  Uiso   1.00
C196   C     0.24566   0.39205   0.90551   0.00000  Uiso   1.00
C197   C     0.26256   0.39156   0.01157   0.00000  Uiso   1.00
C198   C     0.15466   0.31791   0.80905   0.00000  Uiso   1.00
C199   C     0.16502   0.23323   0.75958   0.00000  Uiso   1.00
C200   C     0.15015   0.13343   0.75108   0.00000  Uiso   1.00
C201   C     0.16329   0.06750   0.70322   0.00000  Uiso   1.00
C202   C     0.14743   0.41994   0.77053   0.00000  Uiso   1.00
C203   C     0.11778   0.47714   0.77124   0.00000  Uiso   1.00
C204   C     0.11611   0.56840   0.73261   0.00000  Uiso   1.00
C205   C     0.18563   0.34194   0.84915   0.00000  Uiso   1.00
C206   C     0.18809   0.33358   0.91596   0.00000  Uiso   1.00
C207   C     0.21858   0.35921   0.94353   0.00000  Uiso   1.00
H208   H     0.22547   0.40380   0.70964   0.00000  Uiso   1.00
H209   H     0.22613   0.22561   0.64442   0.00000  Uiso   1.00
H210   H     0.19376   0.56928   0.66458   0.00000  Uiso   1.00
H211   H     0.26406   0.42574   0.80929   0.00000  Uiso   1.00
H212   H     0.21493   0.01362   0.58883   0.00000  Uiso   1.00
H213   H     0.14669   0.73827   0.63137   0.00000  Uiso   1.00
H214   H     0.29494   0.43560   0.93650   0.00000  Uiso   1.00
H215   H     0.13361   0.29239   0.83859   0.00000  Uiso   1.00
H216   H     0.12924   0.10808   0.78045   0.00000  Uiso   1.00
H217   H     0.09687   0.45175   0.80061   0.00000  Uiso   1.00
H218   H     0.16717   0.30821   0.94532   0.00000  Uiso   1.00
H219   H     0.13629   0.91823   0.69924   0.00000  Uiso   1.00
H220   H     0.06805   0.64289   0.74177   0.00000  Uiso   1.00
H221   H     0.21629   0.34021   0.04691   0.00000  Uiso   1.00
O222   O     0.17438   0.84671   0.60345   0.00000  Uiso   1.00
O223   O     0.08486   0.79744   0.65926   0.00000  Uiso   1.00
O224   O     0.27935   0.40033   0.05959   0.00000  Uiso   1.00
N225   N     0.19703   0.01646   0.62281   0.00000  Uiso   1.00
N226   N     0.13323   0.69395   0.66256   0.00000  Uiso   1.00
N227   N     0.27182   0.41101   0.94784   0.00000  Uiso   1.00
N228   N     0.15471   0.96513   0.68221   0.00000  Uiso   1.00
N229   N     0.09091   0.64263   0.72197   0.00000  Uiso   1.00
N230   N     0.22950   0.35968   0.00725   0.00000  Uiso   1.00
C231   C     0.20443   0.87827   0.23918   0.00000  Uiso   1.00
C232   C     0.19205   0.76600   0.22163   0.00000  Uiso   1.00
C233   C     0.20521   0.70021   0.17378   0.00000  Uiso   1.00
C234   C     0.19037   0.60035   0.16520   0.00000  Uiso   1.00
C235   C     0.17526   0.43104   0.13216   0.00000  Uiso   1.00
C236   C     0.17446   0.95272   0.23258   0.00000  Uiso   1.00
C237   C     0.17284   0.04392   0.19394   0.00000  Uiso   1.00
C238   C     0.14319   0.10124   0.19459   0.00000  Uiso   1.00
C239   C     0.10078   0.22186   0.17858   0.00000  Uiso   1.00
C240   C     0.21266   0.87472   0.31120   0.00000  Uiso   1.00
C241   C     0.24315   0.90037   0.33867   0.00000  Uiso   1.00
C242   C     0.24566   0.89205   0.40551   0.00000  Uiso   1.00
C243   C     0.26256   0.89156   0.51157   0.00000  Uiso   1.00
C244   C     0.15466   0.81791   0.30905   0.00000  Uiso   1.00
C245   C     0.16502   0.73323   0.25958   0.00000  Uiso   1.00
C246   C     0.15015   0.63343   0.25108   0.00000  Uiso   1.00
C247   C     0.16329   0.56750   0.20322   0.00000  Uiso   1.00
C248   C     0.14743   0.91994   0.27053   0.00000  Uiso   1.00
C249   C     0.11778   0.97714   0.27124   0.00000  Uiso   1.00
C250   C     0.11611   0.06840   0.23261   0.00000  Uiso   1.00
C251   C     0.18563   0.84194   0.34915   0.00000  Uiso   1.00
C252   C     0.18809   0.83358   0.41596   0.00000  Uiso   1.00
C253   C     0.21858   0.85921   0.44353   0.00000  Uiso   1.00
H254   H     0.22547   0.90380   0.20964   0.00000  Uiso   1.00
H255   H     0.22613   0.72561   0.14442   0.00000  Uiso   1.00
H256   H     0.19376   0.06928   0.16458   0.00000  Uiso   1.00
H257   H     0.26406   0.92574   0.30929   0.00000  Uiso   1.00
H258   H     0.21493   0.51362   0.08883   0.00000  Uiso   1.00
H259   H     0.14669   0.23827   0.13137   0.00000  Uiso   1.00
H260   H     0.29494   0.93560   0.43650   0.00000  Uiso   1.00
H261   H     0.13361   0.79239   0.33859   0.00000  Uiso   1.00
H262   H     0.12924   0.60808   0.28045   0.00000  Uiso   1.00
H263   H     0.09687   0.95175   0.30061   0.00000  Uiso   1.00
H264   H     0.16717   0.80821   0.44532   0.00000  Uiso   1.00
H265   H     0.13629   0.41823   0.19924   0.00000  Uiso   1.00
H266   H     0.06805   0.14289   0.24177   0.00000  Uiso   1.00
H267   H     0.21629   0.84021   0.54691   0.00000  Uiso   1.00
O268   O     0.17438   0.34671   0.10345   0.00000  Uiso   1.00
O269   O     0.08486   0.29744   0.15926   0.00000  Uiso   1.00
O270   O     0.27935   0.90033   0.55959   0.00000  Uiso   1.00
N271   N     0.19703   0.51646   0.12281   0.00000  Uiso   1.00
N272   N     0.13323   0.19395   0.16256   0.00000  Uiso   1.00
N273   N     0.27182   0.91101   0.44784   0.00000  Uiso   1.00
N274   N     0.15471   0.46513   0.18221   0.00000  Uiso   1.00
N275   N     0.09091   0.14263   0.22197   0.00000  Uiso   1.00
N276   N     0.22950   0.85968   0.50725   0.00000  Uiso   1.00
C277   C     0.70443   0.37827   0.23918   0.00000  Uiso   1.00
C278   C     0.69205   0.26600   0.22163   0.00000  Uiso   1.00
C279   C     0.70521   0.20021   0.17378   0.00000  Uiso   1.00
C280   C     0.69037   0.10035   0.16520   0.00000  Uiso   1.00
C281   C     0.67526   0.93104   0.13216   0.00000  Uiso   1.00
C282   C     0.67446   0.45272   0.23258   0.00000  Uiso   1.00
C283   C     0.67284   0.54392   0.19394   0.00000  Uiso   1.00
C284   C     0.64319   0.60124   0.19459   0.00000  Uiso   1.00
C285   C     0.60078   0.72186   0.17858   0.00000  Uiso   1.00
C286   C     0.71266   0.37472   0.31120   0.00000  Uiso   1.00
C287   C     0.74315   0.40037   0.33867   0.00000  Uiso   1.00
C288   C     0.74566   0.39205   0.40551   0.00000  Uiso   1.00
C289   C     0.76256   0.39156   0.51157   0.00000  Uiso   1.00
C290   C     0.65466   0.31791   0.30905   0.00000  Uiso   1.00
C291   C     0.66502   0.23323   0.25958   0.00000  Uiso   1.00
C292   C     0.65015   0.13343   0.25108   0.00000  Uiso   1.00
C293   C     0.66329   0.06750   0.20322   0.00000  Uiso   1.00
C294   C     0.64743   0.41994   0.27053   0.00000  Uiso   1.00
C295   C     0.61778   0.47714   0.27124   0.00000  Uiso   1.00
C296   C     0.61611   0.56840   0.23261   0.00000  Uiso   1.00
C297   C     0.68563   0.34194   0.34915   0.00000  Uiso   1.00
C298   C     0.68809   0.33358   0.41596   0.00000  Uiso   1.00
C299   C     0.71858   0.35921   0.44353   0.00000  Uiso   1.00
H300   H     0.72547   0.40380   0.20964   0.00000  Uiso   1.00
H301   H     0.72613   0.22561   0.14442   0.00000  Uiso   1.00
H302   H     0.69376   0.56928   0.16458   0.00000  Uiso   1.00
H303   H     0.76406   0.42574   0.30929   0.00000  Uiso   1.00
H304   H     0.71493   0.01362   0.08883   0.00000  Uiso   1.00
H305   H     0.64669   0.73827   0.13137   0.00000  Uiso   1.00
H306   H     0.79494   0.43560   0.43650   0.00000  Uiso   1.00
H307   H     0.63361   0.29239   0.33859   0.00000  Uiso   1.00
H308   H     0.62924   0.10808   0.28045   0.00000  Uiso   1.00
H309   H     0.59687   0.45175   0.30061   0.00000  Uiso   1.00
H310   H     0.66717   0.30821   0.44532   0.00000  Uiso   1.00
H311   H     0.63629   0.91823   0.19924   0.00000  Uiso   1.00
H312   H     0.56805   0.64289   0.24177   0.00000  Uiso   1.00
H313   H     0.71629   0.34021   0.54691   0.00000  Uiso   1.00
O314   O     0.67438   0.84671   0.10345   0.00000  Uiso   1.00
O315   O     0.58486   0.79744   0.15926   0.00000  Uiso   1.00
O316   O     0.77935   0.40033   0.55959   0.00000  Uiso   1.00
N317   N     0.69703   0.01646   0.12281   0.00000  Uiso   1.00
N318   N     0.63323   0.69395   0.16256   0.00000  Uiso   1.00
N319   N     0.77182   0.41101   0.44784   0.00000  Uiso   1.00
N320   N     0.65471   0.96513   0.18221   0.00000  Uiso   1.00
N321   N     0.59091   0.64263   0.22197   0.00000  Uiso   1.00
N322   N     0.72950   0.35968   0.50725   0.00000  Uiso   1.00
C323   C     0.70443   0.87827   0.73918   0.00000  Uiso   1.00
C324   C     0.69205   0.76600   0.72163   0.00000  Uiso   1.00
C325   C     0.70521   0.70021   0.67378   0.00000  Uiso   1.00
C326   C     0.69037   0.60035   0.66520   0.00000  Uiso   1.00
C327   C     0.67526   0.43104   0.63216   0.00000  Uiso   1.00
C328   C     0.67446   0.95272   0.73258   0.00000  Uiso   1.00
C329   C     0.67284   0.04392   0.69394   0.00000  Uiso   1.00
C330   C     0.64319   0.10124   0.69459   0.00000  Uiso   1.00
C331   C     0.60078   0.22186   0.67858   0.00000  Uiso   1.00
C332   C     0.71266   0.87472   0.81120   0.00000  Uiso   1.00
C333   C     0.74315   0.90037   0.83867   0.00000  Uiso   1.00
C334   C     0.74566   0.89205   0.90551   0.00000  Uiso   1.00
C335   C     0.76256   0.89156   0.01157   0.00000  Uiso   1.00
C336   C     0.65466   0.81791   0.80905   0.00000  Uiso   1.00
C337   C     0.66502   0.73323   0.75958   0.00000  Uiso   1.00
C338   C     0.65015   0.63343   0.75108   0.00000  Uiso   1.00
C339   C     0.66329   0.56750   0.70322   0.00000  Uiso   1.00
C340   C     0.64743   0.91994   0.77053   0.00000  Uiso   1.00
C341   C     0.61778   0.97714   0.77124   0.00000  Uiso   1.00
C342   C     0.61611   0.06840   0.73261   0.00000  Uiso   1.00
C343   C     0.68563   0.84194   0.84915   0.00000  Uiso   1.00
C344   C     0.68809   0.83358   0.91596   0.00000  Uiso   1.00
C345   C     0.71858   0.85921   0.94353   0.00000  Uiso   1.00
H346   H     0.72547   0.90380   0.70964   0.00000  Uiso   1.00
H347   H     0.72613   0.72561   0.64442   0.00000  Uiso   1.00
H348   H     0.69376   0.06928   0.66458   0.00000  Uiso   1.00
H349   H     0.76406   0.92574   0.80929   0.00000  Uiso   1.00
H350   H     0.71493   0.51362   0.58883   0.00000  Uiso   1.00
H351   H     0.64669   0.23827   0.63137   0.00000  Uiso   1.00
H352   H     0.79494   0.93560   0.93650   0.00000  Uiso   1.00
H353   H     0.63361   0.79239   0.83859   0.00000  Uiso   1.00
H354   H     0.62924   0.60808   0.78045   0.00000  Uiso   1.00
H355   H     0.59687   0.95175   0.80061   0.00000  Uiso   1.00
H356   H     0.66717   0.80821   0.94532   0.00000  Uiso   1.00
H357   H     0.63629   0.41823   0.69924   0.00000  Uiso   1.00
H358   H     0.56805   0.14289   0.74177   0.00000  Uiso   1.00
H359   H     0.71629   0.84021   0.04691   0.00000  Uiso   1.00
O360   O     0.67438   0.34671   0.60345   0.00000  Uiso   1.00
O361   O     0.58486   0.29744   0.65926   0.00000  Uiso   1.00
O362   O     0.77935   0.90033   0.05959   0.00000  Uiso   1.00
N363   N     0.69703   0.51646   0.62281   0.00000  Uiso   1.00
N364   N     0.63323   0.19395   0.66256   0.00000  Uiso   1.00
N365   N     0.77182   0.91101   0.94784   0.00000  Uiso   1.00
N366   N     0.65471   0.46513   0.68221   0.00000  Uiso   1.00
N367   N     0.59091   0.14263   0.72197   0.00000  Uiso   1.00
N368   N     0.72950   0.85968   0.00725   0.00000  Uiso   1.00
C369   C     0.04557   0.62827   0.98918   0.00000  Uiso   1.00
C370   C     0.05795   0.51600   0.97163   0.00000  Uiso   1.00
C371   C     0.04479   0.45021   0.92378   0.00000  Uiso   1.00
C372   C     0.05963   0.35035   0.91520   0.00000  Uiso   1.00
C373   C     0.07474   0.18104   0.88216   0.00000  Uiso   1.00
C374   C     0.07554   0.70272   0.98258   0.00000  Uiso   1.00
C375   C     0.07716   0.79392   0.94394   0.00000  Uiso   1.00
C376   C     0.10681   0.85124   0.94459   0.00000  Uiso   1.00
C377   C     0.14922   0.97186   0.92858   0.00000  Uiso   1.00
C378   C     0.03734   0.62472   0.06120   0.00000  Uiso   1.00
C379   C     0.00685   0.65037   0.08867   0.00000  Uiso   1.00
C380   C     0.00434   0.64205   0.15551   0.00000  Uiso   1.00
C381   C     0.98744   0.64156   0.26157   0.00000  Uiso   1.00
C382   C     0.09534   0.56791   0.05905   0.00000  Uiso   1.00
C383   C     0.08498   0.48323   0.00958   0.00000  Uiso   1.00
C384   C     0.09985   0.38343   0.00108   0.00000  Uiso   1.00
C385   C     0.08671   0.31750   0.95322   0.00000  Uiso   1.00
C386   C     0.10257   0.66994   0.02053   0.00000  Uiso   1.00
C387   C     0.13222   0.72714   0.02124   0.00000  Uiso   1.00
C388   C     0.13389   0.81840   0.98261   0.00000  Uiso   1.00
C389   C     0.06437   0.59194   0.09915   0.00000  Uiso   1.00
C390   C     0.06191   0.58358   0.16596   0.00000  Uiso   1.00
C391   C     0.03142   0.60921   0.19353   0.00000  Uiso   1.00
H392   H     0.02453   0.65380   0.95964   0.00000  Uiso   1.00
H393   H     0.02387   0.47561   0.89442   0.00000  Uiso   1.00
H394   H     0.05624   0.81928   0.91458   0.00000  Uiso   1.00
H395   H     0.98594   0.67574   0.05929   0.00000  Uiso   1.00
H396   H     0.03507   0.26362   0.83883   0.00000  Uiso   1.00
H397   H     0.10331   0.98827   0.88137   0.00000  Uiso   1.00
H398   H     0.95506   0.68560   0.18650   0.00000  Uiso   1.00
H399   H     0.11639   0.54239   0.08859   0.00000  Uiso   1.00
H400   H     0.12076   0.35808   0.03045   0.00000  Uiso   1.00
H401   H     0.15313   0.70175   0.05061   0.00000  Uiso   1.00
H402   H     0.08283   0.55821   0.19532   0.00000  Uiso   1.00
H403   H     0.11371   0.16823   0.94924   0.00000  Uiso   1.00
H404   H     0.18195   0.89289   0.99177   0.00000  Uiso   1.00
H405   H     0.03371   0.59021   0.29691   0.00000  Uiso   1.00
O406   O     0.07562   0.09671   0.85345   0.00000  Uiso   1.00
O407   O     0.16514   0.04744   0.90926   0.00000  Uiso   1.00
O408   O     0.97065   0.65033   0.30959   0.00000  Uiso   1.00
N409   N     0.05297   0.26646   0.87281   0.00000  Uiso   1.00
N410   N     0.11677   0.94395   0.91256   0.00000  Uiso   1.00
N411   N     0.97818   0.66101   0.19784   0.00000  Uiso   1.00
N412   N     0.09529   0.21513   0.93221   0.00000  Uiso   1.00
N413   N     0.15909   0.89263   0.97197   0.00000  Uiso   1.00
N414   N     0.02050   0.60968   0.25725   0.00000  Uiso   1.00
C415   C     0.04557   0.12827   0.48918   0.00000  Uiso   1.00
C416   C     0.05795   0.01600   0.47163   0.00000  Uiso   1.00
C417   C     0.04479   0.95021   0.42378   0.00000  Uiso   1.00
C418   C     0.05963   0.85035   0.41520   0.00000  Uiso   1.00
C419   C     0.07474   0.68104   0.38216   0.00000  Uiso   1.00
C420   C     0.07554   0.20272   0.48258   0.00000  Uiso   1.00
C421   C     0.07716   0.29392   0.44394   0.00000  Uiso   1.00
C422   C     0.10681   0.35124   0.44459   0.00000  Uiso   1.00
C423   C     0.14922   0.47186   0.42858   0.00000  Uiso   1.00
C424   C     0.03734   0.12472   0.56120   0.00000  Uiso   1.00
C425   C     0.00685   0.15037   0.58867   0.00000  Uiso   1.00
C426   C     0.00434   0.14205   0.65551   0.00000  Uiso   1.00
C427   C     0.98744   0.14156   0.76157   0.00000  Uiso   1.00
C428   C     0.09534   0.06791   0.55905   0.00000  Uiso   1.00
C429   C     0.08498   0.98323   0.50958   0.00000  Uiso   1.00
C430   C     0.09985   0.88343   0.50108   0.00000  Uiso   1.00
C431   C     0.08671   0.81750   0.45322   0.00000  Uiso   1.00
C432   C     0.10257   0.16994   0.52053   0.00000  Uiso   1.00
C433   C     0.13222   0.22714   0.52124   0.00000  Uiso   1.00
C434   C     0.13389   0.31840   0.48261   0.00000  Uiso   1.00
C435   C     0.06437   0.09194   0.59915   0.00000  Uiso   1.00
C436   C     0.06191   0.08358   0.66596   0.00000  Uiso   1.00
C437   C     0.03142   0.10921   0.69353   0.00000  Uiso   1.00
H438   H     0.02453   0.15380   0.45964   0.00000  Uiso   1.00
H439   H     0.02387   0.97561   0.39442   0.00000  Uiso   1.00
H440   H     0.05624   0.31928   0.41458   0.00000  Uiso   1.00
H441   H     0.98594   0.17574   0.55929   0.00000  Uiso   1.00
H442   H     0.03507   0.76362   0.33883   0.00000  Uiso   1.00
H443   H     0.10331   0.48827   0.38137   0.00000  Uiso   1.00
H444   H     0.95506   0.18560   0.68650   0.00000  Uiso   1.00
H445   H     0.11639   0.04239   0.58859   0.00000  Uiso   1.00
H446   H     0.12076   0.85808   0.53045   0.00000  Uiso   1.00
H447   H     0.15313   0.20175   0.55061   0.00000  Uiso   1.00
H448   H     0.08283   0.05821   0.69532   0.00000  Uiso   1.00
H449   H     0.11371   0.66823   0.44924   0.00000  Uiso   1.00
H450   H     0.18195   0.39289   0.49177   0.00000  Uiso   1.00
H451   H     0.03371   0.09021   0.79691   0.00000  Uiso   1.00
O452   O     0.07562   0.59671   0.35345   0.00000  Uiso   1.00
O453   O     0.16514   0.54744   0.40926   0.00000  Uiso   1.00
O454   O     0.97065   0.15033   0.80959   0.00000  Uiso   1.00
N455   N     0.05297   0.76646   0.37281   0.00000  Uiso   1.00
N456   N     0.11677   0.44395   0.41256   0.00000  Uiso   1.00
N457   N     0.97818   0.16101   0.69784   0.00000  Uiso   1.00
N458   N     0.09529   0.71513   0.43221   0.00000  Uiso   1.00
N459   N     0.15909   0.39263   0.47197   0.00000  Uiso   1.00
N460   N     0.02050   0.10968   0.75725   0.00000  Uiso   1.00
C461   C     0.54557   0.62827   0.48918   0.00000  Uiso   1.00
C462   C     0.55795   0.51600   0.47163   0.00000  Uiso   1.00
C463   C     0.54479   0.45021   0.42378   0.00000  Uiso   1.00
C464   C     0.55963   0.35035   0.41520   0.00000  Uiso   1.00
C465   C     0.57474   0.18104   0.38216   0.00000  Uiso   1.00
C466   C     0.57554   0.70272   0.48258   0.00000  Uiso   1.00
C467   C     0.57716   0.79392   0.44394   0.00000  Uiso   1.00
C468   C     0.60681   0.85124   0.44459   0.00000  Uiso   1.00
C469   C     0.64922   0.97186   0.42858   0.00000  Uiso   1.00
C470   C     0.53734   0.62472   0.56120   0.00000  Uiso   1.00
C471   C     0.50685   0.65037   0.58867   0.00000  Uiso   1.00
C472   C     0.50434   0.64205   0.65551   0.00000  Uiso   1.00
C473   C     0.48744   0.64156   0.76157   0.00000  Uiso   1.00
C474   C     0.59534   0.56791   0.55905   0.00000  Uiso   1.00
C475   C     0.58498   0.48323   0.50958   0.00000  Uiso   1.00
C476   C     0.59985   0.38343   0.50108   0.00000  Uiso   1.00
C477   C     0.58671   0.31750   0.45322   0.00000  Uiso   1.00
C478   C     0.60257   0.66994   0.52053   0.00000  Uiso   1.00
C479   C     0.63222   0.72714   0.52124   0.00000  Uiso   1.00
C480   C     0.63389   0.81840   0.48261   0.00000  Uiso   1.00
C481   C     0.56437   0.59194   0.59915   0.00000  Uiso   1.00
C482   C     0.56191   0.58358   0.66596   0.00000  Uiso   1.00
C483   C     0.53142   0.60921   0.69353   0.00000  Uiso   1.00
H484   H     0.52453   0.65380   0.45964   0.00000  Uiso   1.00
H485   H     0.52387   0.47561   0.39442   0.00000  Uiso   1.00
H486   H     0.55624   0.81928   0.41458   0.00000  Uiso   1.00
H487   H     0.48594   0.67574   0.55929   0.00000  Uiso   1.00
H488   H     0.53507   0.26362   0.33883   0.00000  Uiso   1.00
H489   H     0.60331   0.98827   0.38137   0.00000  Uiso   1.00
H490   H     0.45506   0.68560   0.68650   0.00000  Uiso   1.00
H491   H     0.61639   0.54239   0.58859   0.00000  Uiso   1.00
H492   H     0.62076   0.35808   0.53045   0.00000  Uiso   1.00
H493   H     0.65313   0.70175   0.55061   0.00000  Uiso   1.00
H494   H     0.58283   0.55821   0.69532   0.00000  Uiso   1.00
H495   H     0.61371   0.16823   0.44924   0.00000  Uiso   1.00
H496   H     0.68195   0.89289   0.49177   0.00000  Uiso   1.00
H497   H     0.53371   0.59021   0.79691   0.00000  Uiso   1.00
O498   O     0.57562   0.09671   0.35345   0.00000  Uiso   1.00
O499   O     0.66514   0.04744   0.40926   0.00000  Uiso   1.00
O500   O     0.47065   0.65033   0.80959   0.00000  Uiso   1.00
N501   N     0.55297   0.26646   0.37281   0.00000  Uiso   1.00
N502   N     0.61677   0.94395   0.41256   0.00000  Uiso   1.00
N503   N     0.47818   0.66101   0.69784   0.00000  Uiso   1.00
N504   N     0.59529   0.21513   0.43221   0.00000  Uiso   1.00
N505   N     0.65909   0.89263   0.47197   0.00000  Uiso   1.00
N506   N     0.52050   0.60968   0.75725   0.00000  Uiso   1.00
C507   C     0.54557   0.12827   0.98918   0.00000  Uiso   1.00
C508   C     0.55795   0.01600   0.97163   0.00000  Uiso   1.00
C509   C     0.54479   0.95021   0.92378   0.00000  Uiso   1.00
C510   C     0.55963   0.85035   0.91520   0.00000  Uiso   1.00
C511   C     0.57474   0.68104   0.88216   0.00000  Uiso   1.00
C512   C     0.57554   0.20272   0.98258   0.00000  Uiso   1.00
C513   C     0.57716   0.29392   0.94394   0.00000  Uiso   1.00
C514   C     0.60681   0.35124   0.94459   0.00000  Uiso   1.00
C515   C     0.64922   0.47186   0.92858   0.00000  Uiso   1.00
C516   C     0.53734   0.12472   0.06120   0.00000  Uiso   1.00
C517   C     0.50685   0.15037   0.08867   0.00000  Uiso   1.00
C518   C     0.50434   0.14205   0.15551   0.00000  Uiso   1.00
C519   C     0.48744   0.14156   0.26157   0.00000  Uiso   1.00
C520   C     0.59534   0.06791   0.05905   0.00000  Uiso   1.00
C521   C     0.58498   0.98323   0.00958   0.00000  Uiso   1.00
C522   C     0.59985   0.88343   0.00108   0.00000  Uiso   1.00
C523   C     0.58671   0.81750   0.95322   0.00000  Uiso   1.00
C524   C     0.60257   0.16994   0.02053   0.00000  Uiso   1.00
C525   C     0.63222   0.22714   0.02124   0.00000  Uiso   1.00
C526   C     0.63389   0.31840   0.98261   0.00000  Uiso   1.00
C527   C     0.56437   0.09194   0.09915   0.00000  Uiso   1.00
C528   C     0.56191   0.08358   0.16596   0.00000  Uiso   1.00
C529   C     0.53142   0.10921   0.19353   0.00000  Uiso   1.00
H530   H     0.52453   0.15380   0.95964   0.00000  Uiso   1.00
H531   H     0.52387   0.97561   0.89442   0.00000  Uiso   1.00
H532   H     0.55624   0.31928   0.91458   0.00000  Uiso   1.00
H533   H     0.48594   0.17574   0.05929   0.00000  Uiso   1.00
H534   H     0.53507   0.76362   0.83883   0.00000  Uiso   1.00
H535   H     0.60331   0.48827   0.88137   0.00000  Uiso   1.00
H536   H     0.45506   0.18560   0.18650   0.00000  Uiso   1.00
H537   H     0.61639   0.04239   0.08859   0.00000  Uiso   1.00
H538   H     0.62076   0.85808   0.03045   0.00000  Uiso   1.00
H539   H     0.65313   0.20175   0.05061   0.00000  Uiso   1.00
H540   H     0.58283   0.05821   0.19532   0.00000  Uiso   1.00
H541   H     0.61371   0.66823   0.94924   0.00000  Uiso   1.00
H542   H     0.68195   0.39289   0.99177   0.00000  Uiso   1.00
H543   H     0.53371   0.09021   0.29691   0.00000  Uiso   1.00
O544   O     0.57562   0.59671   0.85345   0.00000  Uiso   1.00
O545   O     0.66514   0.54744   0.90926   0.00000  Uiso   1.00
O546   O     0.47065   0.15033   0.30959   0.00000  Uiso   1.00
N547   N     0.55297   0.76646   0.87281   0.00000  Uiso   1.00
N548   N     0.61677   0.44395   0.91256   0.00000  Uiso   1.00
N549   N     0.47818   0.16101   0.19784   0.00000  Uiso   1.00
N550   N     0.59529   0.71513   0.93221   0.00000  Uiso   1.00
N551   N     0.65909   0.39263   0.97197   0.00000  Uiso   1.00
N552   N     0.52050   0.10968   0.25725   0.00000  Uiso   1.00
C553   C     0.45443   0.87173   0.98918   0.00000  Uiso   1.00
C554   C     0.44205   0.98400   0.97163   0.00000  Uiso   1.00
C555   C     0.45521   0.04979   0.92378   0.00000  Uiso   1.00
C556   C     0.44037   0.14965   0.91520   0.00000  Uiso   1.00
C557   C     0.42526   0.31896   0.88216   0.00000  Uiso   1.00
C558   C     0.42446   0.79728   0.98258   0.00000  Uiso   1.00
C559   C     0.42284   0.70608   0.94394   0.00000  Uiso   1.00
C560   C     0.39319   0.64876   0.94459   0.00000  Uiso   1.00
C561   C     0.35078   0.52814   0.92858   0.00000  Uiso   1.00
C562   C     0.46266   0.87528   0.06120   0.00000  Uiso   1.00
C563   C     0.49315   0.84963   0.08867   0.00000  Uiso   1.00
C564   C     0.49566   0.85795   0.15551   0.00000  Uiso   1.00
C565   C     0.51256   0.85844   0.26157   0.00000  Uiso   1.00
C566   C     0.40466   0.93209   0.05905   0.00000  Uiso   1.00
C567   C     0.41502   0.01677   0.00958   0.00000  Uiso   1.00
C568   C     0.40015   0.11657   0.00108   0.00000  Uiso   1.00
C569   C     0.41329   0.18250   0.95322   0.00000  Uiso   1.00
C570   C     0.39743   0.83006   0.02053   0.00000  Uiso   1.00
C571   C     0.36778   0.77286   0.02124   0.00000  Uiso   1.00
C572   C     0.36611   0.68160   0.98261   0.00000  Uiso   1.00
C573   C     0.43563   0.90806   0.09915   0.00000  Uiso   1.00
C574   C     0.43809   0.91642   0.16596   0.00000  Uiso   1.00
C575   C     0.46858   0.89079   0.19353   0.00000  Uiso   1.00
H576   H     0.47547   0.84620   0.95964   0.00000  Uiso   1.00
H577   H     0.47613   0.02439   0.89442   0.00000  Uiso   1.00
H578   H     0.44376   0.68072   0.91458   0.00000  Uiso   1.00
H579   H     0.51406   0.82426   0.05929   0.00000  Uiso   1.00
H580   H     0.46493   0.23638   0.83883   0.00000  Uiso   1.00
H581   H     0.39669   0.51173   0.88137   0.00000  Uiso   1.00
H582   H     0.54494   0.81440   0.18650   0.00000  Uiso   1.00
H583   H     0.38361   0.95761   0.08859   0.00000  Uiso   1.00
H584   H     0.37924   0.14192   0.03045   0.00000  Uiso   1.00
H585   H     0.34687   0.79825   0.05061   0.00000  Uiso   1.00
H586   H     0.41717   0.94179   0.19532   0.00000  Uiso   1.00
H587   H     0.38629   0.33177   0.94924   0.00000  Uiso   1.00
H588   H     0.31805   0.60711   0.99177   0.00000  Uiso   1.00
H589   H     0.46629   0.90979   0.29691   0.00000  Uiso   1.00
O590   O     0.42438   0.40329   0.85345   0.00000  Uiso   1.00
O591   O     0.33486   0.45256   0.90926   0.00000  Uiso   1.00
O592   O     0.52935   0.84967   0.30959   0.00000  Uiso   1.00
N593   N     0.44703   0.23354   0.87281   0.00000  Uiso   1.00
N594   N     0.38323   0.55605   0.91256   0.00000  Uiso   1.00
N595   N     0.52182   0.83899   0.19784   0.00000  Uiso   1.00
N596   N     0.40471   0.28487   0.93221   0.00000  Uiso   1.00
N597   N     0.34091   0.60737   0.97197   0.00000  Uiso   1.00
N598   N     0.47950   0.89032   0.25725   0.00000  Uiso   1.00
C599   C     0.45443   0.37173   0.48918   0.00000  Uiso   1.00
C600   C     0.44205   0.48400   0.47163   0.00000  Uiso   1.00
C601   C     0.45521   0.54979   0.42378   0.00000  Uiso   1.00
C602   C     0.44037   0.64965   0.41520   0.00000  Uiso   1.00
C603   C     0.42526   0.81896   0.38216   0.00000  Uiso   1.00
C604   C     0.42446   0.29728   0.48258   0.00000  Uiso   1.00
C605   C     0.42284   0.20608   0.44394   0.00000  Uiso   1.00
C606   C     0.39319   0.14876   0.44459   0.00000  Uiso   1.00
C607   C     0.35078   0.02814   0.42858   0.00000  Uiso   1.00
C608   C     0.46266   0.37528   0.56120   0.00000  Uiso   1.00
C609   C     0.49315   0.34963   0.58867   0.00000  Uiso   1.00
C610   C     0.49566   0.35795   0.65551   0.00000  Uiso   1.00
C611   C     0.51256   0.35844   0.76157   0.00000  Uiso   1.00
C612   C     0.40466   0.43209   0.55905   0.00000  Uiso   1.00
C613   C     0.41502   0.51677   0.50958   0.00000  Uiso   1.00
C614   C     0.40015   0.61657   0.50108   0.00000  Uiso   1.00
C615   C     0.41329   0.68250   0.45322   0.00000  Uiso   1.00
C616   C     0.39743   0.33006   0.52053   0.00000  Uiso   1.00
C617   C     0.36778   0.27286   0.52124   0.00000  Uiso   1.00
C618   C     0.36611   0.18160   0.48261   0.00000  Uiso   1.00
C619   C     0.43563   0.40806   0.59915   0.00000  Uiso   1.00
C620   C     0.43809   0.41642   0.66596   0.00000  Uiso   1.00
C621   C     0.46858   0.39079   0.69353   0.00000  Uiso   1.00
H622   H     0.47547   0.34620   0.45964   0.00000  Uiso   1.00
H623   H     0.47613   0.52439   0.39442   0.00000  Uiso   1.00
H624   H     0.44376   0.18072   0.41458   0.00000  Uiso   1.00
H625   H     0.51406   0.32426   0.55929   0.00000  Uiso   1.00
H626   H     0.46493   0.73638   0.33883   0.00000  Uiso   1.00
H627   H     0.39669   0.01173   0.38137   0.00000  Uiso   1.00
H628   H     0.54494   0.31440   0.68650   0.00000  Uiso   1.00
H629   H     0.38361   0.45761   0.58859   0.00000  Uiso   1.00
H630   H     0.37924   0.64192   0.53045   0.00000  Uiso   1.00
H631   H     0.34687   0.29825   0.55061   0.00000  Uiso   1.00
H632   H     0.41717   0.44179   0.69532   0.00000  Uiso   1.00
H633   H     0.38629   0.83177   0.44924   0.00000  Uiso   1.00
H634   H     0.31805   0.10711   0.49177   0.00000  Uiso   1.00
H635   H     0.46629   0.40979   0.79691   0.00000  Uiso   1.00
O636   O     0.42438   0.90329   0.35345   0.00000  Uiso   1.00
O637   O     0.33486   0.95256   0.40926   0.00000  Uiso   1.00
O638   O     0.52935   0.34967   0.80959   0.00000  Uiso   1.00
N639   N     0.44703   0.73354   0.37281   0.00000  Uiso   1.00
N640   N     0.38323   0.05605   0.41256   0.00000  Uiso   1.00
N641   N     0.52182   0.33899   0.69784   0.00000  Uiso   1.00
N642   N     0.40471   0.78487   0.43221   0.00000  Uiso   1.00
N643   N     0.34091   0.10737   0.47197   0.00000  Uiso   1.00
N644   N     0.47950   0.39032   0.75725   0.00000  Uiso   1.00
C645   C     0.95443   0.87173   0.48918   0.00000  Uiso   1.00
C646   C     0.94205   0.98400   0.47163   0.00000  Uiso   1.00
C647   C     0.95521   0.04979   0.42378   0.00000  Uiso   1.00
C648   C     0.94037   0.14965   0.41520   0.00000  Uiso   1.00
C649   C     0.92526   0.31896   0.38216   0.00000  Uiso   1.00
C650   C     0.92446   0.79728   0.48258   0.00000  Uiso   1.00
C651   C     0.92284   0.70608   0.44394   0.00000  Uiso   1.00
C652   C     0.89319   0.64876   0.44459   0.00000  Uiso   1.00
C653   C     0.85078   0.52814   0.42858   0.00000  Uiso   1.00
C654   C     0.96266   0.87528   0.56120   0.00000  Uiso   1.00
C655   C     0.99315   0.84963   0.58867   0.00000  Uiso   1.00
C656   C     0.99566   0.85795   0.65551   0.00000  Uiso   1.00
C657   C     0.01256   0.85844   0.76157   0.00000  Uiso   1.00
C658   C     0.90466   0.93209   0.55905   0.00000  Uiso   1.00
C659   C     0.91502   0.01677   0.50958   0.00000  Uiso   1.00
C660   C     0.90015   0.11657   0.50108   0.00000  Uiso   1.00
C661   C     0.91329   0.18250   0.45322   0.00000  Uiso   1.00
C662   C     0.89743   0.83006   0.52053   0.00000  Uiso   1.00
C663   C     0.86778   0.77286   0.52124   0.00000  Uiso   1.00
C664   C     0.86611   0.68160   0.48261   0.00000  Uiso   1.00
C665   C     0.93563   0.90806   0.59915   0.00000  Uiso   1.00
C666   C     0.93809   0.91642   0.66596   0.00000  Uiso   1.00
C667   C     0.96858   0.89079   0.69353   0.00000  Uiso   1.00
H668   H     0.97547   0.84620   0.45964   0.00000  Uiso   1.00
H669   H     0.97613   0.02439   0.39442   0.00000  Uiso   1.00
H670   H     0.94376   0.68072   0.41458   0.00000  Uiso   1.00
H671   H     0.01406   0.82426   0.55929   0.00000  Uiso   1.00
H672   H     0.96493   0.23638   0.33883   0.00000  Uiso   1.00
H673   H     0.89669   0.51173   0.38137   0.00000  Uiso   1.00
H674   H     0.04494   0.81440   0.68650   0.00000  Uiso   1.00
H675   H     0.88361   0.95761   0.58859   0.00000  Uiso   1.00
H676   H     0.87924   0.14192   0.53045   0.00000  Uiso   1.00
H677   H     0.84687   0.79825   0.55061   0.00000  Uiso   1.00
H678   H     0.91717   0.94179   0.69532   0.00000  Uiso   1.00
H679   H     0.88629   0.33177   0.44924   0.00000  Uiso   1.00
H680   H     0.81805   0.60711   0.49177   0.00000  Uiso   1.00
H681   H     0.96629   0.90979   0.79691   0.00000  Uiso   1.00
O682   O     0.92438   0.40329   0.35345   0.00000  Uiso   1.00
O683   O     0.83486   0.45256   0.40926   0.00000  Uiso   1.00
O684   O     0.02935   0.84967   0.80959   0.00000  Uiso   1.00
N685   N     0.94703   0.23354   0.37281   0.00000  Uiso   1.00
N686   N     0.88323   0.55605   0.41256   0.00000  Uiso   1.00
N687   N     0.02182   0.83899   0.69784   0.00000  Uiso   1.00
N688   N     0.90471   0.28487   0.43221   0.00000  Uiso   1.00
N689   N     0.84091   0.60737   0.47197   0.00000  Uiso   1.00
N690   N     0.97950   0.89032   0.75725   0.00000  Uiso   1.00
C691   C     0.95443   0.37173   0.98918   0.00000  Uiso   1.00
C692   C     0.94205   0.48400   0.97163   0.00000  Uiso   1.00
C693   C     0.95521   0.54979   0.92378   0.00000  Uiso   1.00
C694   C     0.94037   0.64965   0.91520   0.00000  Uiso   1.00
C695   C     0.92526   0.81896   0.88216   0.00000  Uiso   1.00
C696   C     0.92446   0.29728   0.98258   0.00000  Uiso   1.00
C697   C     0.92284   0.20608   0.94394   0.00000  Uiso   1.00
C698   C     0.89319   0.14876   0.94459   0.00000  Uiso   1.00
C699   C     0.85078   0.02814   0.92858   0.00000  Uiso   1.00
C700   C     0.96266   0.37528   0.06120   0.00000  Uiso   1.00
C701   C     0.99315   0.34963   0.08867   0.00000  Uiso   1.00
C702   C     0.99566   0.35795   0.15551   0.00000  Uiso   1.00
C703   C     0.01256   0.35844   0.26157   0.00000  Uiso   1.00
C704   C     0.90466   0.43209   0.05905   0.00000  Uiso   1.00
C705   C     0.91502   0.51677   0.00958   0.00000  Uiso   1.00
C706   C     0.90015   0.61657   0.00108   0.00000  Uiso   1.00
C707   C     0.91329   0.68250   0.95322   0.00000  Uiso   1.00
C708   C     0.89743   0.33006   0.02053   0.00000  Uiso   1.00
C709   C     0.86778   0.27286   0.02124   0.00000  Uiso   1.00
C710   C     0.86611   0.18160   0.98261   0.00000  Uiso   1.00
C711   C     0.93563   0.40806   0.09915   0.00000  Uiso   1.00
C712   C     0.93809   0.41642   0.16596   0.00000  Uiso   1.00
C713   C     0.96858   0.39079   0.19353   0.00000  Uiso   1.00
H714   H     0.97547   0.34620   0.95964   0.00000  Uiso   1.00
H715   H     0.97613   0.52439   0.89442   0.00000  Uiso   1.00
H716   H     0.94376   0.18072   0.91458   0.00000  Uiso   1.00
H717   H     0.01406   0.32426   0.05929   0.00000  Uiso   1.00
H718   H     0.96493   0.73638   0.83883   0.00000  Uiso   1.00
H719   H     0.89669   0.01173   0.88137   0.00000  Uiso   1.00
H720   H     0.04494   0.31440   0.18650   0.00000  Uiso   1.00
H721   H     0.88361   0.45761   0.08859   0.00000  Uiso   1.00
H722   H     0.87924   0.64192   0.03045   0.00000  Uiso   1.00
H723   H     0.84687   0.29825   0.05061   0.00000  Uiso   1.00
H724   H     0.91717   0.44179   0.19532   0.00000  Uiso   1.00
H725   H     0.88629   0.83177   0.94924   0.00000  Uiso   1.00
H726   H     0.81805   0.10711   0.99177   0.00000  Uiso   1.00
H727   H     0.96629   0.40979   0.29691   0.00000  Uiso   1.00
O728   O     0.92438   0.90329   0.85345   0.00000  Uiso   1.00
O729   O     0.83486   0.95256   0.90926   0.00000  Uiso   1.00
O730   O     0.02935   0.34967   0.30959   0.00000  Uiso   1.00
N731   N     0.94703   0.73354   0.87281   0.00000  Uiso   1.00
N732   N     0.88323   0.05605   0.91256   0.00000  Uiso   1.00
N733   N     0.02182   0.33899   0.19784   0.00000  Uiso   1.00
N734   N     0.90471   0.78487   0.93221   0.00000  Uiso   1.00
N735   N     0.84091   0.10737   0.97197   0.00000  Uiso   1.00
N736   N     0.97950   0.39032   0.25725   0.00000  Uiso   1.00
