data_job_03005
_audit_creation_date              2018-12-19
_audit_creation_method            'Materials Studio'
_symmetry_space_group_name_H-M    'P1'
_symmetry_Int_Tables_number       1
_symmetry_cell_setting            triclinic
loop_
_symmetry_equiv_pos_as_xyz
  x,y,z
_cell_length_a                    21.4581
_cell_length_b                    23.6675
_cell_length_c                    26.3312
_cell_angle_alpha                 90.0000
_cell_angle_beta                  90.0000
_cell_angle_gamma                 90.0000
loop_
_atom_site_label
_atom_site_type_symbol
_atom_site_fract_x
_atom_site_fract_y
_atom_site_fract_z
_atom_site_U_iso_or_equiv
_atom_site_adp_type
_atom_site_occupancy
C1     C     0.20303   0.82627   0.63079   0.00000  Uiso   1.00
C2     C     0.16996   0.83166   0.68182   0.00000  Uiso   1.00
C3     C     0.19643   0.85158   0.72645   0.00000  Uiso   1.00
C4     C     0.15842   0.85323   0.76909   0.00000  Uiso   1.00
C5     C     0.11655   0.86426   0.84864   0.00000  Uiso   1.00
C6     C     0.19629   0.76458   0.61500   0.00000  Uiso   1.00
C7     C     0.24490   0.72811   0.60344   0.00000  Uiso   1.00
C8     C     0.22905   0.67329   0.58983   0.00000  Uiso   1.00
C9     C     0.22806   0.58019   0.56559   0.00000  Uiso   1.00
C10    C     0.16431   0.86029   0.59306   0.00000  Uiso   1.00
C11    C     0.18604   0.90428   0.56304   0.00000  Uiso   1.00
C12    C     0.14327   0.93002   0.53095   0.00000  Uiso   1.00
C13    C     0.09262   0.98552   0.47266   0.00000  Uiso   1.00
C14    C     0.08843   0.79377   0.62716   0.00000  Uiso   1.00
C15    C     0.10771   0.81400   0.67985   0.00000  Uiso   1.00
C16    C     0.06965   0.81562   0.72244   0.00000  Uiso   1.00
C17    C     0.09606   0.83554   0.76712   0.00000  Uiso   1.00
C18    C     0.13405   0.74693   0.61303   0.00000  Uiso   1.00
C19    C     0.11812   0.69215   0.59943   0.00000  Uiso   1.00
C20    C     0.16670   0.65560   0.58785   0.00000  Uiso   1.00
C21    C     0.10206   0.84263   0.59109   0.00000  Uiso   1.00
C22    C     0.05925   0.86831   0.55903   0.00000  Uiso   1.00
C23    C     0.08091   0.91233   0.52898   0.00000  Uiso   1.00
H24    H     0.25149   0.84002   0.63232   0.00000  Uiso   1.00
H25    H     0.24461   0.86524   0.72796   0.00000  Uiso   1.00
H26    H     0.29307   0.74179   0.60496   0.00000  Uiso   1.00
H27    H     0.23421   0.91793   0.56458   0.00000  Uiso   1.00
H28    H     0.20953   0.88540   0.83313   0.00000  Uiso   1.00
H29    H     0.31171   0.62510   0.57377   0.00000  Uiso   1.00
H30    H     0.18761   0.99652   0.48860   0.00000  Uiso   1.00
H31    H     0.03997   0.78002   0.62563   0.00000  Uiso   1.00
H32    H     0.02148   0.80195   0.72090   0.00000  Uiso   1.00
H33    H     0.06994   0.67850   0.59790   0.00000  Uiso   1.00
H34    H     0.01109   0.85464   0.55752   0.00000  Uiso   1.00
H35    H     0.02844   0.83403   0.82740   0.00000  Uiso   1.00
H36    H     0.13062   0.57373   0.56803   0.00000  Uiso   1.00
H37    H     0.00651   0.94515   0.48287   0.00000  Uiso   1.00
O38    O     0.11065   0.87521   0.89306   0.00000  Uiso   1.00
O39    O     0.24470   0.53371   0.55278   0.00000  Uiso   1.00
O40    O     0.08188   0.02101   0.44105   0.00000  Uiso   1.00
N41    N     0.16945   0.87031   0.81870   0.00000  Uiso   1.00
N42    N     0.26498   0.62694   0.57622   0.00000  Uiso   1.00
N43    N     0.14895   0.97418   0.49659   0.00000  Uiso   1.00
N44    N     0.07200   0.84267   0.81562   0.00000  Uiso   1.00
N45    N     0.16754   0.59930   0.57314   0.00000  Uiso   1.00
N46    N     0.05151   0.94654   0.49351   0.00000  Uiso   1.00
C47    C     0.70303   0.32627   0.13079   0.00000  Uiso   1.00
C48    C     0.66996   0.33166   0.18182   0.00000  Uiso   1.00
C49    C     0.69643   0.35158   0.22645   0.00000  Uiso   1.00
C50    C     0.65842   0.35323   0.26909   0.00000  Uiso   1.00
C51    C     0.61655   0.36426   0.34864   0.00000  Uiso   1.00
C52    C     0.69629   0.26458   0.11500   0.00000  Uiso   1.00
C53    C     0.74490   0.22811   0.10344   0.00000  Uiso   1.00
C54    C     0.72905   0.17329   0.08983   0.00000  Uiso   1.00
C55    C     0.72806   0.08019   0.06559   0.00000  Uiso   1.00
C56    C     0.66431   0.36029   0.09306   0.00000  Uiso   1.00
C57    C     0.68604   0.40428   0.06304   0.00000  Uiso   1.00
C58    C     0.64327   0.43002   0.03095   0.00000  Uiso   1.00
C59    C     0.59262   0.48552   0.97266   0.00000  Uiso   1.00
C60    C     0.58843   0.29377   0.12716   0.00000  Uiso   1.00
C61    C     0.60771   0.31400   0.17985   0.00000  Uiso   1.00
C62    C     0.56965   0.31562   0.22244   0.00000  Uiso   1.00
C63    C     0.59606   0.33554   0.26712   0.00000  Uiso   1.00
C64    C     0.63405   0.24693   0.11303   0.00000  Uiso   1.00
C65    C     0.61812   0.19215   0.09943   0.00000  Uiso   1.00
C66    C     0.66670   0.15560   0.08785   0.00000  Uiso   1.00
C67    C     0.60206   0.34263   0.09109   0.00000  Uiso   1.00
C68    C     0.55925   0.36831   0.05903   0.00000  Uiso   1.00
C69    C     0.58091   0.41233   0.02898   0.00000  Uiso   1.00
H70    H     0.75149   0.34002   0.13232   0.00000  Uiso   1.00
H71    H     0.74461   0.36524   0.22796   0.00000  Uiso   1.00
H72    H     0.79307   0.24179   0.10496   0.00000  Uiso   1.00
H73    H     0.73421   0.41793   0.06458   0.00000  Uiso   1.00
H74    H     0.70953   0.38540   0.33313   0.00000  Uiso   1.00
H75    H     0.81171   0.12510   0.07377   0.00000  Uiso   1.00
H76    H     0.68761   0.49652   0.98860   0.00000  Uiso   1.00
H77    H     0.53997   0.28002   0.12563   0.00000  Uiso   1.00
H78    H     0.52148   0.30195   0.22090   0.00000  Uiso   1.00
H79    H     0.56994   0.17850   0.09790   0.00000  Uiso   1.00
H80    H     0.51109   0.35464   0.05752   0.00000  Uiso   1.00
H81    H     0.52844   0.33403   0.32740   0.00000  Uiso   1.00
H82    H     0.63062   0.07373   0.06803   0.00000  Uiso   1.00
H83    H     0.50651   0.44515   0.98287   0.00000  Uiso   1.00
O84    O     0.61065   0.37521   0.39306   0.00000  Uiso   1.00
O85    O     0.74470   0.03371   0.05278   0.00000  Uiso   1.00
O86    O     0.58188   0.52101   0.94105   0.00000  Uiso   1.00
N87    N     0.66945   0.37031   0.31870   0.00000  Uiso   1.00
N88    N     0.76498   0.12694   0.07622   0.00000  Uiso   1.00
N89    N     0.64895   0.47418   0.99659   0.00000  Uiso   1.00
N90    N     0.57200   0.34267   0.31562   0.00000  Uiso   1.00
N91    N     0.66754   0.09930   0.07314   0.00000  Uiso   1.00
N92    N     0.55151   0.44654   0.99351   0.00000  Uiso   1.00
C93    C     0.29697   0.17373   0.13079   0.00000  Uiso   1.00
C94    C     0.33004   0.16834   0.18182   0.00000  Uiso   1.00
C95    C     0.30357   0.14842   0.22645   0.00000  Uiso   1.00
C96    C     0.34158   0.14677   0.26909   0.00000  Uiso   1.00
C97    C     0.38345   0.13574   0.34864   0.00000  Uiso   1.00
C98    C     0.30371   0.23542   0.11500   0.00000  Uiso   1.00
C99    C     0.25510   0.27189   0.10344   0.00000  Uiso   1.00
C100   C     0.27095   0.32671   0.08983   0.00000  Uiso   1.00
C101   C     0.27194   0.41981   0.06559   0.00000  Uiso   1.00
C102   C     0.33569   0.13971   0.09306   0.00000  Uiso   1.00
C103   C     0.31396   0.09572   0.06304   0.00000  Uiso   1.00
C104   C     0.35673   0.06998   0.03095   0.00000  Uiso   1.00
C105   C     0.40738   0.01448   0.97266   0.00000  Uiso   1.00
C106   C     0.41157   0.20623   0.12716   0.00000  Uiso   1.00
C107   C     0.39229   0.18600   0.17985   0.00000  Uiso   1.00
C108   C     0.43035   0.18438   0.22244   0.00000  Uiso   1.00
C109   C     0.40394   0.16446   0.26712   0.00000  Uiso   1.00
C110   C     0.36595   0.25307   0.11303   0.00000  Uiso   1.00
C111   C     0.38188   0.30785   0.09943   0.00000  Uiso   1.00
C112   C     0.33330   0.34440   0.08785   0.00000  Uiso   1.00
C113   C     0.39794   0.15737   0.09109   0.00000  Uiso   1.00
C114   C     0.44075   0.13169   0.05903   0.00000  Uiso   1.00
C115   C     0.41909   0.08767   0.02898   0.00000  Uiso   1.00
H116   H     0.24851   0.15998   0.13232   0.00000  Uiso   1.00
H117   H     0.25539   0.13476   0.22796   0.00000  Uiso   1.00
H118   H     0.20693   0.25821   0.10496   0.00000  Uiso   1.00
H119   H     0.26579   0.08207   0.06458   0.00000  Uiso   1.00
H120   H     0.29047   0.11460   0.33313   0.00000  Uiso   1.00
H121   H     0.18829   0.37490   0.07377   0.00000  Uiso   1.00
H122   H     0.31239   0.00348   0.98860   0.00000  Uiso   1.00
H123   H     0.46003   0.21998   0.12563   0.00000  Uiso   1.00
H124   H     0.47852   0.19805   0.22090   0.00000  Uiso   1.00
H125   H     0.43006   0.32150   0.09790   0.00000  Uiso   1.00
H126   H     0.48891   0.14536   0.05752   0.00000  Uiso   1.00
H127   H     0.47156   0.16597   0.32740   0.00000  Uiso   1.00
H128   H     0.36938   0.42627   0.06803   0.00000  Uiso   1.00
H129   H     0.49349   0.05485   0.98287   0.00000  Uiso   1.00
O130   O     0.38935   0.12479   0.39306   0.00000  Uiso   1.00
O131   O     0.25530   0.46629   0.05278   0.00000  Uiso   1.00
O132   O     0.41812   0.97899   0.94105   0.00000  Uiso   1.00
N133   N     0.33055   0.12969   0.31870   0.00000  Uiso   1.00
N134   N     0.23502   0.37306   0.07622   0.00000  Uiso   1.00
N135   N     0.35105   0.02582   0.99659   0.00000  Uiso   1.00
N136   N     0.42800   0.15733   0.31562   0.00000  Uiso   1.00
N137   N     0.33246   0.40070   0.07314   0.00000  Uiso   1.00
N138   N     0.44849   0.05346   0.99351   0.00000  Uiso   1.00
C139   C     0.79697   0.67373   0.63079   0.00000  Uiso   1.00
C140   C     0.83004   0.66834   0.68182   0.00000  Uiso   1.00
C141   C     0.80357   0.64842   0.72645   0.00000  Uiso   1.00
C142   C     0.84158   0.64677   0.76909   0.00000  Uiso   1.00
C143   C     0.88345   0.63574   0.84864   0.00000  Uiso   1.00
C144   C     0.80371   0.73542   0.61500   0.00000  Uiso   1.00
C145   C     0.75510   0.77189   0.60344   0.00000  Uiso   1.00
C146   C     0.77095   0.82671   0.58983   0.00000  Uiso   1.00
C147   C     0.77194   0.91981   0.56559   0.00000  Uiso   1.00
C148   C     0.83569   0.63971   0.59306   0.00000  Uiso   1.00
C149   C     0.81396   0.59572   0.56304   0.00000  Uiso   1.00
C150   C     0.85673   0.56998   0.53095   0.00000  Uiso   1.00
C151   C     0.90738   0.51448   0.47266   0.00000  Uiso   1.00
C152   C     0.91157   0.70623   0.62716   0.00000  Uiso   1.00
C153   C     0.89229   0.68600   0.67985   0.00000  Uiso   1.00
C154   C     0.93035   0.68438   0.72244   0.00000  Uiso   1.00
C155   C     0.90394   0.66446   0.76712   0.00000  Uiso   1.00
C156   C     0.86595   0.75307   0.61303   0.00000  Uiso   1.00
C157   C     0.88188   0.80785   0.59943   0.00000  Uiso   1.00
C158   C     0.83330   0.84440   0.58785   0.00000  Uiso   1.00
C159   C     0.89794   0.65737   0.59109   0.00000  Uiso   1.00
C160   C     0.94075   0.63169   0.55903   0.00000  Uiso   1.00
C161   C     0.91909   0.58767   0.52898   0.00000  Uiso   1.00
H162   H     0.74851   0.65998   0.63232   0.00000  Uiso   1.00
H163   H     0.75539   0.63476   0.72796   0.00000  Uiso   1.00
H164   H     0.70693   0.75821   0.60496   0.00000  Uiso   1.00
H165   H     0.76579   0.58207   0.56458   0.00000  Uiso   1.00
H166   H     0.79047   0.61460   0.83313   0.00000  Uiso   1.00
H167   H     0.68829   0.87490   0.57377   0.00000  Uiso   1.00
H168   H     0.81239   0.50348   0.48860   0.00000  Uiso   1.00
H169   H     0.96003   0.71998   0.62563   0.00000  Uiso   1.00
H170   H     0.97852   0.69805   0.72090   0.00000  Uiso   1.00
H171   H     0.93006   0.82150   0.59790   0.00000  Uiso   1.00
H172   H     0.98891   0.64536   0.55752   0.00000  Uiso   1.00
H173   H     0.97156   0.66597   0.82740   0.00000  Uiso   1.00
H174   H     0.86938   0.92627   0.56803   0.00000  Uiso   1.00
H175   H     0.99349   0.55485   0.48287   0.00000  Uiso   1.00
O176   O     0.88935   0.62479   0.89306   0.00000  Uiso   1.00
O177   O     0.75530   0.96629   0.55278   0.00000  Uiso   1.00
O178   O     0.91812   0.47899   0.44105   0.00000  Uiso   1.00
N179   N     0.83055   0.62969   0.81870   0.00000  Uiso   1.00
N180   N     0.73502   0.87306   0.57622   0.00000  Uiso   1.00
N181   N     0.85105   0.52582   0.49659   0.00000  Uiso   1.00
N182   N     0.92800   0.65733   0.81562   0.00000  Uiso   1.00
N183   N     0.83246   0.90070   0.57314   0.00000  Uiso   1.00
N184   N     0.94849   0.55346   0.49351   0.00000  Uiso   1.00
C185   C     0.79697   0.32627   0.86921   0.00000  Uiso   1.00
C186   C     0.83004   0.33166   0.81818   0.00000  Uiso   1.00
C187   C     0.80357   0.35158   0.77355   0.00000  Uiso   1.00
C188   C     0.84158   0.35323   0.73091   0.00000  Uiso   1.00
C189   C     0.88345   0.36426   0.65136   0.00000  Uiso   1.00
C190   C     0.80371   0.26458   0.88500   0.00000  Uiso   1.00
C191   C     0.75510   0.22811   0.89656   0.00000  Uiso   1.00
C192   C     0.77095   0.17329   0.91017   0.00000  Uiso   1.00
C193   C     0.77194   0.08019   0.93441   0.00000  Uiso   1.00
C194   C     0.83569   0.36029   0.90694   0.00000  Uiso   1.00
C195   C     0.81396   0.40428   0.93696   0.00000  Uiso   1.00
C196   C     0.85673   0.43002   0.96905   0.00000  Uiso   1.00
C197   C     0.90738   0.48552   0.02734   0.00000  Uiso   1.00
C198   C     0.91157   0.29377   0.87284   0.00000  Uiso   1.00
C199   C     0.89229   0.31400   0.82015   0.00000  Uiso   1.00
C200   C     0.93035   0.31562   0.77756   0.00000  Uiso   1.00
C201   C     0.90394   0.33554   0.73288   0.00000  Uiso   1.00
C202   C     0.86595   0.24693   0.88697   0.00000  Uiso   1.00
C203   C     0.88188   0.19215   0.90057   0.00000  Uiso   1.00
C204   C     0.83330   0.15560   0.91215   0.00000  Uiso   1.00
C205   C     0.89794   0.34263   0.90891   0.00000  Uiso   1.00
C206   C     0.94075   0.36831   0.94097   0.00000  Uiso   1.00
C207   C     0.91909   0.41233   0.97102   0.00000  Uiso   1.00
H208   H     0.74851   0.34002   0.86768   0.00000  Uiso   1.00
H209   H     0.75539   0.36524   0.77204   0.00000  Uiso   1.00
H210   H     0.70693   0.24179   0.89504   0.00000  Uiso   1.00
H211   H     0.76579   0.41793   0.93542   0.00000  Uiso   1.00
H212   H     0.79047   0.38540   0.66687   0.00000  Uiso   1.00
H213   H     0.68829   0.12510   0.92623   0.00000  Uiso   1.00
H214   H     0.81239   0.49652   0.01140   0.00000  Uiso   1.00
H215   H     0.96003   0.28002   0.87437   0.00000  Uiso   1.00
H216   H     0.97852   0.30195   0.77910   0.00000  Uiso   1.00
H217   H     0.93006   0.17850   0.90210   0.00000  Uiso   1.00
H218   H     0.98891   0.35464   0.94248   0.00000  Uiso   1.00
H219   H     0.97156   0.33403   0.67260   0.00000  Uiso   1.00
H220   H     0.86938   0.07373   0.93197   0.00000  Uiso   1.00
H221   H     0.99349   0.44515   0.01713   0.00000  Uiso   1.00
O222   O     0.88935   0.37521   0.60694   0.00000  Uiso   1.00
O223   O     0.75530   0.03371   0.94722   0.00000  Uiso   1.00
O224   O     0.91812   0.52101   0.05895   0.00000  Uiso   1.00
N225   N     0.83055   0.37031   0.68130   0.00000  Uiso   1.00
N226   N     0.73502   0.12694   0.92378   0.00000  Uiso   1.00
N227   N     0.85105   0.47418   0.00341   0.00000  Uiso   1.00
N228   N     0.92800   0.34267   0.68438   0.00000  Uiso   1.00
N229   N     0.83246   0.09930   0.92686   0.00000  Uiso   1.00
N230   N     0.94849   0.44654   0.00649   0.00000  Uiso   1.00
C231   C     0.29697   0.82627   0.36921   0.00000  Uiso   1.00
C232   C     0.33004   0.83166   0.31818   0.00000  Uiso   1.00
C233   C     0.30357   0.85158   0.27355   0.00000  Uiso   1.00
C234   C     0.34158   0.85323   0.23091   0.00000  Uiso   1.00
C235   C     0.38345   0.86426   0.15136   0.00000  Uiso   1.00
C236   C     0.30371   0.76458   0.38500   0.00000  Uiso   1.00
C237   C     0.25510   0.72811   0.39656   0.00000  Uiso   1.00
C238   C     0.27095   0.67329   0.41017   0.00000  Uiso   1.00
C239   C     0.27194   0.58019   0.43441   0.00000  Uiso   1.00
C240   C     0.33569   0.86029   0.40694   0.00000  Uiso   1.00
C241   C     0.31396   0.90428   0.43696   0.00000  Uiso   1.00
C242   C     0.35673   0.93002   0.46905   0.00000  Uiso   1.00
C243   C     0.40738   0.98552   0.52734   0.00000  Uiso   1.00
C244   C     0.41157   0.79377   0.37284   0.00000  Uiso   1.00
C245   C     0.39229   0.81400   0.32015   0.00000  Uiso   1.00
C246   C     0.43035   0.81562   0.27756   0.00000  Uiso   1.00
C247   C     0.40394   0.83554   0.23288   0.00000  Uiso   1.00
C248   C     0.36595   0.74693   0.38697   0.00000  Uiso   1.00
C249   C     0.38188   0.69215   0.40057   0.00000  Uiso   1.00
C250   C     0.33330   0.65560   0.41215   0.00000  Uiso   1.00
C251   C     0.39794   0.84263   0.40891   0.00000  Uiso   1.00
C252   C     0.44075   0.86831   0.44097   0.00000  Uiso   1.00
C253   C     0.41909   0.91233   0.47102   0.00000  Uiso   1.00
H254   H     0.24851   0.84002   0.36768   0.00000  Uiso   1.00
H255   H     0.25539   0.86524   0.27204   0.00000  Uiso   1.00
H256   H     0.20693   0.74179   0.39504   0.00000  Uiso   1.00
H257   H     0.26579   0.91793   0.43542   0.00000  Uiso   1.00
H258   H     0.29047   0.88540   0.16687   0.00000  Uiso   1.00
H259   H     0.18829   0.62510   0.42623   0.00000  Uiso   1.00
H260   H     0.31239   0.99652   0.51140   0.00000  Uiso   1.00
H261   H     0.46003   0.78002   0.37437   0.00000  Uiso   1.00
H262   H     0.47852   0.80195   0.27910   0.00000  Uiso   1.00
H263   H     0.43006   0.67850   0.40210   0.00000  Uiso   1.00
H264   H     0.48891   0.85464   0.44248   0.00000  Uiso   1.00
H265   H     0.47156   0.83403   0.17260   0.00000  Uiso   1.00
H266   H     0.36938   0.57373   0.43197   0.00000  Uiso   1.00
H267   H     0.49349   0.94515   0.51713   0.00000  Uiso   1.00
O268   O     0.38935   0.87521   0.10694   0.00000  Uiso   1.00
O269   O     0.25530   0.53371   0.44722   0.00000  Uiso   1.00
O270   O     0.41812   0.02101   0.55895   0.00000  Uiso   1.00
N271   N     0.33055   0.87031   0.18130   0.00000  Uiso   1.00
N272   N     0.23502   0.62694   0.42378   0.00000  Uiso   1.00
N273   N     0.35105   0.97418   0.50341   0.00000  Uiso   1.00
N274   N     0.42800   0.84267   0.18438   0.00000  Uiso   1.00
N275   N     0.33246   0.59930   0.42686   0.00000  Uiso   1.00
N276   N     0.44849   0.94654   0.50649   0.00000  Uiso   1.00
C277   C     0.70303   0.67373   0.36921   0.00000  Uiso   1.00
C278   C     0.66996   0.66834   0.31818   0.00000  Uiso   1.00
C279   C     0.69643   0.64842   0.27355   0.00000  Uiso   1.00
C280   C     0.65842   0.64677   0.23091   0.00000  Uiso   1.00
C281   C     0.61655   0.63574   0.15136   0.00000  Uiso   1.00
C282   C     0.69629   0.73542   0.38500   0.00000  Uiso   1.00
C283   C     0.74490   0.77189   0.39656   0.00000  Uiso   1.00
C284   C     0.72905   0.82671   0.41017   0.00000  Uiso   1.00
C285   C     0.72806   0.91981   0.43441   0.00000  Uiso   1.00
C286   C     0.66431   0.63971   0.40694   0.00000  Uiso   1.00
C287   C     0.68604   0.59572   0.43696   0.00000  Uiso   1.00
C288   C     0.64327   0.56998   0.46905   0.00000  Uiso   1.00
C289   C     0.59262   0.51448   0.52734   0.00000  Uiso   1.00
C290   C     0.58843   0.70623   0.37284   0.00000  Uiso   1.00
C291   C     0.60771   0.68600   0.32015   0.00000  Uiso   1.00
C292   C     0.56965   0.68438   0.27756   0.00000  Uiso   1.00
C293   C     0.59606   0.66446   0.23288   0.00000  Uiso   1.00
C294   C     0.63405   0.75307   0.38697   0.00000  Uiso   1.00
C295   C     0.61812   0.80785   0.40057   0.00000  Uiso   1.00
C296   C     0.66670   0.84440   0.41215   0.00000  Uiso   1.00
C297   C     0.60206   0.65737   0.40891   0.00000  Uiso   1.00
C298   C     0.55925   0.63169   0.44097   0.00000  Uiso   1.00
C299   C     0.58091   0.58767   0.47102   0.00000  Uiso   1.00
H300   H     0.75149   0.65998   0.36768   0.00000  Uiso   1.00
H301   H     0.74461   0.63476   0.27204   0.00000  Uiso   1.00
H302   H     0.79307   0.75821   0.39504   0.00000  Uiso   1.00
H303   H     0.73421   0.58207   0.43542   0.00000  Uiso   1.00
H304   H     0.70953   0.61460   0.16687   0.00000  Uiso   1.00
H305   H     0.81171   0.87490   0.42623   0.00000  Uiso   1.00
H306   H     0.68761   0.50348   0.51140   0.00000  Uiso   1.00
H307   H     0.53997   0.71998   0.37437   0.00000  Uiso   1.00
H308   H     0.52148   0.69805   0.27910   0.00000  Uiso   1.00
H309   H     0.56994   0.82150   0.40210   0.00000  Uiso   1.00
H310   H     0.51109   0.64536   0.44248   0.00000  Uiso   1.00
H311   H     0.52844   0.66597   0.17260   0.00000  Uiso   1.00
H312   H     0.63062   0.92627   0.43197   0.00000  Uiso   1.00
H313   H     0.50651   0.55485   0.51713   0.00000  Uiso   1.00
O314   O     0.61065   0.62479   0.10694   0.00000  Uiso   1.00
O315   O     0.74470   0.96629   0.44722   0.00000  Uiso   1.00
O316   O     0.58188   0.47899   0.55895   0.00000  Uiso   1.00
N317   N     0.66945   0.62969   0.18130   0.00000  Uiso   1.00
N318   N     0.76498   0.87306   0.42378   0.00000  Uiso   1.00
N319   N     0.64895   0.52582   0.50341   0.00000  Uiso   1.00
N320   N     0.57200   0.65733   0.18438   0.00000  Uiso   1.00
N321   N     0.66754   0.90070   0.42686   0.00000  Uiso   1.00
N322   N     0.55151   0.55346   0.50649   0.00000  Uiso   1.00
C323   C     0.20303   0.17373   0.86921   0.00000  Uiso   1.00
C324   C     0.16996   0.16834   0.81818   0.00000  Uiso   1.00
C325   C     0.19643   0.14842   0.77355   0.00000  Uiso   1.00
C326   C     0.15842   0.14677   0.73091   0.00000  Uiso   1.00
C327   C     0.11655   0.13574   0.65136   0.00000  Uiso   1.00
C328   C     0.19629   0.23542   0.88500   0.00000  Uiso   1.00
C329   C     0.24490   0.27189   0.89656   0.00000  Uiso   1.00
C330   C     0.22905   0.32671   0.91017   0.00000  Uiso   1.00
C331   C     0.22806   0.41981   0.93441   0.00000  Uiso   1.00
C332   C     0.16431   0.13971   0.90694   0.00000  Uiso   1.00
C333   C     0.18604   0.09572   0.93696   0.00000  Uiso   1.00
C334   C     0.14327   0.06998   0.96905   0.00000  Uiso   1.00
C335   C     0.09262   0.01448   0.02734   0.00000  Uiso   1.00
C336   C     0.08843   0.20623   0.87284   0.00000  Uiso   1.00
C337   C     0.10771   0.18600   0.82015   0.00000  Uiso   1.00
C338   C     0.06965   0.18438   0.77756   0.00000  Uiso   1.00
C339   C     0.09606   0.16446   0.73288   0.00000  Uiso   1.00
C340   C     0.13405   0.25307   0.88697   0.00000  Uiso   1.00
C341   C     0.11812   0.30785   0.90057   0.00000  Uiso   1.00
C342   C     0.16670   0.34440   0.91215   0.00000  Uiso   1.00
C343   C     0.10206   0.15737   0.90891   0.00000  Uiso   1.00
C344   C     0.05925   0.13169   0.94097   0.00000  Uiso   1.00
C345   C     0.08091   0.08767   0.97102   0.00000  Uiso   1.00
H346   H     0.25149   0.15998   0.86768   0.00000  Uiso   1.00
H347   H     0.24461   0.13476   0.77204   0.00000  Uiso   1.00
H348   H     0.29307   0.25821   0.89504   0.00000  Uiso   1.00
H349   H     0.23421   0.08207   0.93542   0.00000  Uiso   1.00
H350   H     0.20953   0.11460   0.66687   0.00000  Uiso   1.00
H351   H     0.31171   0.37490   0.92623   0.00000  Uiso   1.00
H352   H     0.18761   0.00348   0.01140   0.00000  Uiso   1.00
H353   H     0.03997   0.21998   0.87437   0.00000  Uiso   1.00
H354   H     0.02148   0.19805   0.77910   0.00000  Uiso   1.00
H355   H     0.06994   0.32150   0.90210   0.00000  Uiso   1.00
H356   H     0.01109   0.14536   0.94248   0.00000  Uiso   1.00
H357   H     0.02844   0.16597   0.67260   0.00000  Uiso   1.00
H358   H     0.13062   0.42627   0.93197   0.00000  Uiso   1.00
H359   H     0.00651   0.05485   0.01713   0.00000  Uiso   1.00
O360   O     0.11065   0.12479   0.60694   0.00000  Uiso   1.00
O361   O     0.24470   0.46629   0.94722   0.00000  Uiso   1.00
O362   O     0.08188   0.97899   0.05895   0.00000  Uiso   1.00
N363   N     0.16945   0.12969   0.68130   0.00000  Uiso   1.00
N364   N     0.26498   0.37306   0.92378   0.00000  Uiso   1.00
N365   N     0.14895   0.02582   0.00341   0.00000  Uiso   1.00
N366   N     0.07200   0.15733   0.68438   0.00000  Uiso   1.00
N367   N     0.16754   0.40070   0.92686   0.00000  Uiso   1.00
N368   N     0.05151   0.05346   0.00649   0.00000  Uiso   1.00
C369   C     0.79697   0.17373   0.36921   0.00000  Uiso   1.00
C370   C     0.83004   0.16834   0.31818   0.00000  Uiso   1.00
C371   C     0.80357   0.14842   0.27355   0.00000  Uiso   1.00
C372   C     0.84158   0.14677   0.23091   0.00000  Uiso   1.00
C373   C     0.88345   0.13574   0.15136   0.00000  Uiso   1.00
C374   C     0.80371   0.23542   0.38500   0.00000  Uiso   1.00
C375   C     0.75510   0.27189   0.39656   0.00000  Uiso   1.00
C376   C     0.77095   0.32671   0.41017   0.00000  Uiso   1.00
C377   C     0.77194   0.41981   0.43441   0.00000  Uiso   1.00
C378   C     0.83569   0.13971   0.40694   0.00000  Uiso   1.00
C379   C     0.81396   0.09572   0.43696   0.00000  Uiso   1.00
C380   C     0.85673   0.06998   0.46905   0.00000  Uiso   1.00
C381   C     0.90738   0.01448   0.52734   0.00000  Uiso   1.00
C382   C     0.91157   0.20623   0.37284   0.00000  Uiso   1.00
C383   C     0.89229   0.18600   0.32015   0.00000  Uiso   1.00
C384   C     0.93035   0.18438   0.27756   0.00000  Uiso   1.00
C385   C     0.90394   0.16446   0.23288   0.00000  Uiso   1.00
C386   C     0.86595   0.25307   0.38697   0.00000  Uiso   1.00
C387   C     0.88188   0.30785   0.40057   0.00000  Uiso   1.00
C388   C     0.83330   0.34440   0.41215   0.00000  Uiso   1.00
C389   C     0.89794   0.15737   0.40891   0.00000  Uiso   1.00
C390   C     0.94075   0.13169   0.44097   0.00000  Uiso   1.00
C391   C     0.91909   0.08767   0.47102   0.00000  Uiso   1.00
H392   H     0.74851   0.15998   0.36768   0.00000  Uiso   1.00
H393   H     0.75539   0.13476   0.27204   0.00000  Uiso   1.00
H394   H     0.70693   0.25821   0.39504   0.00000  Uiso   1.00
H395   H     0.76579   0.08207   0.43542   0.00000  Uiso   1.00
H396   H     0.79047   0.11460   0.16687   0.00000  Uiso   1.00
H397   H     0.68829   0.37490   0.42623   0.00000  Uiso   1.00
H398   H     0.81239   0.00348   0.51140   0.00000  Uiso   1.00
H399   H     0.96003   0.21998   0.37437   0.00000  Uiso   1.00
H400   H     0.97852   0.19805   0.27910   0.00000  Uiso   1.00
H401   H     0.93006   0.32150   0.40210   0.00000  Uiso   1.00
H402   H     0.98891   0.14536   0.44248   0.00000  Uiso   1.00
H403   H     0.97156   0.16597   0.17260   0.00000  Uiso   1.00
H404   H     0.86938   0.42627   0.43197   0.00000  Uiso   1.00
H405   H     0.99349   0.05485   0.51713   0.00000  Uiso   1.00
O406   O     0.88935   0.12479   0.10694   0.00000  Uiso   1.00
O407   O     0.75530   0.46629   0.44722   0.00000  Uiso   1.00
O408   O     0.91812   0.97899   0.55895   0.00000  Uiso   1.00
N409   N     0.83055   0.12969   0.18130   0.00000  Uiso   1.00
N410   N     0.73502   0.37306   0.42378   0.00000  Uiso   1.00
N411   N     0.85105   0.02582   0.50341   0.00000  Uiso   1.00
N412   N     0.92800   0.15733   0.18438   0.00000  Uiso   1.00
N413   N     0.83246   0.40070   0.42686   0.00000  Uiso   1.00
N414   N     0.94849   0.05346   0.50649   0.00000  Uiso   1.00
C415   C     0.29697   0.67373   0.86921   0.00000  Uiso   1.00
C416   C     0.33004   0.66834   0.81818   0.00000  Uiso   1.00
C417   C     0.30357   0.64842   0.77355   0.00000  Uiso   1.00
C418   C     0.34158   0.64677   0.73091   0.00000  Uiso   1.00
C419   C     0.38345   0.63574   0.65136   0.00000  Uiso   1.00
C420   C     0.30371   0.73542   0.88500   0.00000  Uiso   1.00
C421   C     0.25510   0.77189   0.89656   0.00000  Uiso   1.00
C422   C     0.27095   0.82671   0.91017   0.00000  Uiso   1.00
C423   C     0.27194   0.91981   0.93441   0.00000  Uiso   1.00
C424   C     0.33569   0.63971   0.90694   0.00000  Uiso   1.00
C425   C     0.31396   0.59572   0.93696   0.00000  Uiso   1.00
C426   C     0.35673   0.56998   0.96905   0.00000  Uiso   1.00
C427   C     0.40738   0.51448   0.02734   0.00000  Uiso   1.00
C428   C     0.41157   0.70623   0.87284   0.00000  Uiso   1.00
C429   C     0.39229   0.68600   0.82015   0.00000  Uiso   1.00
C430   C     0.43035   0.68438   0.77756   0.00000  Uiso   1.00
C431   C     0.40394   0.66446   0.73288   0.00000  Uiso   1.00
C432   C     0.36595   0.75307   0.88697   0.00000  Uiso   1.00
C433   C     0.38188   0.80785   0.90057   0.00000  Uiso   1.00
C434   C     0.33330   0.84440   0.91215   0.00000  Uiso   1.00
C435   C     0.39794   0.65737   0.90891   0.00000  Uiso   1.00
C436   C     0.44075   0.63169   0.94097   0.00000  Uiso   1.00
C437   C     0.41909   0.58767   0.97102   0.00000  Uiso   1.00
H438   H     0.24851   0.65998   0.86768   0.00000  Uiso   1.00
H439   H     0.25539   0.63476   0.77204   0.00000  Uiso   1.00
H440   H     0.20693   0.75821   0.89504   0.00000  Uiso   1.00
H441   H     0.26579   0.58207   0.93542   0.00000  Uiso   1.00
H442   H     0.29047   0.61460   0.66687   0.00000  Uiso   1.00
H443   H     0.18829   0.87490   0.92623   0.00000  Uiso   1.00
H444   H     0.31239   0.50348   0.01140   0.00000  Uiso   1.00
H445   H     0.46003   0.71998   0.87437   0.00000  Uiso   1.00
H446   H     0.47852   0.69805   0.77910   0.00000  Uiso   1.00
H447   H     0.43006   0.82150   0.90210   0.00000  Uiso   1.00
H448   H     0.48891   0.64536   0.94248   0.00000  Uiso   1.00
H449   H     0.47156   0.66597   0.67260   0.00000  Uiso   1.00
H450   H     0.36938   0.92627   0.93197   0.00000  Uiso   1.00
H451   H     0.49349   0.55485   0.01713   0.00000  Uiso   1.00
O452   O     0.38935   0.62479   0.60694   0.00000  Uiso   1.00
O453   O     0.25530   0.96629   0.94722   0.00000  Uiso   1.00
O454   O     0.41812   0.47899   0.05895   0.00000  Uiso   1.00
N455   N     0.33055   0.62969   0.68130   0.00000  Uiso   1.00
N456   N     0.23502   0.87306   0.92378   0.00000  Uiso   1.00
N457   N     0.35105   0.52582   0.00341   0.00000  Uiso   1.00
N458   N     0.42800   0.65733   0.68438   0.00000  Uiso   1.00
N459   N     0.33246   0.90070   0.92686   0.00000  Uiso   1.00
N460   N     0.44849   0.55346   0.00649   0.00000  Uiso   1.00
C461   C     0.70303   0.82627   0.86921   0.00000  Uiso   1.00
C462   C     0.66996   0.83166   0.81818   0.00000  Uiso   1.00
C463   C     0.69643   0.85158   0.77355   0.00000  Uiso   1.00
C464   C     0.65842   0.85323   0.73091   0.00000  Uiso   1.00
C465   C     0.61655   0.86426   0.65136   0.00000  Uiso   1.00
C466   C     0.69629   0.76458   0.88500   0.00000  Uiso   1.00
C467   C     0.74490   0.72811   0.89656   0.00000  Uiso   1.00
C468   C     0.72905   0.67329   0.91017   0.00000  Uiso   1.00
C469   C     0.72806   0.58019   0.93441   0.00000  Uiso   1.00
C470   C     0.66431   0.86029   0.90694   0.00000  Uiso   1.00
C471   C     0.68604   0.90428   0.93696   0.00000  Uiso   1.00
C472   C     0.64327   0.93002   0.96905   0.00000  Uiso   1.00
C473   C     0.59262   0.98552   0.02734   0.00000  Uiso   1.00
C474   C     0.58843   0.79377   0.87284   0.00000  Uiso   1.00
C475   C     0.60771   0.81400   0.82015   0.00000  Uiso   1.00
C476   C     0.56965   0.81562   0.77756   0.00000  Uiso   1.00
C477   C     0.59606   0.83554   0.73288   0.00000  Uiso   1.00
C478   C     0.63405   0.74693   0.88697   0.00000  Uiso   1.00
C479   C     0.61812   0.69215   0.90057   0.00000  Uiso   1.00
C480   C     0.66670   0.65560   0.91215   0.00000  Uiso   1.00
C481   C     0.60206   0.84263   0.90891   0.00000  Uiso   1.00
C482   C     0.55925   0.86831   0.94097   0.00000  Uiso   1.00
C483   C     0.58091   0.91233   0.97102   0.00000  Uiso   1.00
H484   H     0.75149   0.84002   0.86768   0.00000  Uiso   1.00
H485   H     0.74461   0.86524   0.77204   0.00000  Uiso   1.00
H486   H     0.79307   0.74179   0.89504   0.00000  Uiso   1.00
H487   H     0.73421   0.91793   0.93542   0.00000  Uiso   1.00
H488   H     0.70953   0.88540   0.66687   0.00000  Uiso   1.00
H489   H     0.81171   0.62510   0.92623   0.00000  Uiso   1.00
H490   H     0.68761   0.99652   0.01140   0.00000  Uiso   1.00
H491   H     0.53997   0.78002   0.87437   0.00000  Uiso   1.00
H492   H     0.52148   0.80195   0.77910   0.00000  Uiso   1.00
H493   H     0.56994   0.67850   0.90210   0.00000  Uiso   1.00
H494   H     0.51109   0.85464   0.94248   0.00000  Uiso   1.00
H495   H     0.52844   0.83403   0.67260   0.00000  Uiso   1.00
H496   H     0.63062   0.57373   0.93197   0.00000  Uiso   1.00
H497   H     0.50651   0.94515   0.01713   0.00000  Uiso   1.00
O498   O     0.61065   0.87521   0.60694   0.00000  Uiso   1.00
O499   O     0.74470   0.53371   0.94722   0.00000  Uiso   1.00
O500   O     0.58188   0.02101   0.05895   0.00000  Uiso   1.00
N501   N     0.66945   0.87031   0.68130   0.00000  Uiso   1.00
N502   N     0.76498   0.62694   0.92378   0.00000  Uiso   1.00
N503   N     0.64895   0.97418   0.00341   0.00000  Uiso   1.00
N504   N     0.57200   0.84267   0.68438   0.00000  Uiso   1.00
N505   N     0.66754   0.59930   0.92686   0.00000  Uiso   1.00
N506   N     0.55151   0.94654   0.00649   0.00000  Uiso   1.00
C507   C     0.20303   0.32627   0.36921   0.00000  Uiso   1.00
C508   C     0.16996   0.33166   0.31818   0.00000  Uiso   1.00
C509   C     0.19643   0.35158   0.27355   0.00000  Uiso   1.00
C510   C     0.15842   0.35323   0.23091   0.00000  Uiso   1.00
C511   C     0.11655   0.36426   0.15136   0.00000  Uiso   1.00
C512   C     0.19629   0.26458   0.38500   0.00000  Uiso   1.00
C513   C     0.24490   0.22811   0.39656   0.00000  Uiso   1.00
C514   C     0.22905   0.17329   0.41017   0.00000  Uiso   1.00
C515   C     0.22806   0.08019   0.43441   0.00000  Uiso   1.00
C516   C     0.16431   0.36029   0.40694   0.00000  Uiso   1.00
C517   C     0.18604   0.40428   0.43696   0.00000  Uiso   1.00
C518   C     0.14327   0.43002   0.46905   0.00000  Uiso   1.00
C519   C     0.09262   0.48552   0.52734   0.00000  Uiso   1.00
C520   C     0.08843   0.29377   0.37284   0.00000  Uiso   1.00
C521   C     0.10771   0.31400   0.32015   0.00000  Uiso   1.00
C522   C     0.06965   0.31562   0.27756   0.00000  Uiso   1.00
C523   C     0.09606   0.33554   0.23288   0.00000  Uiso   1.00
C524   C     0.13405   0.24693   0.38697   0.00000  Uiso   1.00
C525   C     0.11812   0.19215   0.40057   0.00000  Uiso   1.00
C526   C     0.16670   0.15560   0.41215   0.00000  Uiso   1.00
C527   C     0.10206   0.34263   0.40891   0.00000  Uiso   1.00
C528   C     0.05925   0.36831   0.44097   0.00000  Uiso   1.00
C529   C     0.08091   0.41233   0.47102   0.00000  Uiso   1.00
H530   H     0.25149   0.34002   0.36768   0.00000  Uiso   1.00
H531   H     0.24461   0.36524   0.27204   0.00000  Uiso   1.00
H532   H     0.29307   0.24179   0.39504   0.00000  Uiso   1.00
H533   H     0.23421   0.41793   0.43542   0.00000  Uiso   1.00
H534   H     0.20953   0.38540   0.16687   0.00000  Uiso   1.00
H535   H     0.31171   0.12510   0.42623   0.00000  Uiso   1.00
H536   H     0.18761   0.49652   0.51140   0.00000  Uiso   1.00
H537   H     0.03997   0.28002   0.37437   0.00000  Uiso   1.00
H538   H     0.02148   0.30195   0.27910   0.00000  Uiso   1.00
H539   H     0.06994   0.17850   0.40210   0.00000  Uiso   1.00
H540   H     0.01109   0.35464   0.44248   0.00000  Uiso   1.00
H541   H     0.02844   0.33403   0.17260   0.00000  Uiso   1.00
H542   H     0.13062   0.07373   0.43197   0.00000  Uiso   1.00
H543   H     0.00651   0.44515   0.51713   0.00000  Uiso   1.00
O544   O     0.11065   0.37521   0.10694   0.00000  Uiso   1.00
O545   O     0.24470   0.03371   0.44722   0.00000  Uiso   1.00
O546   O     0.08188   0.52101   0.55895   0.00000  Uiso   1.00
N547   N     0.16945   0.37031   0.18130   0.00000  Uiso   1.00
N548   N     0.26498   0.12694   0.42378   0.00000  Uiso   1.00
N549   N     0.14895   0.47418   0.50341   0.00000  Uiso   1.00
N550   N     0.07200   0.34267   0.18438   0.00000  Uiso   1.00
N551   N     0.16754   0.09930   0.42686   0.00000  Uiso   1.00
N552   N     0.05151   0.44654   0.50649   0.00000  Uiso   1.00
C553   C     0.20303   0.67373   0.13079   0.00000  Uiso   1.00
C554   C     0.16996   0.66834   0.18182   0.00000  Uiso   1.00
C555   C     0.19643   0.64842   0.22645   0.00000  Uiso   1.00
C556   C     0.15842   0.64677   0.26909   0.00000  Uiso   1.00
C557   C     0.11655   0.63574   0.34864   0.00000  Uiso   1.00
C558   C     0.19629   0.73542   0.11500   0.00000  Uiso   1.00
C559   C     0.24490   0.77189   0.10344   0.00000  Uiso   1.00
C560   C     0.22905   0.82671   0.08983   0.00000  Uiso   1.00
C561   C     0.22806   0.91981   0.06559   0.00000  Uiso   1.00
C562   C     0.16431   0.63971   0.09306   0.00000  Uiso   1.00
C563   C     0.18604   0.59572   0.06304   0.00000  Uiso   1.00
C564   C     0.14327   0.56998   0.03095   0.00000  Uiso   1.00
C565   C     0.09262   0.51448   0.97266   0.00000  Uiso   1.00
C566   C     0.08843   0.70623   0.12716   0.00000  Uiso   1.00
C567   C     0.10771   0.68600   0.17985   0.00000  Uiso   1.00
C568   C     0.06965   0.68438   0.22244   0.00000  Uiso   1.00
C569   C     0.09606   0.66446   0.26712   0.00000  Uiso   1.00
C570   C     0.13405   0.75307   0.11303   0.00000  Uiso   1.00
C571   C     0.11812   0.80785   0.09943   0.00000  Uiso   1.00
C572   C     0.16670   0.84440   0.08785   0.00000  Uiso   1.00
C573   C     0.10206   0.65737   0.09109   0.00000  Uiso   1.00
C574   C     0.05925   0.63169   0.05903   0.00000  Uiso   1.00
C575   C     0.08091   0.58767   0.02898   0.00000  Uiso   1.00
H576   H     0.25149   0.65998   0.13232   0.00000  Uiso   1.00
H577   H     0.24461   0.63476   0.22796   0.00000  Uiso   1.00
H578   H     0.29307   0.75821   0.10496   0.00000  Uiso   1.00
H579   H     0.23421   0.58207   0.06458   0.00000  Uiso   1.00
H580   H     0.20953   0.61460   0.33313   0.00000  Uiso   1.00
H581   H     0.31171   0.87490   0.07377   0.00000  Uiso   1.00
H582   H     0.18761   0.50348   0.98860   0.00000  Uiso   1.00
H583   H     0.03997   0.71998   0.12563   0.00000  Uiso   1.00
H584   H     0.02148   0.69805   0.22090   0.00000  Uiso   1.00
H585   H     0.06994   0.82150   0.09790   0.00000  Uiso   1.00
H586   H     0.01109   0.64536   0.05752   0.00000  Uiso   1.00
H587   H     0.02844   0.66597   0.32740   0.00000  Uiso   1.00
H588   H     0.13062   0.92627   0.06803   0.00000  Uiso   1.00
H589   H     0.00651   0.55485   0.98287   0.00000  Uiso   1.00
O590   O     0.11065   0.62479   0.39306   0.00000  Uiso   1.00
O591   O     0.24470   0.96629   0.05278   0.00000  Uiso   1.00
O592   O     0.08188   0.47899   0.94105   0.00000  Uiso   1.00
N593   N     0.16945   0.62969   0.31870   0.00000  Uiso   1.00
N594   N     0.26498   0.87306   0.07622   0.00000  Uiso   1.00
N595   N     0.14895   0.52582   0.99659   0.00000  Uiso   1.00
N596   N     0.07200   0.65733   0.31562   0.00000  Uiso   1.00
N597   N     0.16754   0.90070   0.07314   0.00000  Uiso   1.00
N598   N     0.05151   0.55346   0.99351   0.00000  Uiso   1.00
C599   C     0.70303   0.17373   0.63079   0.00000  Uiso   1.00
C600   C     0.66996   0.16834   0.68182   0.00000  Uiso   1.00
C601   C     0.69643   0.14842   0.72645   0.00000  Uiso   1.00
C602   C     0.65842   0.14677   0.76909   0.00000  Uiso   1.00
C603   C     0.61655   0.13574   0.84864   0.00000  Uiso   1.00
C604   C     0.69629   0.23542   0.61500   0.00000  Uiso   1.00
C605   C     0.74490   0.27189   0.60344   0.00000  Uiso   1.00
C606   C     0.72905   0.32671   0.58983   0.00000  Uiso   1.00
C607   C     0.72806   0.41981   0.56559   0.00000  Uiso   1.00
C608   C     0.66431   0.13971   0.59306   0.00000  Uiso   1.00
C609   C     0.68604   0.09572   0.56304   0.00000  Uiso   1.00
C610   C     0.64327   0.06998   0.53095   0.00000  Uiso   1.00
C611   C     0.59262   0.01448   0.47266   0.00000  Uiso   1.00
C612   C     0.58843   0.20623   0.62716   0.00000  Uiso   1.00
C613   C     0.60771   0.18600   0.67985   0.00000  Uiso   1.00
C614   C     0.56965   0.18438   0.72244   0.00000  Uiso   1.00
C615   C     0.59606   0.16446   0.76712   0.00000  Uiso   1.00
C616   C     0.63405   0.25307   0.61303   0.00000  Uiso   1.00
C617   C     0.61812   0.30785   0.59943   0.00000  Uiso   1.00
C618   C     0.66670   0.34440   0.58785   0.00000  Uiso   1.00
C619   C     0.60206   0.15737   0.59109   0.00000  Uiso   1.00
C620   C     0.55925   0.13169   0.55903   0.00000  Uiso   1.00
C621   C     0.58091   0.08767   0.52898   0.00000  Uiso   1.00
H622   H     0.75149   0.15998   0.63232   0.00000  Uiso   1.00
H623   H     0.74461   0.13476   0.72796   0.00000  Uiso   1.00
H624   H     0.79307   0.25821   0.60496   0.00000  Uiso   1.00
H625   H     0.73421   0.08207   0.56458   0.00000  Uiso   1.00
H626   H     0.70953   0.11460   0.83313   0.00000  Uiso   1.00
H627   H     0.81171   0.37490   0.57377   0.00000  Uiso   1.00
H628   H     0.68761   0.00348   0.48860   0.00000  Uiso   1.00
H629   H     0.53997   0.21998   0.62563   0.00000  Uiso   1.00
H630   H     0.52148   0.19805   0.72090   0.00000  Uiso   1.00
H631   H     0.56994   0.32150   0.59790   0.00000  Uiso   1.00
H632   H     0.51109   0.14536   0.55752   0.00000  Uiso   1.00
H633   H     0.52844   0.16597   0.82740   0.00000  Uiso   1.00
H634   H     0.63062   0.42627   0.56803   0.00000  Uiso   1.00
H635   H     0.50651   0.05485   0.48287   0.00000  Uiso   1.00
O636   O     0.61065   0.12479   0.89306   0.00000  Uiso   1.00
O637   O     0.74470   0.46629   0.55278   0.00000  Uiso   1.00
O638   O     0.58188   0.97899   0.44105   0.00000  Uiso   1.00
N639   N     0.66945   0.12969   0.81870   0.00000  Uiso   1.00
N640   N     0.76498   0.37306   0.57622   0.00000  Uiso   1.00
N641   N     0.64895   0.02582   0.49659   0.00000  Uiso   1.00
N642   N     0.57200   0.15733   0.81562   0.00000  Uiso   1.00
N643   N     0.66754   0.40070   0.57314   0.00000  Uiso   1.00
N644   N     0.55151   0.05346   0.49351   0.00000  Uiso   1.00
C645   C     0.29697   0.32627   0.63079   0.00000  Uiso   1.00
C646   C     0.33004   0.33166   0.68182   0.00000  Uiso   1.00
C647   C     0.30357   0.35158   0.72645   0.00000  Uiso   1.00
C648   C     0.34158   0.35323   0.76909   0.00000  Uiso   1.00
C649   C     0.38345   0.36426   0.84864   0.00000  Uiso   1.00
C650   C     0.30371   0.26458   0.61500   0.00000  Uiso   1.00
C651   C     0.25510   0.22811   0.60344   0.00000  Uiso   1.00
C652   C     0.27095   0.17329   0.58983   0.00000  Uiso   1.00
C653   C     0.27194   0.08019   0.56559   0.00000  Uiso   1.00
C654   C     0.33569   0.36029   0.59306   0.00000  Uiso   1.00
C655   C     0.31396   0.40428   0.56304   0.00000  Uiso   1.00
C656   C     0.35673   0.43002   0.53095   0.00000  Uiso   1.00
C657   C     0.40738   0.48552   0.47266   0.00000  Uiso   1.00
C658   C     0.41157   0.29377   0.62716   0.00000  Uiso   1.00
C659   C     0.39229   0.31400   0.67985   0.00000  Uiso   1.00
C660   C     0.43035   0.31562   0.72244   0.00000  Uiso   1.00
C661   C     0.40394   0.33554   0.76712   0.00000  Uiso   1.00
C662   C     0.36595   0.24693   0.61303   0.00000  Uiso   1.00
C663   C     0.38188   0.19215   0.59943   0.00000  Uiso   1.00
C664   C     0.33330   0.15560   0.58785   0.00000  Uiso   1.00
C665   C     0.39794   0.34263   0.59109   0.00000  Uiso   1.00
C666   C     0.44075   0.36831   0.55903   0.00000  Uiso   1.00
C667   C     0.41909   0.41233   0.52898   0.00000  Uiso   1.00
H668   H     0.24851   0.34002   0.63232   0.00000  Uiso   1.00
H669   H     0.25539   0.36524   0.72796   0.00000  Uiso   1.00
H670   H     0.20693   0.24179   0.60496   0.00000  Uiso   1.00
H671   H     0.26579   0.41793   0.56458   0.00000  Uiso   1.00
H672   H     0.29047   0.38540   0.83313   0.00000  Uiso   1.00
H673   H     0.18829   0.12510   0.57377   0.00000  Uiso   1.00
H674   H     0.31239   0.49652   0.48860   0.00000  Uiso   1.00
H675   H     0.46003   0.28002   0.62563   0.00000  Uiso   1.00
H676   H     0.47852   0.30195   0.72090   0.00000  Uiso   1.00
H677   H     0.43006   0.17850   0.59790   0.00000  Uiso   1.00
H678   H     0.48891   0.35464   0.55752   0.00000  Uiso   1.00
H679   H     0.47156   0.33403   0.82740   0.00000  Uiso   1.00
H680   H     0.36938   0.07373   0.56803   0.00000  Uiso   1.00
H681   H     0.49349   0.44515   0.48287   0.00000  Uiso   1.00
O682   O     0.38935   0.37521   0.89306   0.00000  Uiso   1.00
O683   O     0.25530   0.03371   0.55278   0.00000  Uiso   1.00
O684   O     0.41812   0.52101   0.44105   0.00000  Uiso   1.00
N685   N     0.33055   0.37031   0.81870   0.00000  Uiso   1.00
N686   N     0.23502   0.12694   0.57622   0.00000  Uiso   1.00
N687   N     0.35105   0.47418   0.49659   0.00000  Uiso   1.00
N688   N     0.42800   0.34267   0.81562   0.00000  Uiso   1.00
N689   N     0.33246   0.09930   0.57314   0.00000  Uiso   1.00
N690   N     0.44849   0.44654   0.49351   0.00000  Uiso   1.00
C691   C     0.79697   0.82627   0.13079   0.00000  Uiso   1.00
C692   C     0.83004   0.83166   0.18182   0.00000  Uiso   1.00
C693   C     0.80357   0.85158   0.22645   0.00000  Uiso   1.00
C694   C     0.84158   0.85323   0.26909   0.00000  Uiso   1.00
C695   C     0.88345   0.86426   0.34864   0.00000  Uiso   1.00
C696   C     0.80371   0.76458   0.11500   0.00000  Uiso   1.00
C697   C     0.75510   0.72811   0.10344   0.00000  Uiso   1.00
C698   C     0.77095   0.67329   0.08983   0.00000  Uiso   1.00
C699   C     0.77194   0.58019   0.06559   0.00000  Uiso   1.00
C700   C     0.83569   0.86029   0.09306   0.00000  Uiso   1.00
C701   C     0.81396   0.90428   0.06304   0.00000  Uiso   1.00
C702   C     0.85673   0.93002   0.03095   0.00000  Uiso   1.00
C703   C     0.90738   0.98552   0.97266   0.00000  Uiso   1.00
C704   C     0.91157   0.79377   0.12716   0.00000  Uiso   1.00
C705   C     0.89229   0.81400   0.17985   0.00000  Uiso   1.00
C706   C     0.93035   0.81562   0.22244   0.00000  Uiso   1.00
C707   C     0.90394   0.83554   0.26712   0.00000  Uiso   1.00
C708   C     0.86595   0.74693   0.11303   0.00000  Uiso   1.00
C709   C     0.88188   0.69215   0.09943   0.00000  Uiso   1.00
C710   C     0.83330   0.65560   0.08785   0.00000  Uiso   1.00
C711   C     0.89794   0.84263   0.09109   0.00000  Uiso   1.00
C712   C     0.94075   0.86831   0.05903   0.00000  Uiso   1.00
C713   C     0.91909   0.91233   0.02898   0.00000  Uiso   1.00
H714   H     0.74851   0.84002   0.13232   0.00000  Uiso   1.00
H715   H     0.75539   0.86524   0.22796   0.00000  Uiso   1.00
H716   H     0.70693   0.74179   0.10496   0.00000  Uiso   1.00
H717   H     0.76579   0.91793   0.06458   0.00000  Uiso   1.00
H718   H     0.79047   0.88540   0.33313   0.00000  Uiso   1.00
H719   H     0.68829   0.62510   0.07377   0.00000  Uiso   1.00
H720   H     0.81239   0.99652   0.98860   0.00000  Uiso   1.00
H721   H     0.96003   0.78002   0.12563   0.00000  Uiso   1.00
H722   H     0.97852   0.80195   0.22090   0.00000  Uiso   1.00
H723   H     0.93006   0.67850   0.09790   0.00000  Uiso   1.00
H724   H     0.98891   0.85464   0.05752   0.00000  Uiso   1.00
H725   H     0.97156   0.83403   0.32740   0.00000  Uiso   1.00
H726   H     0.86938   0.57373   0.06803   0.00000  Uiso   1.00
H727   H     0.99349   0.94515   0.98287   0.00000  Uiso   1.00
O728   O     0.88935   0.87521   0.39306   0.00000  Uiso   1.00
O729   O     0.75530   0.53371   0.05278   0.00000  Uiso   1.00
O730   O     0.91812   0.02101   0.94105   0.00000  Uiso   1.00
N731   N     0.83055   0.87031   0.31870   0.00000  Uiso   1.00
N732   N     0.73502   0.62694   0.07622   0.00000  Uiso   1.00
N733   N     0.85105   0.97418   0.99659   0.00000  Uiso   1.00
N734   N     0.92800   0.84267   0.31562   0.00000  Uiso   1.00
N735   N     0.83246   0.59930   0.07314   0.00000  Uiso   1.00
N736   N     0.94849   0.94654   0.99351   0.00000  Uiso   1.00
