data_job_02640
_audit_creation_date              2018-12-19
_audit_creation_method            'Materials Studio'
_symmetry_space_group_name_H-M    'P1'
_symmetry_Int_Tables_number       1
_symmetry_cell_setting            triclinic
loop_
_symmetry_equiv_pos_as_xyz
  x,y,z
_cell_length_a                    36.9732
_cell_length_b                    36.3222
_cell_length_c                    7.2969
_cell_angle_alpha                 90.0000
_cell_angle_beta                  90.0000
_cell_angle_gamma                 90.0000
loop_
_atom_site_label
_atom_site_type_symbol
_atom_site_fract_x
_atom_site_fract_y
_atom_site_fract_z
_atom_site_U_iso_or_equiv
_atom_site_adp_type
_atom_site_occupancy
C1     C     0.15985   0.13666   0.05912   0.00000  Uiso   1.00
C2     C     0.17332   0.17442   0.11981   0.00000  Uiso   1.00
C3     C     0.17658   0.20524   0.00860   0.00000  Uiso   1.00
C4     C     0.18944   0.23720   0.09009   0.00000  Uiso   1.00
C5     C     0.20896   0.29567   0.15600   0.00000  Uiso   1.00
C6     C     0.18981   0.10952   0.10797   0.00000  Uiso   1.00
C7     C     0.20693   0.08578   0.98681   0.00000  Uiso   1.00
C8     C     0.23367   0.06311   0.05835   0.00000  Uiso   1.00
C9     C     0.27877   0.02080   0.10589   0.00000  Uiso   1.00
C10    C     0.12811   0.12738   0.18429   0.00000  Uiso   1.00
C11    C     0.09335   0.11862   0.12731   0.00000  Uiso   1.00
C12    C     0.06814   0.11098   0.26310   0.00000  Uiso   1.00
C13    C     0.01744   0.09639   0.42915   0.00000  Uiso   1.00
C14    C     0.17690   0.13862   0.40160   0.00000  Uiso   1.00
C15    C     0.18259   0.17549   0.30583   0.00000  Uiso   1.00
C16    C     0.19544   0.20741   0.38751   0.00000  Uiso   1.00
C17    C     0.19871   0.23827   0.27645   0.00000  Uiso   1.00
C18    C     0.19908   0.11059   0.29398   0.00000  Uiso   1.00
C19    C     0.22579   0.08795   0.36572   0.00000  Uiso   1.00
C20    C     0.24294   0.06418   0.24470   0.00000  Uiso   1.00
C21    C     0.13737   0.12844   0.37031   0.00000  Uiso   1.00
C22    C     0.11221   0.12080   0.50622   0.00000  Uiso   1.00
C23    C     0.07741   0.11204   0.44946   0.00000  Uiso   1.00
H24    H     0.15264   0.13583   0.91430   0.00000  Uiso   1.00
H25    H     0.16941   0.20440   0.86465   0.00000  Uiso   1.00
H26    H     0.19975   0.08495   0.84287   0.00000  Uiso   1.00
H27    H     0.08619   0.11780   0.98335   0.00000  Uiso   1.00
H28    H     0.19210   0.28090   0.89162   0.00000  Uiso   1.00
H29    H     0.25607   0.02903   0.84570   0.00000  Uiso   1.00
H30    H     0.01659   0.09829   0.14192   0.00000  Uiso   1.00
H31    H     0.18411   0.13945   0.54643   0.00000  Uiso   1.00
H32    H     0.20261   0.20823   0.53147   0.00000  Uiso   1.00
H33    H     0.23295   0.08878   0.50968   0.00000  Uiso   1.00
H34    H     0.11939   0.12163   0.65015   0.00000  Uiso   1.00
H35    H     0.21904   0.28400   0.43283   0.00000  Uiso   1.00
H36    H     0.28301   0.03213   0.38691   0.00000  Uiso   1.00
H37    H     0.04354   0.10140   0.68313   0.00000  Uiso   1.00
O38    O     0.21718   0.32762   0.14096   0.00000  Uiso   1.00
O39    O     0.30110   0.99718   0.08072   0.00000  Uiso   1.00
O40    O     0.98692   0.08805   0.46936   0.00000  Uiso   1.00
N41    N     0.19589   0.27219   0.02105   0.00000  Uiso   1.00
N42    N     0.25571   0.03671   0.97812   0.00000  Uiso   1.00
N43    N     0.03182   0.10146   0.25506   0.00000  Uiso   1.00
N44    N     0.21039   0.27386   0.31228   0.00000  Uiso   1.00
N45    N     0.27020   0.03839   0.26934   0.00000  Uiso   1.00
N46    N     0.04632   0.10313   0.54628   0.00000  Uiso   1.00
C47    C     0.15985   0.63666   0.55912   0.00000  Uiso   1.00
C48    C     0.17332   0.67442   0.61981   0.00000  Uiso   1.00
C49    C     0.17658   0.70524   0.50860   0.00000  Uiso   1.00
C50    C     0.18944   0.73720   0.59009   0.00000  Uiso   1.00
C51    C     0.20896   0.79567   0.65600   0.00000  Uiso   1.00
C52    C     0.18981   0.60952   0.60797   0.00000  Uiso   1.00
C53    C     0.20693   0.58578   0.48681   0.00000  Uiso   1.00
C54    C     0.23367   0.56311   0.55835   0.00000  Uiso   1.00
C55    C     0.27877   0.52080   0.60589   0.00000  Uiso   1.00
C56    C     0.12811   0.62738   0.68429   0.00000  Uiso   1.00
C57    C     0.09335   0.61862   0.62731   0.00000  Uiso   1.00
C58    C     0.06814   0.61098   0.76310   0.00000  Uiso   1.00
C59    C     0.01744   0.59639   0.92915   0.00000  Uiso   1.00
C60    C     0.17690   0.63862   0.90160   0.00000  Uiso   1.00
C61    C     0.18259   0.67549   0.80583   0.00000  Uiso   1.00
C62    C     0.19544   0.70741   0.88751   0.00000  Uiso   1.00
C63    C     0.19871   0.73827   0.77645   0.00000  Uiso   1.00
C64    C     0.19908   0.61059   0.79398   0.00000  Uiso   1.00
C65    C     0.22579   0.58795   0.86572   0.00000  Uiso   1.00
C66    C     0.24294   0.56418   0.74470   0.00000  Uiso   1.00
C67    C     0.13737   0.62844   0.87031   0.00000  Uiso   1.00
C68    C     0.11221   0.62080   0.00622   0.00000  Uiso   1.00
C69    C     0.07741   0.61204   0.94946   0.00000  Uiso   1.00
H70    H     0.15264   0.63583   0.41430   0.00000  Uiso   1.00
H71    H     0.16941   0.70440   0.36465   0.00000  Uiso   1.00
H72    H     0.19975   0.58495   0.34287   0.00000  Uiso   1.00
H73    H     0.08619   0.61780   0.48335   0.00000  Uiso   1.00
H74    H     0.19210   0.78090   0.39162   0.00000  Uiso   1.00
H75    H     0.25607   0.52903   0.34570   0.00000  Uiso   1.00
H76    H     0.01659   0.59829   0.64192   0.00000  Uiso   1.00
H77    H     0.18411   0.63945   0.04643   0.00000  Uiso   1.00
H78    H     0.20261   0.70823   0.03147   0.00000  Uiso   1.00
H79    H     0.23295   0.58878   0.00968   0.00000  Uiso   1.00
H80    H     0.11939   0.62163   0.15015   0.00000  Uiso   1.00
H81    H     0.21904   0.78400   0.93283   0.00000  Uiso   1.00
H82    H     0.28301   0.53213   0.88691   0.00000  Uiso   1.00
H83    H     0.04354   0.60140   0.18313   0.00000  Uiso   1.00
O84    O     0.21718   0.82762   0.64096   0.00000  Uiso   1.00
O85    O     0.30110   0.49718   0.58072   0.00000  Uiso   1.00
O86    O     0.98692   0.58805   0.96936   0.00000  Uiso   1.00
N87    N     0.19589   0.77219   0.52105   0.00000  Uiso   1.00
N88    N     0.25571   0.53671   0.47812   0.00000  Uiso   1.00
N89    N     0.03182   0.60146   0.75506   0.00000  Uiso   1.00
N90    N     0.21039   0.77386   0.81228   0.00000  Uiso   1.00
N91    N     0.27020   0.53839   0.76934   0.00000  Uiso   1.00
N92    N     0.04632   0.60313   0.04628   0.00000  Uiso   1.00
C93    C     0.65985   0.13666   0.55912   0.00000  Uiso   1.00
C94    C     0.67332   0.17442   0.61981   0.00000  Uiso   1.00
C95    C     0.67658   0.20524   0.50860   0.00000  Uiso   1.00
C96    C     0.68944   0.23720   0.59009   0.00000  Uiso   1.00
C97    C     0.70896   0.29567   0.65600   0.00000  Uiso   1.00
C98    C     0.68981   0.10952   0.60797   0.00000  Uiso   1.00
C99    C     0.70693   0.08578   0.48681   0.00000  Uiso   1.00
C100   C     0.73367   0.06311   0.55835   0.00000  Uiso   1.00
C101   C     0.77877   0.02080   0.60589   0.00000  Uiso   1.00
C102   C     0.62811   0.12738   0.68429   0.00000  Uiso   1.00
C103   C     0.59335   0.11862   0.62731   0.00000  Uiso   1.00
C104   C     0.56814   0.11098   0.76310   0.00000  Uiso   1.00
C105   C     0.51744   0.09639   0.92915   0.00000  Uiso   1.00
C106   C     0.67690   0.13862   0.90160   0.00000  Uiso   1.00
C107   C     0.68259   0.17549   0.80583   0.00000  Uiso   1.00
C108   C     0.69544   0.20741   0.88751   0.00000  Uiso   1.00
C109   C     0.69871   0.23827   0.77645   0.00000  Uiso   1.00
C110   C     0.69908   0.11059   0.79398   0.00000  Uiso   1.00
C111   C     0.72579   0.08795   0.86572   0.00000  Uiso   1.00
C112   C     0.74294   0.06418   0.74470   0.00000  Uiso   1.00
C113   C     0.63737   0.12844   0.87031   0.00000  Uiso   1.00
C114   C     0.61221   0.12080   0.00622   0.00000  Uiso   1.00
C115   C     0.57741   0.11204   0.94946   0.00000  Uiso   1.00
H116   H     0.65264   0.13583   0.41430   0.00000  Uiso   1.00
H117   H     0.66941   0.20440   0.36465   0.00000  Uiso   1.00
H118   H     0.69975   0.08495   0.34287   0.00000  Uiso   1.00
H119   H     0.58619   0.11780   0.48335   0.00000  Uiso   1.00
H120   H     0.69210   0.28090   0.39162   0.00000  Uiso   1.00
H121   H     0.75607   0.02903   0.34570   0.00000  Uiso   1.00
H122   H     0.51659   0.09829   0.64192   0.00000  Uiso   1.00
H123   H     0.68411   0.13945   0.04643   0.00000  Uiso   1.00
H124   H     0.70261   0.20823   0.03147   0.00000  Uiso   1.00
H125   H     0.73295   0.08878   0.00968   0.00000  Uiso   1.00
H126   H     0.61939   0.12163   0.15015   0.00000  Uiso   1.00
H127   H     0.71904   0.28400   0.93283   0.00000  Uiso   1.00
H128   H     0.78301   0.03213   0.88691   0.00000  Uiso   1.00
H129   H     0.54354   0.10140   0.18313   0.00000  Uiso   1.00
O130   O     0.71718   0.32762   0.64096   0.00000  Uiso   1.00
O131   O     0.80110   0.99718   0.58072   0.00000  Uiso   1.00
O132   O     0.48692   0.08805   0.96936   0.00000  Uiso   1.00
N133   N     0.69589   0.27219   0.52105   0.00000  Uiso   1.00
N134   N     0.75571   0.03671   0.47812   0.00000  Uiso   1.00
N135   N     0.53182   0.10146   0.75506   0.00000  Uiso   1.00
N136   N     0.71039   0.27386   0.81228   0.00000  Uiso   1.00
N137   N     0.77020   0.03839   0.76934   0.00000  Uiso   1.00
N138   N     0.54632   0.10313   0.04628   0.00000  Uiso   1.00
C139   C     0.65985   0.63666   0.05912   0.00000  Uiso   1.00
C140   C     0.67332   0.67442   0.11981   0.00000  Uiso   1.00
C141   C     0.67658   0.70524   0.00860   0.00000  Uiso   1.00
C142   C     0.68944   0.73720   0.09009   0.00000  Uiso   1.00
C143   C     0.70896   0.79567   0.15600   0.00000  Uiso   1.00
C144   C     0.68981   0.60952   0.10797   0.00000  Uiso   1.00
C145   C     0.70693   0.58578   0.98681   0.00000  Uiso   1.00
C146   C     0.73367   0.56311   0.05835   0.00000  Uiso   1.00
C147   C     0.77877   0.52080   0.10589   0.00000  Uiso   1.00
C148   C     0.62811   0.62738   0.18429   0.00000  Uiso   1.00
C149   C     0.59335   0.61862   0.12731   0.00000  Uiso   1.00
C150   C     0.56814   0.61098   0.26310   0.00000  Uiso   1.00
C151   C     0.51744   0.59639   0.42915   0.00000  Uiso   1.00
C152   C     0.67690   0.63862   0.40160   0.00000  Uiso   1.00
C153   C     0.68259   0.67549   0.30583   0.00000  Uiso   1.00
C154   C     0.69544   0.70741   0.38751   0.00000  Uiso   1.00
C155   C     0.69871   0.73827   0.27645   0.00000  Uiso   1.00
C156   C     0.69908   0.61059   0.29398   0.00000  Uiso   1.00
C157   C     0.72579   0.58795   0.36572   0.00000  Uiso   1.00
C158   C     0.74294   0.56418   0.24470   0.00000  Uiso   1.00
C159   C     0.63737   0.62844   0.37031   0.00000  Uiso   1.00
C160   C     0.61221   0.62080   0.50622   0.00000  Uiso   1.00
C161   C     0.57741   0.61204   0.44946   0.00000  Uiso   1.00
H162   H     0.65264   0.63583   0.91430   0.00000  Uiso   1.00
H163   H     0.66941   0.70440   0.86465   0.00000  Uiso   1.00
H164   H     0.69975   0.58495   0.84287   0.00000  Uiso   1.00
H165   H     0.58619   0.61780   0.98335   0.00000  Uiso   1.00
H166   H     0.69210   0.78090   0.89162   0.00000  Uiso   1.00
H167   H     0.75607   0.52903   0.84570   0.00000  Uiso   1.00
H168   H     0.51659   0.59829   0.14192   0.00000  Uiso   1.00
H169   H     0.68411   0.63945   0.54643   0.00000  Uiso   1.00
H170   H     0.70261   0.70823   0.53147   0.00000  Uiso   1.00
H171   H     0.73295   0.58878   0.50968   0.00000  Uiso   1.00
H172   H     0.61939   0.62163   0.65015   0.00000  Uiso   1.00
H173   H     0.71904   0.78400   0.43283   0.00000  Uiso   1.00
H174   H     0.78301   0.53213   0.38691   0.00000  Uiso   1.00
H175   H     0.54354   0.60140   0.68313   0.00000  Uiso   1.00
O176   O     0.71718   0.82762   0.14096   0.00000  Uiso   1.00
O177   O     0.80110   0.49718   0.08072   0.00000  Uiso   1.00
O178   O     0.48692   0.58805   0.46936   0.00000  Uiso   1.00
N179   N     0.69589   0.77219   0.02105   0.00000  Uiso   1.00
N180   N     0.75571   0.53671   0.97812   0.00000  Uiso   1.00
N181   N     0.53182   0.60146   0.25506   0.00000  Uiso   1.00
N182   N     0.71039   0.77386   0.31228   0.00000  Uiso   1.00
N183   N     0.77020   0.53839   0.26934   0.00000  Uiso   1.00
N184   N     0.54632   0.60313   0.54628   0.00000  Uiso   1.00
C185   C     0.84015   0.86334   0.05912   0.00000  Uiso   1.00
C186   C     0.82668   0.82558   0.11981   0.00000  Uiso   1.00
C187   C     0.82342   0.79476   0.00860   0.00000  Uiso   1.00
C188   C     0.81056   0.76280   0.09009   0.00000  Uiso   1.00
C189   C     0.79104   0.70433   0.15600   0.00000  Uiso   1.00
C190   C     0.81019   0.89048   0.10797   0.00000  Uiso   1.00
C191   C     0.79307   0.91422   0.98681   0.00000  Uiso   1.00
C192   C     0.76633   0.93689   0.05835   0.00000  Uiso   1.00
C193   C     0.72123   0.97920   0.10589   0.00000  Uiso   1.00
C194   C     0.87189   0.87262   0.18429   0.00000  Uiso   1.00
C195   C     0.90665   0.88138   0.12731   0.00000  Uiso   1.00
C196   C     0.93186   0.88902   0.26310   0.00000  Uiso   1.00
C197   C     0.98256   0.90361   0.42915   0.00000  Uiso   1.00
C198   C     0.82310   0.86138   0.40160   0.00000  Uiso   1.00
C199   C     0.81741   0.82451   0.30583   0.00000  Uiso   1.00
C200   C     0.80456   0.79259   0.38751   0.00000  Uiso   1.00
C201   C     0.80129   0.76173   0.27645   0.00000  Uiso   1.00
C202   C     0.80092   0.88941   0.29398   0.00000  Uiso   1.00
C203   C     0.77421   0.91205   0.36572   0.00000  Uiso   1.00
C204   C     0.75706   0.93582   0.24470   0.00000  Uiso   1.00
C205   C     0.86263   0.87156   0.37031   0.00000  Uiso   1.00
C206   C     0.88779   0.87920   0.50622   0.00000  Uiso   1.00
C207   C     0.92259   0.88796   0.44946   0.00000  Uiso   1.00
H208   H     0.84736   0.86417   0.91430   0.00000  Uiso   1.00
H209   H     0.83059   0.79560   0.86465   0.00000  Uiso   1.00
H210   H     0.80025   0.91505   0.84287   0.00000  Uiso   1.00
H211   H     0.91381   0.88220   0.98335   0.00000  Uiso   1.00
H212   H     0.80790   0.71910   0.89162   0.00000  Uiso   1.00
H213   H     0.74393   0.97097   0.84570   0.00000  Uiso   1.00
H214   H     0.98341   0.90171   0.14192   0.00000  Uiso   1.00
H215   H     0.81589   0.86055   0.54643   0.00000  Uiso   1.00
H216   H     0.79739   0.79177   0.53147   0.00000  Uiso   1.00
H217   H     0.76705   0.91122   0.50968   0.00000  Uiso   1.00
H218   H     0.88061   0.87837   0.65015   0.00000  Uiso   1.00
H219   H     0.78096   0.71600   0.43283   0.00000  Uiso   1.00
H220   H     0.71699   0.96787   0.38691   0.00000  Uiso   1.00
H221   H     0.95646   0.89860   0.68313   0.00000  Uiso   1.00
O222   O     0.78282   0.67238   0.14096   0.00000  Uiso   1.00
O223   O     0.69890   0.00282   0.08072   0.00000  Uiso   1.00
O224   O     0.01308   0.91195   0.46936   0.00000  Uiso   1.00
N225   N     0.80411   0.72781   0.02105   0.00000  Uiso   1.00
N226   N     0.74429   0.96329   0.97812   0.00000  Uiso   1.00
N227   N     0.96818   0.89854   0.25506   0.00000  Uiso   1.00
N228   N     0.78961   0.72614   0.31228   0.00000  Uiso   1.00
N229   N     0.72980   0.96161   0.26934   0.00000  Uiso   1.00
N230   N     0.95368   0.89687   0.54628   0.00000  Uiso   1.00
C231   C     0.84015   0.36334   0.55912   0.00000  Uiso   1.00
C232   C     0.82668   0.32558   0.61981   0.00000  Uiso   1.00
C233   C     0.82342   0.29476   0.50860   0.00000  Uiso   1.00
C234   C     0.81056   0.26280   0.59009   0.00000  Uiso   1.00
C235   C     0.79104   0.20433   0.65600   0.00000  Uiso   1.00
C236   C     0.81019   0.39048   0.60797   0.00000  Uiso   1.00
C237   C     0.79307   0.41422   0.48681   0.00000  Uiso   1.00
C238   C     0.76633   0.43689   0.55835   0.00000  Uiso   1.00
C239   C     0.72123   0.47920   0.60589   0.00000  Uiso   1.00
C240   C     0.87189   0.37262   0.68429   0.00000  Uiso   1.00
C241   C     0.90665   0.38138   0.62731   0.00000  Uiso   1.00
C242   C     0.93186   0.38902   0.76310   0.00000  Uiso   1.00
C243   C     0.98256   0.40361   0.92915   0.00000  Uiso   1.00
C244   C     0.82310   0.36138   0.90160   0.00000  Uiso   1.00
C245   C     0.81741   0.32451   0.80583   0.00000  Uiso   1.00
C246   C     0.80456   0.29259   0.88751   0.00000  Uiso   1.00
C247   C     0.80129   0.26173   0.77645   0.00000  Uiso   1.00
C248   C     0.80092   0.38941   0.79398   0.00000  Uiso   1.00
C249   C     0.77421   0.41205   0.86572   0.00000  Uiso   1.00
C250   C     0.75706   0.43582   0.74470   0.00000  Uiso   1.00
C251   C     0.86263   0.37156   0.87031   0.00000  Uiso   1.00
C252   C     0.88779   0.37920   0.00622   0.00000  Uiso   1.00
C253   C     0.92259   0.38796   0.94946   0.00000  Uiso   1.00
H254   H     0.84736   0.36417   0.41430   0.00000  Uiso   1.00
H255   H     0.83059   0.29560   0.36465   0.00000  Uiso   1.00
H256   H     0.80025   0.41505   0.34287   0.00000  Uiso   1.00
H257   H     0.91381   0.38220   0.48335   0.00000  Uiso   1.00
H258   H     0.80790   0.21910   0.39162   0.00000  Uiso   1.00
H259   H     0.74393   0.47097   0.34570   0.00000  Uiso   1.00
H260   H     0.98341   0.40171   0.64192   0.00000  Uiso   1.00
H261   H     0.81589   0.36055   0.04643   0.00000  Uiso   1.00
H262   H     0.79739   0.29177   0.03147   0.00000  Uiso   1.00
H263   H     0.76705   0.41122   0.00968   0.00000  Uiso   1.00
H264   H     0.88061   0.37837   0.15015   0.00000  Uiso   1.00
H265   H     0.78096   0.21600   0.93283   0.00000  Uiso   1.00
H266   H     0.71699   0.46787   0.88691   0.00000  Uiso   1.00
H267   H     0.95646   0.39860   0.18313   0.00000  Uiso   1.00
O268   O     0.78282   0.17238   0.64096   0.00000  Uiso   1.00
O269   O     0.69890   0.50282   0.58072   0.00000  Uiso   1.00
O270   O     0.01308   0.41195   0.96936   0.00000  Uiso   1.00
N271   N     0.80411   0.22781   0.52105   0.00000  Uiso   1.00
N272   N     0.74429   0.46329   0.47812   0.00000  Uiso   1.00
N273   N     0.96818   0.39854   0.75506   0.00000  Uiso   1.00
N274   N     0.78961   0.22614   0.81228   0.00000  Uiso   1.00
N275   N     0.72980   0.46161   0.76934   0.00000  Uiso   1.00
N276   N     0.95368   0.39687   0.04628   0.00000  Uiso   1.00
C277   C     0.34015   0.86334   0.55912   0.00000  Uiso   1.00
C278   C     0.32668   0.82558   0.61981   0.00000  Uiso   1.00
C279   C     0.32342   0.79476   0.50860   0.00000  Uiso   1.00
C280   C     0.31056   0.76280   0.59009   0.00000  Uiso   1.00
C281   C     0.29104   0.70433   0.65600   0.00000  Uiso   1.00
C282   C     0.31019   0.89048   0.60797   0.00000  Uiso   1.00
C283   C     0.29307   0.91422   0.48681   0.00000  Uiso   1.00
C284   C     0.26633   0.93689   0.55835   0.00000  Uiso   1.00
C285   C     0.22123   0.97920   0.60589   0.00000  Uiso   1.00
C286   C     0.37189   0.87262   0.68429   0.00000  Uiso   1.00
C287   C     0.40665   0.88138   0.62731   0.00000  Uiso   1.00
C288   C     0.43186   0.88902   0.76310   0.00000  Uiso   1.00
C289   C     0.48256   0.90361   0.92915   0.00000  Uiso   1.00
C290   C     0.32310   0.86138   0.90160   0.00000  Uiso   1.00
C291   C     0.31741   0.82451   0.80583   0.00000  Uiso   1.00
C292   C     0.30456   0.79259   0.88751   0.00000  Uiso   1.00
C293   C     0.30129   0.76173   0.77645   0.00000  Uiso   1.00
C294   C     0.30092   0.88941   0.79398   0.00000  Uiso   1.00
C295   C     0.27421   0.91205   0.86572   0.00000  Uiso   1.00
C296   C     0.25706   0.93582   0.74470   0.00000  Uiso   1.00
C297   C     0.36263   0.87156   0.87031   0.00000  Uiso   1.00
C298   C     0.38779   0.87920   0.00622   0.00000  Uiso   1.00
C299   C     0.42259   0.88796   0.94946   0.00000  Uiso   1.00
H300   H     0.34736   0.86417   0.41430   0.00000  Uiso   1.00
H301   H     0.33059   0.79560   0.36465   0.00000  Uiso   1.00
H302   H     0.30025   0.91505   0.34287   0.00000  Uiso   1.00
H303   H     0.41381   0.88220   0.48335   0.00000  Uiso   1.00
H304   H     0.30790   0.71910   0.39162   0.00000  Uiso   1.00
H305   H     0.24393   0.97097   0.34570   0.00000  Uiso   1.00
H306   H     0.48341   0.90171   0.64192   0.00000  Uiso   1.00
H307   H     0.31589   0.86055   0.04643   0.00000  Uiso   1.00
H308   H     0.29739   0.79177   0.03147   0.00000  Uiso   1.00
H309   H     0.26705   0.91122   0.00968   0.00000  Uiso   1.00
H310   H     0.38061   0.87837   0.15015   0.00000  Uiso   1.00
H311   H     0.28096   0.71600   0.93283   0.00000  Uiso   1.00
H312   H     0.21699   0.96787   0.88691   0.00000  Uiso   1.00
H313   H     0.45646   0.89860   0.18313   0.00000  Uiso   1.00
O314   O     0.28282   0.67238   0.64096   0.00000  Uiso   1.00
O315   O     0.19890   0.00282   0.58072   0.00000  Uiso   1.00
O316   O     0.51308   0.91195   0.96936   0.00000  Uiso   1.00
N317   N     0.30411   0.72781   0.52105   0.00000  Uiso   1.00
N318   N     0.24429   0.96329   0.47812   0.00000  Uiso   1.00
N319   N     0.46818   0.89854   0.75506   0.00000  Uiso   1.00
N320   N     0.28961   0.72614   0.81228   0.00000  Uiso   1.00
N321   N     0.22980   0.96161   0.76934   0.00000  Uiso   1.00
N322   N     0.45368   0.89687   0.04628   0.00000  Uiso   1.00
C323   C     0.34015   0.36334   0.05912   0.00000  Uiso   1.00
C324   C     0.32668   0.32558   0.11981   0.00000  Uiso   1.00
C325   C     0.32342   0.29476   0.00860   0.00000  Uiso   1.00
C326   C     0.31056   0.26280   0.09009   0.00000  Uiso   1.00
C327   C     0.29104   0.20433   0.15600   0.00000  Uiso   1.00
C328   C     0.31019   0.39048   0.10797   0.00000  Uiso   1.00
C329   C     0.29307   0.41422   0.98681   0.00000  Uiso   1.00
C330   C     0.26633   0.43689   0.05835   0.00000  Uiso   1.00
C331   C     0.22123   0.47920   0.10589   0.00000  Uiso   1.00
C332   C     0.37189   0.37262   0.18429   0.00000  Uiso   1.00
C333   C     0.40665   0.38138   0.12731   0.00000  Uiso   1.00
C334   C     0.43186   0.38902   0.26310   0.00000  Uiso   1.00
C335   C     0.48256   0.40361   0.42915   0.00000  Uiso   1.00
C336   C     0.32310   0.36138   0.40160   0.00000  Uiso   1.00
C337   C     0.31741   0.32451   0.30583   0.00000  Uiso   1.00
C338   C     0.30456   0.29259   0.38751   0.00000  Uiso   1.00
C339   C     0.30129   0.26173   0.27645   0.00000  Uiso   1.00
C340   C     0.30092   0.38941   0.29398   0.00000  Uiso   1.00
C341   C     0.27421   0.41205   0.36572   0.00000  Uiso   1.00
C342   C     0.25706   0.43582   0.24470   0.00000  Uiso   1.00
C343   C     0.36263   0.37156   0.37031   0.00000  Uiso   1.00
C344   C     0.38779   0.37920   0.50622   0.00000  Uiso   1.00
C345   C     0.42259   0.38796   0.44946   0.00000  Uiso   1.00
H346   H     0.34736   0.36417   0.91430   0.00000  Uiso   1.00
H347   H     0.33059   0.29560   0.86465   0.00000  Uiso   1.00
H348   H     0.30025   0.41505   0.84287   0.00000  Uiso   1.00
H349   H     0.41381   0.38220   0.98335   0.00000  Uiso   1.00
H350   H     0.30790   0.21910   0.89162   0.00000  Uiso   1.00
H351   H     0.24393   0.47097   0.84570   0.00000  Uiso   1.00
H352   H     0.48341   0.40171   0.14192   0.00000  Uiso   1.00
H353   H     0.31589   0.36055   0.54643   0.00000  Uiso   1.00
H354   H     0.29739   0.29177   0.53147   0.00000  Uiso   1.00
H355   H     0.26705   0.41122   0.50968   0.00000  Uiso   1.00
H356   H     0.38061   0.37837   0.65015   0.00000  Uiso   1.00
H357   H     0.28096   0.21600   0.43283   0.00000  Uiso   1.00
H358   H     0.21699   0.46787   0.38691   0.00000  Uiso   1.00
H359   H     0.45646   0.39860   0.68313   0.00000  Uiso   1.00
O360   O     0.28282   0.17238   0.14096   0.00000  Uiso   1.00
O361   O     0.19890   0.50282   0.08072   0.00000  Uiso   1.00
O362   O     0.51308   0.41195   0.46936   0.00000  Uiso   1.00
N363   N     0.30411   0.22781   0.02105   0.00000  Uiso   1.00
N364   N     0.24429   0.46329   0.97812   0.00000  Uiso   1.00
N365   N     0.46818   0.39854   0.25506   0.00000  Uiso   1.00
N366   N     0.28961   0.22614   0.31228   0.00000  Uiso   1.00
N367   N     0.22980   0.46161   0.26934   0.00000  Uiso   1.00
N368   N     0.45368   0.39687   0.54628   0.00000  Uiso   1.00
C369   C     0.40985   0.11334   0.30912   0.00000  Uiso   1.00
C370   C     0.42332   0.07558   0.36981   0.00000  Uiso   1.00
C371   C     0.42658   0.04476   0.25860   0.00000  Uiso   1.00
C372   C     0.43944   0.01280   0.34009   0.00000  Uiso   1.00
C373   C     0.45896   0.95433   0.40600   0.00000  Uiso   1.00
C374   C     0.43981   0.14048   0.35797   0.00000  Uiso   1.00
C375   C     0.45693   0.16422   0.23681   0.00000  Uiso   1.00
C376   C     0.48367   0.18689   0.30835   0.00000  Uiso   1.00
C377   C     0.52877   0.22920   0.35589   0.00000  Uiso   1.00
C378   C     0.37811   0.12262   0.43429   0.00000  Uiso   1.00
C379   C     0.34335   0.13138   0.37731   0.00000  Uiso   1.00
C380   C     0.31814   0.13902   0.51310   0.00000  Uiso   1.00
C381   C     0.26744   0.15361   0.67915   0.00000  Uiso   1.00
C382   C     0.42690   0.11138   0.65160   0.00000  Uiso   1.00
C383   C     0.43259   0.07451   0.55583   0.00000  Uiso   1.00
C384   C     0.44544   0.04259   0.63751   0.00000  Uiso   1.00
C385   C     0.44871   0.01173   0.52645   0.00000  Uiso   1.00
C386   C     0.44908   0.13941   0.54398   0.00000  Uiso   1.00
C387   C     0.47579   0.16205   0.61572   0.00000  Uiso   1.00
C388   C     0.49294   0.18582   0.49470   0.00000  Uiso   1.00
C389   C     0.38737   0.12156   0.62031   0.00000  Uiso   1.00
C390   C     0.36221   0.12920   0.75622   0.00000  Uiso   1.00
C391   C     0.32741   0.13796   0.69946   0.00000  Uiso   1.00
H392   H     0.40264   0.11417   0.16430   0.00000  Uiso   1.00
H393   H     0.41941   0.04560   0.11465   0.00000  Uiso   1.00
H394   H     0.44975   0.16505   0.09287   0.00000  Uiso   1.00
H395   H     0.33619   0.13220   0.23335   0.00000  Uiso   1.00
H396   H     0.44210   0.96910   0.14162   0.00000  Uiso   1.00
H397   H     0.50607   0.22097   0.09570   0.00000  Uiso   1.00
H398   H     0.26659   0.15171   0.39192   0.00000  Uiso   1.00
H399   H     0.43411   0.11055   0.79643   0.00000  Uiso   1.00
H400   H     0.45261   0.04177   0.78147   0.00000  Uiso   1.00
H401   H     0.48295   0.16122   0.75968   0.00000  Uiso   1.00
H402   H     0.36939   0.12837   0.90015   0.00000  Uiso   1.00
H403   H     0.46904   0.96600   0.68283   0.00000  Uiso   1.00
H404   H     0.53301   0.21787   0.63691   0.00000  Uiso   1.00
H405   H     0.29354   0.14860   0.93313   0.00000  Uiso   1.00
O406   O     0.46718   0.92238   0.39096   0.00000  Uiso   1.00
O407   O     0.55110   0.25282   0.33072   0.00000  Uiso   1.00
O408   O     0.23692   0.16195   0.71936   0.00000  Uiso   1.00
N409   N     0.44589   0.97781   0.27105   0.00000  Uiso   1.00
N410   N     0.50571   0.21329   0.22812   0.00000  Uiso   1.00
N411   N     0.28182   0.14854   0.50506   0.00000  Uiso   1.00
N412   N     0.46039   0.97614   0.56228   0.00000  Uiso   1.00
N413   N     0.52020   0.21161   0.51934   0.00000  Uiso   1.00
N414   N     0.29632   0.14687   0.79628   0.00000  Uiso   1.00
C415   C     0.40985   0.61334   0.80912   0.00000  Uiso   1.00
C416   C     0.42332   0.57558   0.86981   0.00000  Uiso   1.00
C417   C     0.42658   0.54476   0.75860   0.00000  Uiso   1.00
C418   C     0.43944   0.51280   0.84009   0.00000  Uiso   1.00
C419   C     0.45896   0.45433   0.90600   0.00000  Uiso   1.00
C420   C     0.43981   0.64048   0.85797   0.00000  Uiso   1.00
C421   C     0.45693   0.66422   0.73681   0.00000  Uiso   1.00
C422   C     0.48367   0.68689   0.80835   0.00000  Uiso   1.00
C423   C     0.52877   0.72920   0.85589   0.00000  Uiso   1.00
C424   C     0.37811   0.62262   0.93429   0.00000  Uiso   1.00
C425   C     0.34335   0.63138   0.87731   0.00000  Uiso   1.00
C426   C     0.31814   0.63902   0.01310   0.00000  Uiso   1.00
C427   C     0.26744   0.65361   0.17915   0.00000  Uiso   1.00
C428   C     0.42690   0.61138   0.15160   0.00000  Uiso   1.00
C429   C     0.43259   0.57451   0.05583   0.00000  Uiso   1.00
C430   C     0.44544   0.54259   0.13751   0.00000  Uiso   1.00
C431   C     0.44871   0.51173   0.02645   0.00000  Uiso   1.00
C432   C     0.44908   0.63941   0.04398   0.00000  Uiso   1.00
C433   C     0.47579   0.66205   0.11572   0.00000  Uiso   1.00
C434   C     0.49294   0.68582   0.99470   0.00000  Uiso   1.00
C435   C     0.38737   0.62156   0.12031   0.00000  Uiso   1.00
C436   C     0.36221   0.62920   0.25622   0.00000  Uiso   1.00
C437   C     0.32741   0.63796   0.19946   0.00000  Uiso   1.00
H438   H     0.40264   0.61417   0.66430   0.00000  Uiso   1.00
H439   H     0.41941   0.54560   0.61465   0.00000  Uiso   1.00
H440   H     0.44975   0.66505   0.59287   0.00000  Uiso   1.00
H441   H     0.33619   0.63220   0.73335   0.00000  Uiso   1.00
H442   H     0.44210   0.46910   0.64162   0.00000  Uiso   1.00
H443   H     0.50607   0.72097   0.59570   0.00000  Uiso   1.00
H444   H     0.26659   0.65171   0.89192   0.00000  Uiso   1.00
H445   H     0.43411   0.61055   0.29643   0.00000  Uiso   1.00
H446   H     0.45261   0.54177   0.28147   0.00000  Uiso   1.00
H447   H     0.48295   0.66122   0.25968   0.00000  Uiso   1.00
H448   H     0.36939   0.62837   0.40015   0.00000  Uiso   1.00
H449   H     0.46904   0.46600   0.18283   0.00000  Uiso   1.00
H450   H     0.53301   0.71787   0.13691   0.00000  Uiso   1.00
H451   H     0.29354   0.64860   0.43313   0.00000  Uiso   1.00
O452   O     0.46718   0.42238   0.89096   0.00000  Uiso   1.00
O453   O     0.55110   0.75282   0.83072   0.00000  Uiso   1.00
O454   O     0.23692   0.66195   0.21936   0.00000  Uiso   1.00
N455   N     0.44589   0.47781   0.77105   0.00000  Uiso   1.00
N456   N     0.50571   0.71329   0.72812   0.00000  Uiso   1.00
N457   N     0.28182   0.64854   0.00506   0.00000  Uiso   1.00
N458   N     0.46039   0.47614   0.06228   0.00000  Uiso   1.00
N459   N     0.52020   0.71161   0.01934   0.00000  Uiso   1.00
N460   N     0.29632   0.64687   0.29628   0.00000  Uiso   1.00
C461   C     0.90985   0.11334   0.80912   0.00000  Uiso   1.00
C462   C     0.92332   0.07558   0.86981   0.00000  Uiso   1.00
C463   C     0.92658   0.04476   0.75860   0.00000  Uiso   1.00
C464   C     0.93944   0.01280   0.84009   0.00000  Uiso   1.00
C465   C     0.95896   0.95433   0.90600   0.00000  Uiso   1.00
C466   C     0.93981   0.14048   0.85797   0.00000  Uiso   1.00
C467   C     0.95693   0.16422   0.73681   0.00000  Uiso   1.00
C468   C     0.98367   0.18689   0.80835   0.00000  Uiso   1.00
C469   C     0.02877   0.22920   0.85589   0.00000  Uiso   1.00
C470   C     0.87811   0.12262   0.93429   0.00000  Uiso   1.00
C471   C     0.84335   0.13138   0.87731   0.00000  Uiso   1.00
C472   C     0.81814   0.13902   0.01310   0.00000  Uiso   1.00
C473   C     0.76744   0.15361   0.17915   0.00000  Uiso   1.00
C474   C     0.92690   0.11138   0.15160   0.00000  Uiso   1.00
C475   C     0.93259   0.07451   0.05583   0.00000  Uiso   1.00
C476   C     0.94544   0.04259   0.13751   0.00000  Uiso   1.00
C477   C     0.94871   0.01173   0.02645   0.00000  Uiso   1.00
C478   C     0.94908   0.13941   0.04398   0.00000  Uiso   1.00
C479   C     0.97579   0.16205   0.11572   0.00000  Uiso   1.00
C480   C     0.99294   0.18582   0.99470   0.00000  Uiso   1.00
C481   C     0.88737   0.12156   0.12031   0.00000  Uiso   1.00
C482   C     0.86221   0.12920   0.25622   0.00000  Uiso   1.00
C483   C     0.82741   0.13796   0.19946   0.00000  Uiso   1.00
H484   H     0.90264   0.11417   0.66430   0.00000  Uiso   1.00
H485   H     0.91941   0.04560   0.61465   0.00000  Uiso   1.00
H486   H     0.94975   0.16505   0.59287   0.00000  Uiso   1.00
H487   H     0.83619   0.13220   0.73335   0.00000  Uiso   1.00
H488   H     0.94210   0.96910   0.64162   0.00000  Uiso   1.00
H489   H     0.00607   0.22097   0.59570   0.00000  Uiso   1.00
H490   H     0.76659   0.15171   0.89192   0.00000  Uiso   1.00
H491   H     0.93411   0.11055   0.29643   0.00000  Uiso   1.00
H492   H     0.95261   0.04177   0.28147   0.00000  Uiso   1.00
H493   H     0.98295   0.16122   0.25968   0.00000  Uiso   1.00
H494   H     0.86939   0.12837   0.40015   0.00000  Uiso   1.00
H495   H     0.96904   0.96600   0.18283   0.00000  Uiso   1.00
H496   H     0.03301   0.21787   0.13691   0.00000  Uiso   1.00
H497   H     0.79354   0.14860   0.43313   0.00000  Uiso   1.00
O498   O     0.96718   0.92238   0.89096   0.00000  Uiso   1.00
O499   O     0.05110   0.25282   0.83072   0.00000  Uiso   1.00
O500   O     0.73692   0.16195   0.21936   0.00000  Uiso   1.00
N501   N     0.94589   0.97781   0.77105   0.00000  Uiso   1.00
N502   N     0.00571   0.21329   0.72812   0.00000  Uiso   1.00
N503   N     0.78182   0.14854   0.00506   0.00000  Uiso   1.00
N504   N     0.96039   0.97614   0.06228   0.00000  Uiso   1.00
N505   N     0.02020   0.21161   0.01934   0.00000  Uiso   1.00
N506   N     0.79632   0.14687   0.29628   0.00000  Uiso   1.00
C507   C     0.90985   0.61334   0.30912   0.00000  Uiso   1.00
C508   C     0.92332   0.57558   0.36981   0.00000  Uiso   1.00
C509   C     0.92658   0.54476   0.25860   0.00000  Uiso   1.00
C510   C     0.93944   0.51280   0.34009   0.00000  Uiso   1.00
C511   C     0.95896   0.45433   0.40600   0.00000  Uiso   1.00
C512   C     0.93981   0.64048   0.35797   0.00000  Uiso   1.00
C513   C     0.95693   0.66422   0.23681   0.00000  Uiso   1.00
C514   C     0.98367   0.68689   0.30835   0.00000  Uiso   1.00
C515   C     0.02877   0.72920   0.35589   0.00000  Uiso   1.00
C516   C     0.87811   0.62262   0.43429   0.00000  Uiso   1.00
C517   C     0.84335   0.63138   0.37731   0.00000  Uiso   1.00
C518   C     0.81814   0.63902   0.51310   0.00000  Uiso   1.00
C519   C     0.76744   0.65361   0.67915   0.00000  Uiso   1.00
C520   C     0.92690   0.61138   0.65160   0.00000  Uiso   1.00
C521   C     0.93259   0.57451   0.55583   0.00000  Uiso   1.00
C522   C     0.94544   0.54259   0.63751   0.00000  Uiso   1.00
C523   C     0.94871   0.51173   0.52645   0.00000  Uiso   1.00
C524   C     0.94908   0.63941   0.54398   0.00000  Uiso   1.00
C525   C     0.97579   0.66205   0.61572   0.00000  Uiso   1.00
C526   C     0.99294   0.68582   0.49470   0.00000  Uiso   1.00
C527   C     0.88737   0.62156   0.62031   0.00000  Uiso   1.00
C528   C     0.86221   0.62920   0.75622   0.00000  Uiso   1.00
C529   C     0.82741   0.63796   0.69946   0.00000  Uiso   1.00
H530   H     0.90264   0.61417   0.16430   0.00000  Uiso   1.00
H531   H     0.91941   0.54560   0.11465   0.00000  Uiso   1.00
H532   H     0.94975   0.66505   0.09287   0.00000  Uiso   1.00
H533   H     0.83619   0.63220   0.23335   0.00000  Uiso   1.00
H534   H     0.94210   0.46910   0.14162   0.00000  Uiso   1.00
H535   H     0.00607   0.72097   0.09570   0.00000  Uiso   1.00
H536   H     0.76659   0.65171   0.39192   0.00000  Uiso   1.00
H537   H     0.93411   0.61055   0.79643   0.00000  Uiso   1.00
H538   H     0.95261   0.54177   0.78147   0.00000  Uiso   1.00
H539   H     0.98295   0.66122   0.75968   0.00000  Uiso   1.00
H540   H     0.86939   0.62837   0.90015   0.00000  Uiso   1.00
H541   H     0.96904   0.46600   0.68283   0.00000  Uiso   1.00
H542   H     0.03301   0.71787   0.63691   0.00000  Uiso   1.00
H543   H     0.79354   0.64860   0.93313   0.00000  Uiso   1.00
O544   O     0.96718   0.42238   0.39096   0.00000  Uiso   1.00
O545   O     0.05110   0.75282   0.33072   0.00000  Uiso   1.00
O546   O     0.73692   0.66195   0.71936   0.00000  Uiso   1.00
N547   N     0.94589   0.47781   0.27105   0.00000  Uiso   1.00
N548   N     0.00571   0.71329   0.22812   0.00000  Uiso   1.00
N549   N     0.78182   0.64854   0.50506   0.00000  Uiso   1.00
N550   N     0.96039   0.47614   0.56228   0.00000  Uiso   1.00
N551   N     0.02020   0.71161   0.51934   0.00000  Uiso   1.00
N552   N     0.79632   0.64687   0.79628   0.00000  Uiso   1.00
C553   C     0.09015   0.38666   0.30912   0.00000  Uiso   1.00
C554   C     0.07668   0.42442   0.36981   0.00000  Uiso   1.00
C555   C     0.07342   0.45524   0.25860   0.00000  Uiso   1.00
C556   C     0.06056   0.48720   0.34009   0.00000  Uiso   1.00
C557   C     0.04104   0.54567   0.40600   0.00000  Uiso   1.00
C558   C     0.06019   0.35952   0.35797   0.00000  Uiso   1.00
C559   C     0.04307   0.33578   0.23681   0.00000  Uiso   1.00
C560   C     0.01633   0.31311   0.30835   0.00000  Uiso   1.00
C561   C     0.97123   0.27080   0.35589   0.00000  Uiso   1.00
C562   C     0.12189   0.37738   0.43429   0.00000  Uiso   1.00
C563   C     0.15665   0.36862   0.37731   0.00000  Uiso   1.00
C564   C     0.18186   0.36098   0.51310   0.00000  Uiso   1.00
C565   C     0.23256   0.34639   0.67915   0.00000  Uiso   1.00
C566   C     0.07310   0.38862   0.65160   0.00000  Uiso   1.00
C567   C     0.06741   0.42549   0.55583   0.00000  Uiso   1.00
C568   C     0.05456   0.45741   0.63751   0.00000  Uiso   1.00
C569   C     0.05129   0.48827   0.52645   0.00000  Uiso   1.00
C570   C     0.05092   0.36059   0.54398   0.00000  Uiso   1.00
C571   C     0.02421   0.33795   0.61572   0.00000  Uiso   1.00
C572   C     0.00706   0.31418   0.49470   0.00000  Uiso   1.00
C573   C     0.11263   0.37844   0.62031   0.00000  Uiso   1.00
C574   C     0.13779   0.37080   0.75622   0.00000  Uiso   1.00
C575   C     0.17259   0.36204   0.69946   0.00000  Uiso   1.00
H576   H     0.09736   0.38583   0.16430   0.00000  Uiso   1.00
H577   H     0.08059   0.45440   0.11465   0.00000  Uiso   1.00
H578   H     0.05025   0.33495   0.09287   0.00000  Uiso   1.00
H579   H     0.16381   0.36780   0.23335   0.00000  Uiso   1.00
H580   H     0.05790   0.53090   0.14162   0.00000  Uiso   1.00
H581   H     0.99393   0.27903   0.09570   0.00000  Uiso   1.00
H582   H     0.23341   0.34829   0.39192   0.00000  Uiso   1.00
H583   H     0.06589   0.38945   0.79643   0.00000  Uiso   1.00
H584   H     0.04739   0.45823   0.78147   0.00000  Uiso   1.00
H585   H     0.01705   0.33878   0.75968   0.00000  Uiso   1.00
H586   H     0.13061   0.37163   0.90015   0.00000  Uiso   1.00
H587   H     0.03096   0.53400   0.68283   0.00000  Uiso   1.00
H588   H     0.96699   0.28213   0.63691   0.00000  Uiso   1.00
H589   H     0.20646   0.35140   0.93313   0.00000  Uiso   1.00
O590   O     0.03282   0.57762   0.39096   0.00000  Uiso   1.00
O591   O     0.94890   0.24718   0.33072   0.00000  Uiso   1.00
O592   O     0.26308   0.33805   0.71936   0.00000  Uiso   1.00
N593   N     0.05411   0.52219   0.27105   0.00000  Uiso   1.00
N594   N     0.99429   0.28671   0.22812   0.00000  Uiso   1.00
N595   N     0.21818   0.35146   0.50506   0.00000  Uiso   1.00
N596   N     0.03961   0.52386   0.56228   0.00000  Uiso   1.00
N597   N     0.97980   0.28839   0.51934   0.00000  Uiso   1.00
N598   N     0.20368   0.35313   0.79628   0.00000  Uiso   1.00
C599   C     0.09015   0.88666   0.80912   0.00000  Uiso   1.00
C600   C     0.07668   0.92442   0.86981   0.00000  Uiso   1.00
C601   C     0.07342   0.95524   0.75860   0.00000  Uiso   1.00
C602   C     0.06056   0.98720   0.84009   0.00000  Uiso   1.00
C603   C     0.04104   0.04567   0.90600   0.00000  Uiso   1.00
C604   C     0.06019   0.85952   0.85797   0.00000  Uiso   1.00
C605   C     0.04307   0.83578   0.73681   0.00000  Uiso   1.00
C606   C     0.01633   0.81311   0.80835   0.00000  Uiso   1.00
C607   C     0.97123   0.77080   0.85589   0.00000  Uiso   1.00
C608   C     0.12189   0.87738   0.93429   0.00000  Uiso   1.00
C609   C     0.15665   0.86862   0.87731   0.00000  Uiso   1.00
C610   C     0.18186   0.86098   0.01310   0.00000  Uiso   1.00
C611   C     0.23256   0.84639   0.17915   0.00000  Uiso   1.00
C612   C     0.07310   0.88862   0.15160   0.00000  Uiso   1.00
C613   C     0.06741   0.92549   0.05583   0.00000  Uiso   1.00
C614   C     0.05456   0.95741   0.13751   0.00000  Uiso   1.00
C615   C     0.05129   0.98827   0.02645   0.00000  Uiso   1.00
C616   C     0.05092   0.86059   0.04398   0.00000  Uiso   1.00
C617   C     0.02421   0.83795   0.11572   0.00000  Uiso   1.00
C618   C     0.00706   0.81418   0.99470   0.00000  Uiso   1.00
C619   C     0.11263   0.87844   0.12031   0.00000  Uiso   1.00
C620   C     0.13779   0.87080   0.25622   0.00000  Uiso   1.00
C621   C     0.17259   0.86204   0.19946   0.00000  Uiso   1.00
H622   H     0.09736   0.88583   0.66430   0.00000  Uiso   1.00
H623   H     0.08059   0.95440   0.61465   0.00000  Uiso   1.00
H624   H     0.05025   0.83495   0.59287   0.00000  Uiso   1.00
H625   H     0.16381   0.86780   0.73335   0.00000  Uiso   1.00
H626   H     0.05790   0.03090   0.64162   0.00000  Uiso   1.00
H627   H     0.99393   0.77903   0.59570   0.00000  Uiso   1.00
H628   H     0.23341   0.84829   0.89192   0.00000  Uiso   1.00
H629   H     0.06589   0.88945   0.29643   0.00000  Uiso   1.00
H630   H     0.04739   0.95823   0.28147   0.00000  Uiso   1.00
H631   H     0.01705   0.83878   0.25968   0.00000  Uiso   1.00
H632   H     0.13061   0.87163   0.40015   0.00000  Uiso   1.00
H633   H     0.03096   0.03400   0.18283   0.00000  Uiso   1.00
H634   H     0.96699   0.78213   0.13691   0.00000  Uiso   1.00
H635   H     0.20646   0.85140   0.43313   0.00000  Uiso   1.00
O636   O     0.03282   0.07762   0.89096   0.00000  Uiso   1.00
O637   O     0.94890   0.74718   0.83072   0.00000  Uiso   1.00
O638   O     0.26308   0.83805   0.21936   0.00000  Uiso   1.00
N639   N     0.05411   0.02219   0.77105   0.00000  Uiso   1.00
N640   N     0.99429   0.78671   0.72812   0.00000  Uiso   1.00
N641   N     0.21818   0.85146   0.00506   0.00000  Uiso   1.00
N642   N     0.03961   0.02386   0.06228   0.00000  Uiso   1.00
N643   N     0.97980   0.78839   0.01934   0.00000  Uiso   1.00
N644   N     0.20368   0.85313   0.29628   0.00000  Uiso   1.00
C645   C     0.59015   0.38666   0.80912   0.00000  Uiso   1.00
C646   C     0.57668   0.42442   0.86981   0.00000  Uiso   1.00
C647   C     0.57342   0.45524   0.75860   0.00000  Uiso   1.00
C648   C     0.56056   0.48720   0.84009   0.00000  Uiso   1.00
C649   C     0.54104   0.54567   0.90600   0.00000  Uiso   1.00
C650   C     0.56019   0.35952   0.85797   0.00000  Uiso   1.00
C651   C     0.54307   0.33578   0.73681   0.00000  Uiso   1.00
C652   C     0.51633   0.31311   0.80835   0.00000  Uiso   1.00
C653   C     0.47123   0.27080   0.85589   0.00000  Uiso   1.00
C654   C     0.62189   0.37738   0.93429   0.00000  Uiso   1.00
C655   C     0.65665   0.36862   0.87731   0.00000  Uiso   1.00
C656   C     0.68186   0.36098   0.01310   0.00000  Uiso   1.00
C657   C     0.73256   0.34639   0.17915   0.00000  Uiso   1.00
C658   C     0.57310   0.38862   0.15160   0.00000  Uiso   1.00
C659   C     0.56741   0.42549   0.05583   0.00000  Uiso   1.00
C660   C     0.55456   0.45741   0.13751   0.00000  Uiso   1.00
C661   C     0.55129   0.48827   0.02645   0.00000  Uiso   1.00
C662   C     0.55092   0.36059   0.04398   0.00000  Uiso   1.00
C663   C     0.52421   0.33795   0.11572   0.00000  Uiso   1.00
C664   C     0.50706   0.31418   0.99470   0.00000  Uiso   1.00
C665   C     0.61263   0.37844   0.12031   0.00000  Uiso   1.00
C666   C     0.63779   0.37080   0.25622   0.00000  Uiso   1.00
C667   C     0.67259   0.36204   0.19946   0.00000  Uiso   1.00
H668   H     0.59736   0.38583   0.66430   0.00000  Uiso   1.00
H669   H     0.58059   0.45440   0.61465   0.00000  Uiso   1.00
H670   H     0.55025   0.33495   0.59287   0.00000  Uiso   1.00
H671   H     0.66381   0.36780   0.73335   0.00000  Uiso   1.00
H672   H     0.55790   0.53090   0.64162   0.00000  Uiso   1.00
H673   H     0.49393   0.27903   0.59570   0.00000  Uiso   1.00
H674   H     0.73341   0.34829   0.89192   0.00000  Uiso   1.00
H675   H     0.56589   0.38945   0.29643   0.00000  Uiso   1.00
H676   H     0.54739   0.45823   0.28147   0.00000  Uiso   1.00
H677   H     0.51705   0.33878   0.25968   0.00000  Uiso   1.00
H678   H     0.63061   0.37163   0.40015   0.00000  Uiso   1.00
H679   H     0.53096   0.53400   0.18283   0.00000  Uiso   1.00
H680   H     0.46699   0.28213   0.13691   0.00000  Uiso   1.00
H681   H     0.70646   0.35140   0.43313   0.00000  Uiso   1.00
O682   O     0.53282   0.57762   0.89096   0.00000  Uiso   1.00
O683   O     0.44890   0.24718   0.83072   0.00000  Uiso   1.00
O684   O     0.76308   0.33805   0.21936   0.00000  Uiso   1.00
N685   N     0.55411   0.52219   0.77105   0.00000  Uiso   1.00
N686   N     0.49429   0.28671   0.72812   0.00000  Uiso   1.00
N687   N     0.71818   0.35146   0.00506   0.00000  Uiso   1.00
N688   N     0.53961   0.52386   0.06228   0.00000  Uiso   1.00
N689   N     0.47980   0.28839   0.01934   0.00000  Uiso   1.00
N690   N     0.70368   0.35313   0.29628   0.00000  Uiso   1.00
C691   C     0.59015   0.88666   0.30912   0.00000  Uiso   1.00
C692   C     0.57668   0.92442   0.36981   0.00000  Uiso   1.00
C693   C     0.57342   0.95524   0.25860   0.00000  Uiso   1.00
C694   C     0.56056   0.98720   0.34009   0.00000  Uiso   1.00
C695   C     0.54104   0.04567   0.40600   0.00000  Uiso   1.00
C696   C     0.56019   0.85952   0.35797   0.00000  Uiso   1.00
C697   C     0.54307   0.83578   0.23681   0.00000  Uiso   1.00
C698   C     0.51633   0.81311   0.30835   0.00000  Uiso   1.00
C699   C     0.47123   0.77080   0.35589   0.00000  Uiso   1.00
C700   C     0.62189   0.87738   0.43429   0.00000  Uiso   1.00
C701   C     0.65665   0.86862   0.37731   0.00000  Uiso   1.00
C702   C     0.68186   0.86098   0.51310   0.00000  Uiso   1.00
C703   C     0.73256   0.84639   0.67915   0.00000  Uiso   1.00
C704   C     0.57310   0.88862   0.65160   0.00000  Uiso   1.00
C705   C     0.56741   0.92549   0.55583   0.00000  Uiso   1.00
C706   C     0.55456   0.95741   0.63751   0.00000  Uiso   1.00
C707   C     0.55129   0.98827   0.52645   0.00000  Uiso   1.00
C708   C     0.55092   0.86059   0.54398   0.00000  Uiso   1.00
C709   C     0.52421   0.83795   0.61572   0.00000  Uiso   1.00
C710   C     0.50706   0.81418   0.49470   0.00000  Uiso   1.00
C711   C     0.61263   0.87844   0.62031   0.00000  Uiso   1.00
C712   C     0.63779   0.87080   0.75622   0.00000  Uiso   1.00
C713   C     0.67259   0.86204   0.69946   0.00000  Uiso   1.00
H714   H     0.59736   0.88583   0.16430   0.00000  Uiso   1.00
H715   H     0.58059   0.95440   0.11465   0.00000  Uiso   1.00
H716   H     0.55025   0.83495   0.09287   0.00000  Uiso   1.00
H717   H     0.66381   0.86780   0.23335   0.00000  Uiso   1.00
H718   H     0.55790   0.03090   0.14162   0.00000  Uiso   1.00
H719   H     0.49393   0.77903   0.09570   0.00000  Uiso   1.00
H720   H     0.73341   0.84829   0.39192   0.00000  Uiso   1.00
H721   H     0.56589   0.88945   0.79643   0.00000  Uiso   1.00
H722   H     0.54739   0.95823   0.78147   0.00000  Uiso   1.00
H723   H     0.51705   0.83878   0.75968   0.00000  Uiso   1.00
H724   H     0.63061   0.87163   0.90015   0.00000  Uiso   1.00
H725   H     0.53096   0.03400   0.68283   0.00000  Uiso   1.00
H726   H     0.46699   0.78213   0.63691   0.00000  Uiso   1.00
H727   H     0.70646   0.85140   0.93313   0.00000  Uiso   1.00
O728   O     0.53282   0.07762   0.39096   0.00000  Uiso   1.00
O729   O     0.44890   0.74718   0.33072   0.00000  Uiso   1.00
O730   O     0.76308   0.83805   0.71936   0.00000  Uiso   1.00
N731   N     0.55411   0.02219   0.27105   0.00000  Uiso   1.00
N732   N     0.49429   0.78671   0.22812   0.00000  Uiso   1.00
N733   N     0.71818   0.85146   0.50506   0.00000  Uiso   1.00
N734   N     0.53961   0.02386   0.56228   0.00000  Uiso   1.00
N735   N     0.47980   0.78839   0.51934   0.00000  Uiso   1.00
N736   N     0.70368   0.85313   0.79628   0.00000  Uiso   1.00
