data_job_02503
_audit_creation_date              2018-12-19
_audit_creation_method            'Materials Studio'
_symmetry_space_group_name_H-M    'P1'
_symmetry_Int_Tables_number       1
_symmetry_cell_setting            triclinic
loop_
_symmetry_equiv_pos_as_xyz
  x,y,z
_cell_length_a                    45.9692
_cell_length_b                    12.4605
_cell_length_c                    20.7837
_cell_angle_alpha                 90.0000
_cell_angle_beta                  90.0000
_cell_angle_gamma                 90.0000
loop_
_atom_site_label
_atom_site_type_symbol
_atom_site_fract_x
_atom_site_fract_y
_atom_site_fract_z
_atom_site_U_iso_or_equiv
_atom_site_adp_type
_atom_site_occupancy
C1     C     0.46215   0.32191   0.52633   0.00000  Uiso   1.00
C2     C     0.43769   0.23944   0.52992   0.00000  Uiso   1.00
C3     C     0.43864   0.14315   0.56341   0.00000  Uiso   1.00
C4     C     0.41402   0.07877   0.56071   0.00000  Uiso   1.00
C5     C     0.37980   0.94599   0.57158   0.00000  Uiso   1.00
C6     C     0.46847   0.33790   0.45495   0.00000  Uiso   1.00
C7     C     0.49530   0.32441   0.42540   0.00000  Uiso   1.00
C8     C     0.49659   0.34292   0.35959   0.00000  Uiso   1.00
C9     C     0.51016   0.36309   0.25406   0.00000  Uiso   1.00
C10    C     0.44916   0.42736   0.55003   0.00000  Uiso   1.00
C11    C     0.45976   0.48911   0.60041   0.00000  Uiso   1.00
C12    C     0.44480   0.58296   0.61464   0.00000  Uiso   1.00
C13    C     0.42840   0.74202   0.65674   0.00000  Uiso   1.00
C14    C     0.41674   0.37880   0.46199   0.00000  Uiso   1.00
C15    C     0.41303   0.27034   0.49497   0.00000  Uiso   1.00
C16    C     0.38840   0.20609   0.49222   0.00000  Uiso   1.00
C17    C     0.38931   0.10972   0.52570   0.00000  Uiso   1.00
C18    C     0.44381   0.36880   0.42000   0.00000  Uiso   1.00
C19    C     0.44506   0.38735   0.35421   0.00000  Uiso   1.00
C20    C     0.47188   0.37388   0.32457   0.00000  Uiso   1.00
C21    C     0.42450   0.45826   0.51508   0.00000  Uiso   1.00
C22    C     0.40953   0.55204   0.52923   0.00000  Uiso   1.00
C23    C     0.42010   0.61391   0.57963   0.00000  Uiso   1.00
H24    H     0.48135   0.29785   0.55354   0.00000  Uiso   1.00
H25    H     0.45773   0.11926   0.59045   0.00000  Uiso   1.00
H26    H     0.51438   0.30050   0.45246   0.00000  Uiso   1.00
H27    H     0.47885   0.46517   0.62745   0.00000  Uiso   1.00
H28    H     0.42067   0.93487   0.61594   0.00000  Uiso   1.00
H29    H     0.54012   0.31706   0.32499   0.00000  Uiso   1.00
H30    H     0.46520   0.66430   0.69398   0.00000  Uiso   1.00
H31    H     0.39754   0.40286   0.43478   0.00000  Uiso   1.00
H32    H     0.36932   0.23003   0.46517   0.00000  Uiso   1.00
H33    H     0.42597   0.41126   0.32718   0.00000  Uiso   1.00
H34    H     0.39044   0.57593   0.50217   0.00000  Uiso   1.00
H35    H     0.34891   0.02477   0.51426   0.00000  Uiso   1.00
H36    H     0.46837   0.40697   0.22331   0.00000  Uiso   1.00
H37    H     0.39345   0.75419   0.59230   0.00000  Uiso   1.00
O38    O     0.36774   0.86422   0.58722   0.00000  Uiso   1.00
O39    O     0.52446   0.36566   0.20551   0.00000  Uiso   1.00
O40    O     0.42617   0.82121   0.68962   0.00000  Uiso   1.00
N41    N     0.40765   0.97976   0.58785   0.00000  Uiso   1.00
N42    N     0.51933   0.33707   0.31582   0.00000  Uiso   1.00
N43    N     0.44929   0.66172   0.66079   0.00000  Uiso   1.00
N44    N     0.36904   0.02813   0.53313   0.00000  Uiso   1.00
N45    N     0.48072   0.38544   0.26111   0.00000  Uiso   1.00
N46    N     0.41068   0.71009   0.60608   0.00000  Uiso   1.00
C47    C     0.46215   0.82191   0.02633   0.00000  Uiso   1.00
C48    C     0.43769   0.73944   0.02992   0.00000  Uiso   1.00
C49    C     0.43864   0.64315   0.06341   0.00000  Uiso   1.00
C50    C     0.41402   0.57877   0.06071   0.00000  Uiso   1.00
C51    C     0.37980   0.44599   0.07158   0.00000  Uiso   1.00
C52    C     0.46847   0.83790   0.95495   0.00000  Uiso   1.00
C53    C     0.49530   0.82441   0.92540   0.00000  Uiso   1.00
C54    C     0.49659   0.84292   0.85959   0.00000  Uiso   1.00
C55    C     0.51016   0.86309   0.75406   0.00000  Uiso   1.00
C56    C     0.44916   0.92736   0.05003   0.00000  Uiso   1.00
C57    C     0.45976   0.98911   0.10041   0.00000  Uiso   1.00
C58    C     0.44480   0.08296   0.11464   0.00000  Uiso   1.00
C59    C     0.42840   0.24202   0.15674   0.00000  Uiso   1.00
C60    C     0.41674   0.87880   0.96199   0.00000  Uiso   1.00
C61    C     0.41303   0.77034   0.99497   0.00000  Uiso   1.00
C62    C     0.38840   0.70609   0.99222   0.00000  Uiso   1.00
C63    C     0.38931   0.60972   0.02570   0.00000  Uiso   1.00
C64    C     0.44381   0.86880   0.92000   0.00000  Uiso   1.00
C65    C     0.44506   0.88735   0.85421   0.00000  Uiso   1.00
C66    C     0.47188   0.87388   0.82457   0.00000  Uiso   1.00
C67    C     0.42450   0.95826   0.01508   0.00000  Uiso   1.00
C68    C     0.40953   0.05204   0.02923   0.00000  Uiso   1.00
C69    C     0.42010   0.11391   0.07963   0.00000  Uiso   1.00
H70    H     0.48135   0.79785   0.05354   0.00000  Uiso   1.00
H71    H     0.45773   0.61926   0.09045   0.00000  Uiso   1.00
H72    H     0.51438   0.80050   0.95246   0.00000  Uiso   1.00
H73    H     0.47885   0.96517   0.12745   0.00000  Uiso   1.00
H74    H     0.42067   0.43487   0.11594   0.00000  Uiso   1.00
H75    H     0.54012   0.81706   0.82499   0.00000  Uiso   1.00
H76    H     0.46520   0.16430   0.19398   0.00000  Uiso   1.00
H77    H     0.39754   0.90286   0.93478   0.00000  Uiso   1.00
H78    H     0.36932   0.73003   0.96517   0.00000  Uiso   1.00
H79    H     0.42597   0.91126   0.82718   0.00000  Uiso   1.00
H80    H     0.39044   0.07593   0.00217   0.00000  Uiso   1.00
H81    H     0.34891   0.52477   0.01426   0.00000  Uiso   1.00
H82    H     0.46837   0.90697   0.72331   0.00000  Uiso   1.00
H83    H     0.39345   0.25419   0.09230   0.00000  Uiso   1.00
O84    O     0.36774   0.36422   0.08722   0.00000  Uiso   1.00
O85    O     0.52446   0.86566   0.70551   0.00000  Uiso   1.00
O86    O     0.42617   0.32121   0.18962   0.00000  Uiso   1.00
N87    N     0.40765   0.47976   0.08785   0.00000  Uiso   1.00
N88    N     0.51933   0.83707   0.81582   0.00000  Uiso   1.00
N89    N     0.44929   0.16172   0.16079   0.00000  Uiso   1.00
N90    N     0.36904   0.52813   0.03313   0.00000  Uiso   1.00
N91    N     0.48072   0.88544   0.76111   0.00000  Uiso   1.00
N92    N     0.41068   0.21009   0.10608   0.00000  Uiso   1.00
C93    C     0.96215   0.32191   0.02633   0.00000  Uiso   1.00
C94    C     0.93769   0.23944   0.02992   0.00000  Uiso   1.00
C95    C     0.93864   0.14315   0.06341   0.00000  Uiso   1.00
C96    C     0.91402   0.07877   0.06071   0.00000  Uiso   1.00
C97    C     0.87980   0.94599   0.07158   0.00000  Uiso   1.00
C98    C     0.96847   0.33790   0.95495   0.00000  Uiso   1.00
C99    C     0.99530   0.32441   0.92540   0.00000  Uiso   1.00
C100   C     0.99659   0.34292   0.85959   0.00000  Uiso   1.00
C101   C     0.01016   0.36309   0.75406   0.00000  Uiso   1.00
C102   C     0.94916   0.42736   0.05003   0.00000  Uiso   1.00
C103   C     0.95976   0.48911   0.10041   0.00000  Uiso   1.00
C104   C     0.94480   0.58296   0.11464   0.00000  Uiso   1.00
C105   C     0.92840   0.74202   0.15674   0.00000  Uiso   1.00
C106   C     0.91674   0.37880   0.96199   0.00000  Uiso   1.00
C107   C     0.91303   0.27034   0.99497   0.00000  Uiso   1.00
C108   C     0.88840   0.20609   0.99222   0.00000  Uiso   1.00
C109   C     0.88931   0.10972   0.02570   0.00000  Uiso   1.00
C110   C     0.94381   0.36880   0.92000   0.00000  Uiso   1.00
C111   C     0.94506   0.38735   0.85421   0.00000  Uiso   1.00
C112   C     0.97188   0.37388   0.82457   0.00000  Uiso   1.00
C113   C     0.92450   0.45826   0.01508   0.00000  Uiso   1.00
C114   C     0.90953   0.55204   0.02923   0.00000  Uiso   1.00
C115   C     0.92010   0.61391   0.07963   0.00000  Uiso   1.00
H116   H     0.98135   0.29785   0.05354   0.00000  Uiso   1.00
H117   H     0.95773   0.11926   0.09045   0.00000  Uiso   1.00
H118   H     0.01438   0.30050   0.95246   0.00000  Uiso   1.00
H119   H     0.97885   0.46517   0.12745   0.00000  Uiso   1.00
H120   H     0.92067   0.93487   0.11594   0.00000  Uiso   1.00
H121   H     0.04012   0.31706   0.82499   0.00000  Uiso   1.00
H122   H     0.96520   0.66430   0.19398   0.00000  Uiso   1.00
H123   H     0.89754   0.40286   0.93478   0.00000  Uiso   1.00
H124   H     0.86932   0.23003   0.96517   0.00000  Uiso   1.00
H125   H     0.92597   0.41126   0.82718   0.00000  Uiso   1.00
H126   H     0.89044   0.57593   0.00217   0.00000  Uiso   1.00
H127   H     0.84891   0.02477   0.01426   0.00000  Uiso   1.00
H128   H     0.96837   0.40697   0.72331   0.00000  Uiso   1.00
H129   H     0.89345   0.75419   0.09230   0.00000  Uiso   1.00
O130   O     0.86774   0.86422   0.08722   0.00000  Uiso   1.00
O131   O     0.02446   0.36566   0.70551   0.00000  Uiso   1.00
O132   O     0.92617   0.82121   0.18962   0.00000  Uiso   1.00
N133   N     0.90765   0.97976   0.08785   0.00000  Uiso   1.00
N134   N     0.01933   0.33707   0.81582   0.00000  Uiso   1.00
N135   N     0.94929   0.66172   0.16079   0.00000  Uiso   1.00
N136   N     0.86904   0.02813   0.03313   0.00000  Uiso   1.00
N137   N     0.98072   0.38544   0.76111   0.00000  Uiso   1.00
N138   N     0.91068   0.71009   0.10608   0.00000  Uiso   1.00
C139   C     0.96215   0.82191   0.52633   0.00000  Uiso   1.00
C140   C     0.93769   0.73944   0.52992   0.00000  Uiso   1.00
C141   C     0.93864   0.64315   0.56341   0.00000  Uiso   1.00
C142   C     0.91402   0.57877   0.56071   0.00000  Uiso   1.00
C143   C     0.87980   0.44599   0.57158   0.00000  Uiso   1.00
C144   C     0.96847   0.83790   0.45495   0.00000  Uiso   1.00
C145   C     0.99530   0.82441   0.42540   0.00000  Uiso   1.00
C146   C     0.99659   0.84292   0.35959   0.00000  Uiso   1.00
C147   C     0.01016   0.86309   0.25406   0.00000  Uiso   1.00
C148   C     0.94916   0.92736   0.55003   0.00000  Uiso   1.00
C149   C     0.95976   0.98911   0.60041   0.00000  Uiso   1.00
C150   C     0.94480   0.08296   0.61464   0.00000  Uiso   1.00
C151   C     0.92840   0.24202   0.65674   0.00000  Uiso   1.00
C152   C     0.91674   0.87880   0.46199   0.00000  Uiso   1.00
C153   C     0.91303   0.77034   0.49497   0.00000  Uiso   1.00
C154   C     0.88840   0.70609   0.49222   0.00000  Uiso   1.00
C155   C     0.88931   0.60972   0.52570   0.00000  Uiso   1.00
C156   C     0.94381   0.86880   0.42000   0.00000  Uiso   1.00
C157   C     0.94506   0.88735   0.35421   0.00000  Uiso   1.00
C158   C     0.97188   0.87388   0.32457   0.00000  Uiso   1.00
C159   C     0.92450   0.95826   0.51508   0.00000  Uiso   1.00
C160   C     0.90953   0.05204   0.52923   0.00000  Uiso   1.00
C161   C     0.92010   0.11391   0.57963   0.00000  Uiso   1.00
H162   H     0.98135   0.79785   0.55354   0.00000  Uiso   1.00
H163   H     0.95773   0.61926   0.59045   0.00000  Uiso   1.00
H164   H     0.01438   0.80050   0.45246   0.00000  Uiso   1.00
H165   H     0.97885   0.96517   0.62745   0.00000  Uiso   1.00
H166   H     0.92067   0.43487   0.61594   0.00000  Uiso   1.00
H167   H     0.04012   0.81706   0.32499   0.00000  Uiso   1.00
H168   H     0.96520   0.16430   0.69398   0.00000  Uiso   1.00
H169   H     0.89754   0.90286   0.43478   0.00000  Uiso   1.00
H170   H     0.86932   0.73003   0.46517   0.00000  Uiso   1.00
H171   H     0.92597   0.91126   0.32718   0.00000  Uiso   1.00
H172   H     0.89044   0.07593   0.50217   0.00000  Uiso   1.00
H173   H     0.84891   0.52477   0.51426   0.00000  Uiso   1.00
H174   H     0.96837   0.90697   0.22331   0.00000  Uiso   1.00
H175   H     0.89345   0.25419   0.59230   0.00000  Uiso   1.00
O176   O     0.86774   0.36422   0.58722   0.00000  Uiso   1.00
O177   O     0.02446   0.86566   0.20551   0.00000  Uiso   1.00
O178   O     0.92617   0.32121   0.68962   0.00000  Uiso   1.00
N179   N     0.90765   0.47976   0.58785   0.00000  Uiso   1.00
N180   N     0.01933   0.83707   0.31582   0.00000  Uiso   1.00
N181   N     0.94929   0.16172   0.66079   0.00000  Uiso   1.00
N182   N     0.86904   0.52813   0.53313   0.00000  Uiso   1.00
N183   N     0.98072   0.88544   0.26111   0.00000  Uiso   1.00
N184   N     0.91068   0.21009   0.60608   0.00000  Uiso   1.00
C185   C     0.53785   0.67809   0.52633   0.00000  Uiso   1.00
C186   C     0.56231   0.76056   0.52992   0.00000  Uiso   1.00
C187   C     0.56136   0.85685   0.56341   0.00000  Uiso   1.00
C188   C     0.58598   0.92123   0.56071   0.00000  Uiso   1.00
C189   C     0.62020   0.05401   0.57158   0.00000  Uiso   1.00
C190   C     0.53153   0.66210   0.45495   0.00000  Uiso   1.00
C191   C     0.50470   0.67559   0.42540   0.00000  Uiso   1.00
C192   C     0.50341   0.65708   0.35959   0.00000  Uiso   1.00
C193   C     0.48984   0.63691   0.25406   0.00000  Uiso   1.00
C194   C     0.55084   0.57264   0.55003   0.00000  Uiso   1.00
C195   C     0.54024   0.51089   0.60041   0.00000  Uiso   1.00
C196   C     0.55520   0.41704   0.61464   0.00000  Uiso   1.00
C197   C     0.57160   0.25798   0.65674   0.00000  Uiso   1.00
C198   C     0.58326   0.62120   0.46199   0.00000  Uiso   1.00
C199   C     0.58697   0.72966   0.49497   0.00000  Uiso   1.00
C200   C     0.61160   0.79391   0.49222   0.00000  Uiso   1.00
C201   C     0.61069   0.89028   0.52570   0.00000  Uiso   1.00
C202   C     0.55619   0.63120   0.42000   0.00000  Uiso   1.00
C203   C     0.55494   0.61265   0.35421   0.00000  Uiso   1.00
C204   C     0.52812   0.62612   0.32457   0.00000  Uiso   1.00
C205   C     0.57550   0.54174   0.51508   0.00000  Uiso   1.00
C206   C     0.59047   0.44796   0.52923   0.00000  Uiso   1.00
C207   C     0.57990   0.38609   0.57963   0.00000  Uiso   1.00
H208   H     0.51865   0.70215   0.55354   0.00000  Uiso   1.00
H209   H     0.54227   0.88074   0.59045   0.00000  Uiso   1.00
H210   H     0.48562   0.69950   0.45246   0.00000  Uiso   1.00
H211   H     0.52115   0.53483   0.62745   0.00000  Uiso   1.00
H212   H     0.57933   0.06513   0.61594   0.00000  Uiso   1.00
H213   H     0.45988   0.68294   0.32499   0.00000  Uiso   1.00
H214   H     0.53480   0.33570   0.69398   0.00000  Uiso   1.00
H215   H     0.60246   0.59714   0.43478   0.00000  Uiso   1.00
H216   H     0.63068   0.76997   0.46517   0.00000  Uiso   1.00
H217   H     0.57403   0.58874   0.32718   0.00000  Uiso   1.00
H218   H     0.60956   0.42407   0.50217   0.00000  Uiso   1.00
H219   H     0.65109   0.97523   0.51426   0.00000  Uiso   1.00
H220   H     0.53163   0.59303   0.22331   0.00000  Uiso   1.00
H221   H     0.60655   0.24581   0.59230   0.00000  Uiso   1.00
O222   O     0.63226   0.13578   0.58722   0.00000  Uiso   1.00
O223   O     0.47554   0.63434   0.20551   0.00000  Uiso   1.00
O224   O     0.57383   0.17879   0.68962   0.00000  Uiso   1.00
N225   N     0.59235   0.02024   0.58785   0.00000  Uiso   1.00
N226   N     0.48067   0.66293   0.31582   0.00000  Uiso   1.00
N227   N     0.55071   0.33828   0.66079   0.00000  Uiso   1.00
N228   N     0.63096   0.97187   0.53313   0.00000  Uiso   1.00
N229   N     0.51928   0.61456   0.26111   0.00000  Uiso   1.00
N230   N     0.58932   0.28991   0.60608   0.00000  Uiso   1.00
C231   C     0.53785   0.17809   0.02633   0.00000  Uiso   1.00
C232   C     0.56231   0.26056   0.02992   0.00000  Uiso   1.00
C233   C     0.56136   0.35685   0.06341   0.00000  Uiso   1.00
C234   C     0.58598   0.42123   0.06071   0.00000  Uiso   1.00
C235   C     0.62020   0.55401   0.07158   0.00000  Uiso   1.00
C236   C     0.53153   0.16210   0.95495   0.00000  Uiso   1.00
C237   C     0.50470   0.17559   0.92540   0.00000  Uiso   1.00
C238   C     0.50341   0.15708   0.85959   0.00000  Uiso   1.00
C239   C     0.48984   0.13691   0.75406   0.00000  Uiso   1.00
C240   C     0.55084   0.07264   0.05003   0.00000  Uiso   1.00
C241   C     0.54024   0.01089   0.10041   0.00000  Uiso   1.00
C242   C     0.55520   0.91704   0.11464   0.00000  Uiso   1.00
C243   C     0.57160   0.75798   0.15674   0.00000  Uiso   1.00
C244   C     0.58326   0.12120   0.96199   0.00000  Uiso   1.00
C245   C     0.58697   0.22966   0.99497   0.00000  Uiso   1.00
C246   C     0.61160   0.29391   0.99222   0.00000  Uiso   1.00
C247   C     0.61069   0.39028   0.02570   0.00000  Uiso   1.00
C248   C     0.55619   0.13120   0.92000   0.00000  Uiso   1.00
C249   C     0.55494   0.11265   0.85421   0.00000  Uiso   1.00
C250   C     0.52812   0.12612   0.82457   0.00000  Uiso   1.00
C251   C     0.57550   0.04174   0.01508   0.00000  Uiso   1.00
C252   C     0.59047   0.94796   0.02923   0.00000  Uiso   1.00
C253   C     0.57990   0.88609   0.07963   0.00000  Uiso   1.00
H254   H     0.51865   0.20215   0.05354   0.00000  Uiso   1.00
H255   H     0.54227   0.38074   0.09045   0.00000  Uiso   1.00
H256   H     0.48562   0.19950   0.95246   0.00000  Uiso   1.00
H257   H     0.52115   0.03483   0.12745   0.00000  Uiso   1.00
H258   H     0.57933   0.56513   0.11594   0.00000  Uiso   1.00
H259   H     0.45988   0.18294   0.82499   0.00000  Uiso   1.00
H260   H     0.53480   0.83570   0.19398   0.00000  Uiso   1.00
H261   H     0.60246   0.09714   0.93478   0.00000  Uiso   1.00
H262   H     0.63068   0.26997   0.96517   0.00000  Uiso   1.00
H263   H     0.57403   0.08874   0.82718   0.00000  Uiso   1.00
H264   H     0.60956   0.92407   0.00217   0.00000  Uiso   1.00
H265   H     0.65109   0.47523   0.01426   0.00000  Uiso   1.00
H266   H     0.53163   0.09303   0.72331   0.00000  Uiso   1.00
H267   H     0.60655   0.74581   0.09230   0.00000  Uiso   1.00
O268   O     0.63226   0.63578   0.08722   0.00000  Uiso   1.00
O269   O     0.47554   0.13434   0.70551   0.00000  Uiso   1.00
O270   O     0.57383   0.67879   0.18962   0.00000  Uiso   1.00
N271   N     0.59235   0.52024   0.08785   0.00000  Uiso   1.00
N272   N     0.48067   0.16293   0.81582   0.00000  Uiso   1.00
N273   N     0.55071   0.83828   0.16079   0.00000  Uiso   1.00
N274   N     0.63096   0.47187   0.03313   0.00000  Uiso   1.00
N275   N     0.51928   0.11456   0.76111   0.00000  Uiso   1.00
N276   N     0.58932   0.78991   0.10608   0.00000  Uiso   1.00
C277   C     0.03785   0.67809   0.02633   0.00000  Uiso   1.00
C278   C     0.06231   0.76056   0.02992   0.00000  Uiso   1.00
C279   C     0.06136   0.85685   0.06341   0.00000  Uiso   1.00
C280   C     0.08598   0.92123   0.06071   0.00000  Uiso   1.00
C281   C     0.12020   0.05401   0.07158   0.00000  Uiso   1.00
C282   C     0.03153   0.66210   0.95495   0.00000  Uiso   1.00
C283   C     0.00470   0.67559   0.92540   0.00000  Uiso   1.00
C284   C     0.00341   0.65708   0.85959   0.00000  Uiso   1.00
C285   C     0.98984   0.63691   0.75406   0.00000  Uiso   1.00
C286   C     0.05084   0.57264   0.05003   0.00000  Uiso   1.00
C287   C     0.04024   0.51089   0.10041   0.00000  Uiso   1.00
C288   C     0.05520   0.41704   0.11464   0.00000  Uiso   1.00
C289   C     0.07160   0.25798   0.15674   0.00000  Uiso   1.00
C290   C     0.08326   0.62120   0.96199   0.00000  Uiso   1.00
C291   C     0.08697   0.72966   0.99497   0.00000  Uiso   1.00
C292   C     0.11160   0.79391   0.99222   0.00000  Uiso   1.00
C293   C     0.11069   0.89028   0.02570   0.00000  Uiso   1.00
C294   C     0.05619   0.63120   0.92000   0.00000  Uiso   1.00
C295   C     0.05494   0.61265   0.85421   0.00000  Uiso   1.00
C296   C     0.02812   0.62612   0.82457   0.00000  Uiso   1.00
C297   C     0.07550   0.54174   0.01508   0.00000  Uiso   1.00
C298   C     0.09047   0.44796   0.02923   0.00000  Uiso   1.00
C299   C     0.07990   0.38609   0.07963   0.00000  Uiso   1.00
H300   H     0.01865   0.70215   0.05354   0.00000  Uiso   1.00
H301   H     0.04227   0.88074   0.09045   0.00000  Uiso   1.00
H302   H     0.98562   0.69950   0.95246   0.00000  Uiso   1.00
H303   H     0.02115   0.53483   0.12745   0.00000  Uiso   1.00
H304   H     0.07933   0.06513   0.11594   0.00000  Uiso   1.00
H305   H     0.95988   0.68294   0.82499   0.00000  Uiso   1.00
H306   H     0.03480   0.33570   0.19398   0.00000  Uiso   1.00
H307   H     0.10246   0.59714   0.93478   0.00000  Uiso   1.00
H308   H     0.13068   0.76997   0.96517   0.00000  Uiso   1.00
H309   H     0.07403   0.58874   0.82718   0.00000  Uiso   1.00
H310   H     0.10956   0.42407   0.00217   0.00000  Uiso   1.00
H311   H     0.15109   0.97523   0.01426   0.00000  Uiso   1.00
H312   H     0.03163   0.59303   0.72331   0.00000  Uiso   1.00
H313   H     0.10655   0.24581   0.09230   0.00000  Uiso   1.00
O314   O     0.13226   0.13578   0.08722   0.00000  Uiso   1.00
O315   O     0.97554   0.63434   0.70551   0.00000  Uiso   1.00
O316   O     0.07383   0.17879   0.18962   0.00000  Uiso   1.00
N317   N     0.09235   0.02024   0.08785   0.00000  Uiso   1.00
N318   N     0.98067   0.66293   0.81582   0.00000  Uiso   1.00
N319   N     0.05071   0.33828   0.16079   0.00000  Uiso   1.00
N320   N     0.13096   0.97187   0.03313   0.00000  Uiso   1.00
N321   N     0.01928   0.61456   0.76111   0.00000  Uiso   1.00
N322   N     0.08932   0.28991   0.10608   0.00000  Uiso   1.00
C323   C     0.03785   0.17809   0.52633   0.00000  Uiso   1.00
C324   C     0.06231   0.26056   0.52992   0.00000  Uiso   1.00
C325   C     0.06136   0.35685   0.56341   0.00000  Uiso   1.00
C326   C     0.08598   0.42123   0.56071   0.00000  Uiso   1.00
C327   C     0.12020   0.55401   0.57158   0.00000  Uiso   1.00
C328   C     0.03153   0.16210   0.45495   0.00000  Uiso   1.00
C329   C     0.00470   0.17559   0.42540   0.00000  Uiso   1.00
C330   C     0.00341   0.15708   0.35959   0.00000  Uiso   1.00
C331   C     0.98984   0.13691   0.25406   0.00000  Uiso   1.00
C332   C     0.05084   0.07264   0.55003   0.00000  Uiso   1.00
C333   C     0.04024   0.01089   0.60041   0.00000  Uiso   1.00
C334   C     0.05520   0.91704   0.61464   0.00000  Uiso   1.00
C335   C     0.07160   0.75798   0.65674   0.00000  Uiso   1.00
C336   C     0.08326   0.12120   0.46199   0.00000  Uiso   1.00
C337   C     0.08697   0.22966   0.49497   0.00000  Uiso   1.00
C338   C     0.11160   0.29391   0.49222   0.00000  Uiso   1.00
C339   C     0.11069   0.39028   0.52570   0.00000  Uiso   1.00
C340   C     0.05619   0.13120   0.42000   0.00000  Uiso   1.00
C341   C     0.05494   0.11265   0.35421   0.00000  Uiso   1.00
C342   C     0.02812   0.12612   0.32457   0.00000  Uiso   1.00
C343   C     0.07550   0.04174   0.51508   0.00000  Uiso   1.00
C344   C     0.09047   0.94796   0.52923   0.00000  Uiso   1.00
C345   C     0.07990   0.88609   0.57963   0.00000  Uiso   1.00
H346   H     0.01865   0.20215   0.55354   0.00000  Uiso   1.00
H347   H     0.04227   0.38074   0.59045   0.00000  Uiso   1.00
H348   H     0.98562   0.19950   0.45246   0.00000  Uiso   1.00
H349   H     0.02115   0.03483   0.62745   0.00000  Uiso   1.00
H350   H     0.07933   0.56513   0.61594   0.00000  Uiso   1.00
H351   H     0.95988   0.18294   0.32499   0.00000  Uiso   1.00
H352   H     0.03480   0.83570   0.69398   0.00000  Uiso   1.00
H353   H     0.10246   0.09714   0.43478   0.00000  Uiso   1.00
H354   H     0.13068   0.26997   0.46517   0.00000  Uiso   1.00
H355   H     0.07403   0.08874   0.32718   0.00000  Uiso   1.00
H356   H     0.10956   0.92407   0.50217   0.00000  Uiso   1.00
H357   H     0.15109   0.47523   0.51426   0.00000  Uiso   1.00
H358   H     0.03163   0.09303   0.22331   0.00000  Uiso   1.00
H359   H     0.10655   0.74581   0.59230   0.00000  Uiso   1.00
O360   O     0.13226   0.63578   0.58722   0.00000  Uiso   1.00
O361   O     0.97554   0.13434   0.20551   0.00000  Uiso   1.00
O362   O     0.07383   0.67879   0.68962   0.00000  Uiso   1.00
N363   N     0.09235   0.52024   0.58785   0.00000  Uiso   1.00
N364   N     0.98067   0.16293   0.31582   0.00000  Uiso   1.00
N365   N     0.05071   0.83828   0.66079   0.00000  Uiso   1.00
N366   N     0.13096   0.47187   0.53313   0.00000  Uiso   1.00
N367   N     0.01928   0.11456   0.26111   0.00000  Uiso   1.00
N368   N     0.08932   0.78991   0.60608   0.00000  Uiso   1.00
C369   C     0.71215   0.92809   0.77633   0.00000  Uiso   1.00
C370   C     0.68769   0.01056   0.77992   0.00000  Uiso   1.00
C371   C     0.68864   0.10685   0.81341   0.00000  Uiso   1.00
C372   C     0.66402   0.17123   0.81071   0.00000  Uiso   1.00
C373   C     0.62980   0.30401   0.82158   0.00000  Uiso   1.00
C374   C     0.71847   0.91210   0.70495   0.00000  Uiso   1.00
C375   C     0.74530   0.92559   0.67540   0.00000  Uiso   1.00
C376   C     0.74659   0.90708   0.60959   0.00000  Uiso   1.00
C377   C     0.76016   0.88691   0.50406   0.00000  Uiso   1.00
C378   C     0.69916   0.82264   0.80003   0.00000  Uiso   1.00
C379   C     0.70976   0.76089   0.85041   0.00000  Uiso   1.00
C380   C     0.69480   0.66704   0.86464   0.00000  Uiso   1.00
C381   C     0.67840   0.50798   0.90674   0.00000  Uiso   1.00
C382   C     0.66674   0.87120   0.71199   0.00000  Uiso   1.00
C383   C     0.66303   0.97966   0.74497   0.00000  Uiso   1.00
C384   C     0.63840   0.04391   0.74222   0.00000  Uiso   1.00
C385   C     0.63931   0.14028   0.77570   0.00000  Uiso   1.00
C386   C     0.69381   0.88120   0.67000   0.00000  Uiso   1.00
C387   C     0.69506   0.86265   0.60421   0.00000  Uiso   1.00
C388   C     0.72188   0.87612   0.57457   0.00000  Uiso   1.00
C389   C     0.67450   0.79174   0.76508   0.00000  Uiso   1.00
C390   C     0.65953   0.69796   0.77923   0.00000  Uiso   1.00
C391   C     0.67010   0.63609   0.82963   0.00000  Uiso   1.00
H392   H     0.73135   0.95215   0.80354   0.00000  Uiso   1.00
H393   H     0.70773   0.13074   0.84045   0.00000  Uiso   1.00
H394   H     0.76438   0.94950   0.70246   0.00000  Uiso   1.00
H395   H     0.72885   0.78483   0.87745   0.00000  Uiso   1.00
H396   H     0.67067   0.31513   0.86594   0.00000  Uiso   1.00
H397   H     0.79012   0.93294   0.57499   0.00000  Uiso   1.00
H398   H     0.71520   0.58570   0.94398   0.00000  Uiso   1.00
H399   H     0.64754   0.84714   0.68478   0.00000  Uiso   1.00
H400   H     0.61932   0.01997   0.71517   0.00000  Uiso   1.00
H401   H     0.67597   0.83874   0.57718   0.00000  Uiso   1.00
H402   H     0.64044   0.67407   0.75217   0.00000  Uiso   1.00
H403   H     0.59891   0.22523   0.76426   0.00000  Uiso   1.00
H404   H     0.71837   0.84303   0.47331   0.00000  Uiso   1.00
H405   H     0.64345   0.49581   0.84230   0.00000  Uiso   1.00
O406   O     0.61774   0.38578   0.83722   0.00000  Uiso   1.00
O407   O     0.77446   0.88434   0.45551   0.00000  Uiso   1.00
O408   O     0.67617   0.42879   0.93962   0.00000  Uiso   1.00
N409   N     0.65765   0.27024   0.83785   0.00000  Uiso   1.00
N410   N     0.76933   0.91293   0.56582   0.00000  Uiso   1.00
N411   N     0.69929   0.58828   0.91079   0.00000  Uiso   1.00
N412   N     0.61904   0.22187   0.78313   0.00000  Uiso   1.00
N413   N     0.73072   0.86456   0.51111   0.00000  Uiso   1.00
N414   N     0.66068   0.53991   0.85608   0.00000  Uiso   1.00
C415   C     0.71215   0.42809   0.27633   0.00000  Uiso   1.00
C416   C     0.68769   0.51056   0.27992   0.00000  Uiso   1.00
C417   C     0.68864   0.60685   0.31341   0.00000  Uiso   1.00
C418   C     0.66402   0.67123   0.31071   0.00000  Uiso   1.00
C419   C     0.62980   0.80401   0.32158   0.00000  Uiso   1.00
C420   C     0.71847   0.41210   0.20495   0.00000  Uiso   1.00
C421   C     0.74530   0.42559   0.17540   0.00000  Uiso   1.00
C422   C     0.74659   0.40708   0.10959   0.00000  Uiso   1.00
C423   C     0.76016   0.38691   0.00406   0.00000  Uiso   1.00
C424   C     0.69916   0.32264   0.30003   0.00000  Uiso   1.00
C425   C     0.70976   0.26089   0.35041   0.00000  Uiso   1.00
C426   C     0.69480   0.16704   0.36464   0.00000  Uiso   1.00
C427   C     0.67840   0.00798   0.40674   0.00000  Uiso   1.00
C428   C     0.66674   0.37120   0.21199   0.00000  Uiso   1.00
C429   C     0.66303   0.47966   0.24497   0.00000  Uiso   1.00
C430   C     0.63840   0.54391   0.24222   0.00000  Uiso   1.00
C431   C     0.63931   0.64028   0.27570   0.00000  Uiso   1.00
C432   C     0.69381   0.38120   0.17000   0.00000  Uiso   1.00
C433   C     0.69506   0.36265   0.10421   0.00000  Uiso   1.00
C434   C     0.72188   0.37612   0.07457   0.00000  Uiso   1.00
C435   C     0.67450   0.29174   0.26508   0.00000  Uiso   1.00
C436   C     0.65953   0.19796   0.27923   0.00000  Uiso   1.00
C437   C     0.67010   0.13609   0.32963   0.00000  Uiso   1.00
H438   H     0.73135   0.45215   0.30354   0.00000  Uiso   1.00
H439   H     0.70773   0.63074   0.34045   0.00000  Uiso   1.00
H440   H     0.76438   0.44950   0.20246   0.00000  Uiso   1.00
H441   H     0.72885   0.28483   0.37745   0.00000  Uiso   1.00
H442   H     0.67067   0.81513   0.36594   0.00000  Uiso   1.00
H443   H     0.79012   0.43294   0.07499   0.00000  Uiso   1.00
H444   H     0.71520   0.08570   0.44398   0.00000  Uiso   1.00
H445   H     0.64754   0.34714   0.18478   0.00000  Uiso   1.00
H446   H     0.61932   0.51997   0.21517   0.00000  Uiso   1.00
H447   H     0.67597   0.33874   0.07718   0.00000  Uiso   1.00
H448   H     0.64044   0.17407   0.25217   0.00000  Uiso   1.00
H449   H     0.59891   0.72523   0.26426   0.00000  Uiso   1.00
H450   H     0.71837   0.34303   0.97331   0.00000  Uiso   1.00
H451   H     0.64345   0.99581   0.34230   0.00000  Uiso   1.00
O452   O     0.61774   0.88578   0.33722   0.00000  Uiso   1.00
O453   O     0.77446   0.38434   0.95551   0.00000  Uiso   1.00
O454   O     0.67617   0.92879   0.43962   0.00000  Uiso   1.00
N455   N     0.65765   0.77024   0.33785   0.00000  Uiso   1.00
N456   N     0.76933   0.41293   0.06582   0.00000  Uiso   1.00
N457   N     0.69929   0.08828   0.41079   0.00000  Uiso   1.00
N458   N     0.61904   0.72187   0.28313   0.00000  Uiso   1.00
N459   N     0.73072   0.36456   0.01111   0.00000  Uiso   1.00
N460   N     0.66068   0.03991   0.35608   0.00000  Uiso   1.00
C461   C     0.21215   0.92809   0.27633   0.00000  Uiso   1.00
C462   C     0.18769   0.01056   0.27992   0.00000  Uiso   1.00
C463   C     0.18864   0.10685   0.31341   0.00000  Uiso   1.00
C464   C     0.16402   0.17123   0.31071   0.00000  Uiso   1.00
C465   C     0.12980   0.30401   0.32158   0.00000  Uiso   1.00
C466   C     0.21847   0.91210   0.20495   0.00000  Uiso   1.00
C467   C     0.24530   0.92559   0.17540   0.00000  Uiso   1.00
C468   C     0.24659   0.90708   0.10959   0.00000  Uiso   1.00
C469   C     0.26016   0.88691   0.00406   0.00000  Uiso   1.00
C470   C     0.19916   0.82264   0.30003   0.00000  Uiso   1.00
C471   C     0.20976   0.76089   0.35041   0.00000  Uiso   1.00
C472   C     0.19480   0.66704   0.36464   0.00000  Uiso   1.00
C473   C     0.17840   0.50798   0.40674   0.00000  Uiso   1.00
C474   C     0.16674   0.87120   0.21199   0.00000  Uiso   1.00
C475   C     0.16303   0.97966   0.24497   0.00000  Uiso   1.00
C476   C     0.13840   0.04391   0.24222   0.00000  Uiso   1.00
C477   C     0.13931   0.14028   0.27570   0.00000  Uiso   1.00
C478   C     0.19381   0.88120   0.17000   0.00000  Uiso   1.00
C479   C     0.19506   0.86265   0.10421   0.00000  Uiso   1.00
C480   C     0.22188   0.87612   0.07457   0.00000  Uiso   1.00
C481   C     0.17450   0.79174   0.26508   0.00000  Uiso   1.00
C482   C     0.15953   0.69796   0.27923   0.00000  Uiso   1.00
C483   C     0.17010   0.63609   0.32963   0.00000  Uiso   1.00
H484   H     0.23135   0.95215   0.30354   0.00000  Uiso   1.00
H485   H     0.20773   0.13074   0.34045   0.00000  Uiso   1.00
H486   H     0.26438   0.94950   0.20246   0.00000  Uiso   1.00
H487   H     0.22885   0.78483   0.37745   0.00000  Uiso   1.00
H488   H     0.17067   0.31513   0.36594   0.00000  Uiso   1.00
H489   H     0.29012   0.93294   0.07499   0.00000  Uiso   1.00
H490   H     0.21520   0.58570   0.44398   0.00000  Uiso   1.00
H491   H     0.14754   0.84714   0.18478   0.00000  Uiso   1.00
H492   H     0.11932   0.01997   0.21517   0.00000  Uiso   1.00
H493   H     0.17597   0.83874   0.07718   0.00000  Uiso   1.00
H494   H     0.14044   0.67407   0.25217   0.00000  Uiso   1.00
H495   H     0.09891   0.22523   0.26426   0.00000  Uiso   1.00
H496   H     0.21837   0.84303   0.97331   0.00000  Uiso   1.00
H497   H     0.14345   0.49581   0.34230   0.00000  Uiso   1.00
O498   O     0.11774   0.38578   0.33722   0.00000  Uiso   1.00
O499   O     0.27446   0.88434   0.95551   0.00000  Uiso   1.00
O500   O     0.17617   0.42879   0.43962   0.00000  Uiso   1.00
N501   N     0.15765   0.27024   0.33785   0.00000  Uiso   1.00
N502   N     0.26933   0.91293   0.06582   0.00000  Uiso   1.00
N503   N     0.19929   0.58828   0.41079   0.00000  Uiso   1.00
N504   N     0.11904   0.22187   0.28313   0.00000  Uiso   1.00
N505   N     0.23072   0.86456   0.01111   0.00000  Uiso   1.00
N506   N     0.16068   0.53991   0.35608   0.00000  Uiso   1.00
C507   C     0.21215   0.42809   0.77633   0.00000  Uiso   1.00
C508   C     0.18769   0.51056   0.77992   0.00000  Uiso   1.00
C509   C     0.18864   0.60685   0.81341   0.00000  Uiso   1.00
C510   C     0.16402   0.67123   0.81071   0.00000  Uiso   1.00
C511   C     0.12980   0.80401   0.82158   0.00000  Uiso   1.00
C512   C     0.21847   0.41210   0.70495   0.00000  Uiso   1.00
C513   C     0.24530   0.42559   0.67540   0.00000  Uiso   1.00
C514   C     0.24659   0.40708   0.60959   0.00000  Uiso   1.00
C515   C     0.26016   0.38691   0.50406   0.00000  Uiso   1.00
C516   C     0.19916   0.32264   0.80003   0.00000  Uiso   1.00
C517   C     0.20976   0.26089   0.85041   0.00000  Uiso   1.00
C518   C     0.19480   0.16704   0.86464   0.00000  Uiso   1.00
C519   C     0.17840   0.00798   0.90674   0.00000  Uiso   1.00
C520   C     0.16674   0.37120   0.71199   0.00000  Uiso   1.00
C521   C     0.16303   0.47966   0.74497   0.00000  Uiso   1.00
C522   C     0.13840   0.54391   0.74222   0.00000  Uiso   1.00
C523   C     0.13931   0.64028   0.77570   0.00000  Uiso   1.00
C524   C     0.19381   0.38120   0.67000   0.00000  Uiso   1.00
C525   C     0.19506   0.36265   0.60421   0.00000  Uiso   1.00
C526   C     0.22188   0.37612   0.57457   0.00000  Uiso   1.00
C527   C     0.17450   0.29174   0.76508   0.00000  Uiso   1.00
C528   C     0.15953   0.19796   0.77923   0.00000  Uiso   1.00
C529   C     0.17010   0.13609   0.82963   0.00000  Uiso   1.00
H530   H     0.23135   0.45215   0.80354   0.00000  Uiso   1.00
H531   H     0.20773   0.63074   0.84045   0.00000  Uiso   1.00
H532   H     0.26438   0.44950   0.70246   0.00000  Uiso   1.00
H533   H     0.22885   0.28483   0.87745   0.00000  Uiso   1.00
H534   H     0.17067   0.81513   0.86594   0.00000  Uiso   1.00
H535   H     0.29012   0.43294   0.57499   0.00000  Uiso   1.00
H536   H     0.21520   0.08570   0.94398   0.00000  Uiso   1.00
H537   H     0.14754   0.34714   0.68478   0.00000  Uiso   1.00
H538   H     0.11932   0.51997   0.71517   0.00000  Uiso   1.00
H539   H     0.17597   0.33874   0.57718   0.00000  Uiso   1.00
H540   H     0.14044   0.17407   0.75217   0.00000  Uiso   1.00
H541   H     0.09891   0.72523   0.76426   0.00000  Uiso   1.00
H542   H     0.21837   0.34303   0.47331   0.00000  Uiso   1.00
H543   H     0.14345   0.99581   0.84230   0.00000  Uiso   1.00
O544   O     0.11774   0.88578   0.83722   0.00000  Uiso   1.00
O545   O     0.27446   0.38434   0.45551   0.00000  Uiso   1.00
O546   O     0.17617   0.92879   0.93962   0.00000  Uiso   1.00
N547   N     0.15765   0.77024   0.83785   0.00000  Uiso   1.00
N548   N     0.26933   0.41293   0.56582   0.00000  Uiso   1.00
N549   N     0.19929   0.08828   0.91079   0.00000  Uiso   1.00
N550   N     0.11904   0.72187   0.78313   0.00000  Uiso   1.00
N551   N     0.23072   0.36456   0.51111   0.00000  Uiso   1.00
N552   N     0.16068   0.03991   0.85608   0.00000  Uiso   1.00
C553   C     0.78785   0.57191   0.77633   0.00000  Uiso   1.00
C554   C     0.81231   0.48944   0.77992   0.00000  Uiso   1.00
C555   C     0.81136   0.39315   0.81341   0.00000  Uiso   1.00
C556   C     0.83598   0.32877   0.81071   0.00000  Uiso   1.00
C557   C     0.87020   0.19599   0.82158   0.00000  Uiso   1.00
C558   C     0.78153   0.58790   0.70495   0.00000  Uiso   1.00
C559   C     0.75470   0.57441   0.67540   0.00000  Uiso   1.00
C560   C     0.75341   0.59292   0.60959   0.00000  Uiso   1.00
C561   C     0.73984   0.61309   0.50406   0.00000  Uiso   1.00
C562   C     0.80084   0.67736   0.80003   0.00000  Uiso   1.00
C563   C     0.79024   0.73911   0.85041   0.00000  Uiso   1.00
C564   C     0.80520   0.83296   0.86464   0.00000  Uiso   1.00
C565   C     0.82160   0.99202   0.90674   0.00000  Uiso   1.00
C566   C     0.83326   0.62880   0.71199   0.00000  Uiso   1.00
C567   C     0.83697   0.52034   0.74497   0.00000  Uiso   1.00
C568   C     0.86160   0.45609   0.74222   0.00000  Uiso   1.00
C569   C     0.86069   0.35972   0.77570   0.00000  Uiso   1.00
C570   C     0.80619   0.61880   0.67000   0.00000  Uiso   1.00
C571   C     0.80494   0.63735   0.60421   0.00000  Uiso   1.00
C572   C     0.77812   0.62388   0.57457   0.00000  Uiso   1.00
C573   C     0.82550   0.70826   0.76508   0.00000  Uiso   1.00
C574   C     0.84047   0.80204   0.77923   0.00000  Uiso   1.00
C575   C     0.82990   0.86391   0.82963   0.00000  Uiso   1.00
H576   H     0.76865   0.54785   0.80354   0.00000  Uiso   1.00
H577   H     0.79227   0.36926   0.84045   0.00000  Uiso   1.00
H578   H     0.73562   0.55050   0.70246   0.00000  Uiso   1.00
H579   H     0.77115   0.71517   0.87745   0.00000  Uiso   1.00
H580   H     0.82933   0.18487   0.86594   0.00000  Uiso   1.00
H581   H     0.70988   0.56706   0.57499   0.00000  Uiso   1.00
H582   H     0.78480   0.91430   0.94398   0.00000  Uiso   1.00
H583   H     0.85246   0.65286   0.68478   0.00000  Uiso   1.00
H584   H     0.88068   0.48003   0.71517   0.00000  Uiso   1.00
H585   H     0.82403   0.66126   0.57718   0.00000  Uiso   1.00
H586   H     0.85956   0.82593   0.75217   0.00000  Uiso   1.00
H587   H     0.90109   0.27477   0.76426   0.00000  Uiso   1.00
H588   H     0.78163   0.65697   0.47331   0.00000  Uiso   1.00
H589   H     0.85655   0.00419   0.84230   0.00000  Uiso   1.00
O590   O     0.88226   0.11422   0.83722   0.00000  Uiso   1.00
O591   O     0.72554   0.61566   0.45551   0.00000  Uiso   1.00
O592   O     0.82383   0.07121   0.93962   0.00000  Uiso   1.00
N593   N     0.84235   0.22976   0.83785   0.00000  Uiso   1.00
N594   N     0.73067   0.58707   0.56582   0.00000  Uiso   1.00
N595   N     0.80071   0.91172   0.91079   0.00000  Uiso   1.00
N596   N     0.88096   0.27813   0.78313   0.00000  Uiso   1.00
N597   N     0.76928   0.63544   0.51111   0.00000  Uiso   1.00
N598   N     0.83932   0.96009   0.85608   0.00000  Uiso   1.00
C599   C     0.78785   0.07191   0.27633   0.00000  Uiso   1.00
C600   C     0.81231   0.98944   0.27992   0.00000  Uiso   1.00
C601   C     0.81136   0.89315   0.31341   0.00000  Uiso   1.00
C602   C     0.83598   0.82877   0.31071   0.00000  Uiso   1.00
C603   C     0.87020   0.69599   0.32158   0.00000  Uiso   1.00
C604   C     0.78153   0.08790   0.20495   0.00000  Uiso   1.00
C605   C     0.75470   0.07441   0.17540   0.00000  Uiso   1.00
C606   C     0.75341   0.09292   0.10959   0.00000  Uiso   1.00
C607   C     0.73984   0.11309   0.00406   0.00000  Uiso   1.00
C608   C     0.80084   0.17736   0.30003   0.00000  Uiso   1.00
C609   C     0.79024   0.23911   0.35041   0.00000  Uiso   1.00
C610   C     0.80520   0.33296   0.36464   0.00000  Uiso   1.00
C611   C     0.82160   0.49202   0.40674   0.00000  Uiso   1.00
C612   C     0.83326   0.12880   0.21199   0.00000  Uiso   1.00
C613   C     0.83697   0.02034   0.24497   0.00000  Uiso   1.00
C614   C     0.86160   0.95609   0.24222   0.00000  Uiso   1.00
C615   C     0.86069   0.85972   0.27570   0.00000  Uiso   1.00
C616   C     0.80619   0.11880   0.17000   0.00000  Uiso   1.00
C617   C     0.80494   0.13735   0.10421   0.00000  Uiso   1.00
C618   C     0.77812   0.12388   0.07457   0.00000  Uiso   1.00
C619   C     0.82550   0.20826   0.26508   0.00000  Uiso   1.00
C620   C     0.84047   0.30204   0.27923   0.00000  Uiso   1.00
C621   C     0.82990   0.36391   0.32963   0.00000  Uiso   1.00
H622   H     0.76865   0.04785   0.30354   0.00000  Uiso   1.00
H623   H     0.79227   0.86926   0.34045   0.00000  Uiso   1.00
H624   H     0.73562   0.05050   0.20246   0.00000  Uiso   1.00
H625   H     0.77115   0.21517   0.37745   0.00000  Uiso   1.00
H626   H     0.82933   0.68487   0.36594   0.00000  Uiso   1.00
H627   H     0.70988   0.06706   0.07499   0.00000  Uiso   1.00
H628   H     0.78480   0.41430   0.44398   0.00000  Uiso   1.00
H629   H     0.85246   0.15286   0.18478   0.00000  Uiso   1.00
H630   H     0.88068   0.98003   0.21517   0.00000  Uiso   1.00
H631   H     0.82403   0.16126   0.07718   0.00000  Uiso   1.00
H632   H     0.85956   0.32593   0.25217   0.00000  Uiso   1.00
H633   H     0.90109   0.77477   0.26426   0.00000  Uiso   1.00
H634   H     0.78163   0.15697   0.97331   0.00000  Uiso   1.00
H635   H     0.85655   0.50419   0.34230   0.00000  Uiso   1.00
O636   O     0.88226   0.61422   0.33722   0.00000  Uiso   1.00
O637   O     0.72554   0.11566   0.95551   0.00000  Uiso   1.00
O638   O     0.82383   0.57121   0.43962   0.00000  Uiso   1.00
N639   N     0.84235   0.72976   0.33785   0.00000  Uiso   1.00
N640   N     0.73067   0.08707   0.06582   0.00000  Uiso   1.00
N641   N     0.80071   0.41172   0.41079   0.00000  Uiso   1.00
N642   N     0.88096   0.77813   0.28313   0.00000  Uiso   1.00
N643   N     0.76928   0.13544   0.01111   0.00000  Uiso   1.00
N644   N     0.83932   0.46009   0.35608   0.00000  Uiso   1.00
C645   C     0.28785   0.57191   0.27633   0.00000  Uiso   1.00
C646   C     0.31231   0.48944   0.27992   0.00000  Uiso   1.00
C647   C     0.31136   0.39315   0.31341   0.00000  Uiso   1.00
C648   C     0.33598   0.32877   0.31071   0.00000  Uiso   1.00
C649   C     0.37020   0.19599   0.32158   0.00000  Uiso   1.00
C650   C     0.28153   0.58790   0.20495   0.00000  Uiso   1.00
C651   C     0.25470   0.57441   0.17540   0.00000  Uiso   1.00
C652   C     0.25341   0.59292   0.10959   0.00000  Uiso   1.00
C653   C     0.23984   0.61309   0.00406   0.00000  Uiso   1.00
C654   C     0.30084   0.67736   0.30003   0.00000  Uiso   1.00
C655   C     0.29024   0.73911   0.35041   0.00000  Uiso   1.00
C656   C     0.30520   0.83296   0.36464   0.00000  Uiso   1.00
C657   C     0.32160   0.99202   0.40674   0.00000  Uiso   1.00
C658   C     0.33326   0.62880   0.21199   0.00000  Uiso   1.00
C659   C     0.33697   0.52034   0.24497   0.00000  Uiso   1.00
C660   C     0.36160   0.45609   0.24222   0.00000  Uiso   1.00
C661   C     0.36069   0.35972   0.27570   0.00000  Uiso   1.00
C662   C     0.30619   0.61880   0.17000   0.00000  Uiso   1.00
C663   C     0.30494   0.63735   0.10421   0.00000  Uiso   1.00
C664   C     0.27812   0.62388   0.07457   0.00000  Uiso   1.00
C665   C     0.32550   0.70826   0.26508   0.00000  Uiso   1.00
C666   C     0.34047   0.80204   0.27923   0.00000  Uiso   1.00
C667   C     0.32990   0.86391   0.32963   0.00000  Uiso   1.00
H668   H     0.26865   0.54785   0.30354   0.00000  Uiso   1.00
H669   H     0.29227   0.36926   0.34045   0.00000  Uiso   1.00
H670   H     0.23562   0.55050   0.20246   0.00000  Uiso   1.00
H671   H     0.27115   0.71517   0.37745   0.00000  Uiso   1.00
H672   H     0.32933   0.18487   0.36594   0.00000  Uiso   1.00
H673   H     0.20988   0.56706   0.07499   0.00000  Uiso   1.00
H674   H     0.28480   0.91430   0.44398   0.00000  Uiso   1.00
H675   H     0.35246   0.65286   0.18478   0.00000  Uiso   1.00
H676   H     0.38068   0.48003   0.21517   0.00000  Uiso   1.00
H677   H     0.32403   0.66126   0.07718   0.00000  Uiso   1.00
H678   H     0.35956   0.82593   0.25217   0.00000  Uiso   1.00
H679   H     0.40109   0.27477   0.26426   0.00000  Uiso   1.00
H680   H     0.28163   0.65697   0.97331   0.00000  Uiso   1.00
H681   H     0.35655   0.00419   0.34230   0.00000  Uiso   1.00
O682   O     0.38226   0.11422   0.33722   0.00000  Uiso   1.00
O683   O     0.22554   0.61566   0.95551   0.00000  Uiso   1.00
O684   O     0.32383   0.07121   0.43962   0.00000  Uiso   1.00
N685   N     0.34235   0.22976   0.33785   0.00000  Uiso   1.00
N686   N     0.23067   0.58707   0.06582   0.00000  Uiso   1.00
N687   N     0.30071   0.91172   0.41079   0.00000  Uiso   1.00
N688   N     0.38096   0.27813   0.28313   0.00000  Uiso   1.00
N689   N     0.26928   0.63544   0.01111   0.00000  Uiso   1.00
N690   N     0.33932   0.96009   0.35608   0.00000  Uiso   1.00
C691   C     0.28785   0.07191   0.77633   0.00000  Uiso   1.00
C692   C     0.31231   0.98944   0.77992   0.00000  Uiso   1.00
C693   C     0.31136   0.89315   0.81341   0.00000  Uiso   1.00
C694   C     0.33598   0.82877   0.81071   0.00000  Uiso   1.00
C695   C     0.37020   0.69599   0.82158   0.00000  Uiso   1.00
C696   C     0.28153   0.08790   0.70495   0.00000  Uiso   1.00
C697   C     0.25470   0.07441   0.67540   0.00000  Uiso   1.00
C698   C     0.25341   0.09292   0.60959   0.00000  Uiso   1.00
C699   C     0.23984   0.11309   0.50406   0.00000  Uiso   1.00
C700   C     0.30084   0.17736   0.80003   0.00000  Uiso   1.00
C701   C     0.29024   0.23911   0.85041   0.00000  Uiso   1.00
C702   C     0.30520   0.33296   0.86464   0.00000  Uiso   1.00
C703   C     0.32160   0.49202   0.90674   0.00000  Uiso   1.00
C704   C     0.33326   0.12880   0.71199   0.00000  Uiso   1.00
C705   C     0.33697   0.02034   0.74497   0.00000  Uiso   1.00
C706   C     0.36160   0.95609   0.74222   0.00000  Uiso   1.00
C707   C     0.36069   0.85972   0.77570   0.00000  Uiso   1.00
C708   C     0.30619   0.11880   0.67000   0.00000  Uiso   1.00
C709   C     0.30494   0.13735   0.60421   0.00000  Uiso   1.00
C710   C     0.27812   0.12388   0.57457   0.00000  Uiso   1.00
C711   C     0.32550   0.20826   0.76508   0.00000  Uiso   1.00
C712   C     0.34047   0.30204   0.77923   0.00000  Uiso   1.00
C713   C     0.32990   0.36391   0.82963   0.00000  Uiso   1.00
H714   H     0.26865   0.04785   0.80354   0.00000  Uiso   1.00
H715   H     0.29227   0.86926   0.84045   0.00000  Uiso   1.00
H716   H     0.23562   0.05050   0.70246   0.00000  Uiso   1.00
H717   H     0.27115   0.21517   0.87745   0.00000  Uiso   1.00
H718   H     0.32933   0.68487   0.86594   0.00000  Uiso   1.00
H719   H     0.20988   0.06706   0.57499   0.00000  Uiso   1.00
H720   H     0.28480   0.41430   0.94398   0.00000  Uiso   1.00
H721   H     0.35246   0.15286   0.68478   0.00000  Uiso   1.00
H722   H     0.38068   0.98003   0.71517   0.00000  Uiso   1.00
H723   H     0.32403   0.16126   0.57718   0.00000  Uiso   1.00
H724   H     0.35956   0.32593   0.75217   0.00000  Uiso   1.00
H725   H     0.40109   0.77477   0.76426   0.00000  Uiso   1.00
H726   H     0.28163   0.15697   0.47331   0.00000  Uiso   1.00
H727   H     0.35655   0.50419   0.84230   0.00000  Uiso   1.00
O728   O     0.38226   0.61422   0.83722   0.00000  Uiso   1.00
O729   O     0.22554   0.11566   0.45551   0.00000  Uiso   1.00
O730   O     0.32383   0.57121   0.93962   0.00000  Uiso   1.00
N731   N     0.34235   0.72976   0.83785   0.00000  Uiso   1.00
N732   N     0.23067   0.08707   0.56582   0.00000  Uiso   1.00
N733   N     0.30071   0.41172   0.91079   0.00000  Uiso   1.00
N734   N     0.38096   0.77813   0.78313   0.00000  Uiso   1.00
N735   N     0.26928   0.13544   0.51111   0.00000  Uiso   1.00
N736   N     0.33932   0.46009   0.85608   0.00000  Uiso   1.00
