data_job_03730
_audit_creation_date              2018-12-19
_audit_creation_method            'Materials Studio'
_symmetry_space_group_name_H-M    'P1'
_symmetry_Int_Tables_number       1
_symmetry_cell_setting            triclinic
loop_
_symmetry_equiv_pos_as_xyz
  x,y,z
_cell_length_a                    26.8678
_cell_length_b                    49.4499
_cell_length_c                    12.9777
_cell_angle_alpha                 90.0000
_cell_angle_beta                  90.0000
_cell_angle_gamma                 90.0000
loop_
_atom_site_label
_atom_site_type_symbol
_atom_site_fract_x
_atom_site_fract_y
_atom_site_fract_z
_atom_site_U_iso_or_equiv
_atom_site_adp_type
_atom_site_occupancy
C1     C     0.59111   0.30608   0.68143   0.00000  Uiso   1.00
C2     C     0.55826   0.32280   0.60988   0.00000  Uiso   1.00
C3     C     0.57410   0.33638   0.52222   0.00000  Uiso   1.00
C4     C     0.53829   0.35056   0.46715   0.00000  Uiso   1.00
C5     C     0.49486   0.37645   0.35128   0.00000  Uiso   1.00
C6     C     0.58448   0.31814   0.78871   0.00000  Uiso   1.00
C7     C     0.62237   0.32779   0.85140   0.00000  Uiso   1.00
C8     C     0.60865   0.33803   0.94687   0.00000  Uiso   1.00
C9     C     0.60594   0.35667   0.10866   0.00000  Uiso   1.00
C10    C     0.56772   0.27800   0.68551   0.00000  Uiso   1.00
C11    C     0.59152   0.25391   0.66148   0.00000  Uiso   1.00
C12    C     0.56367   0.23036   0.67009   0.00000  Uiso   1.00
C13    C     0.53494   0.18668   0.67166   0.00000  Uiso   1.00
C14    C     0.49936   0.30711   0.73951   0.00000  Uiso   1.00
C15    C     0.50842   0.32336   0.64143   0.00000  Uiso   1.00
C16    C     0.47258   0.33752   0.58647   0.00000  Uiso   1.00
C17    C     0.48837   0.35112   0.49875   0.00000  Uiso   1.00
C18    C     0.53465   0.31870   0.82025   0.00000  Uiso   1.00
C19    C     0.52086   0.32893   0.91565   0.00000  Uiso   1.00
C20    C     0.55872   0.33860   0.97847   0.00000  Uiso   1.00
C21    C     0.51788   0.27856   0.71706   0.00000  Uiso   1.00
C22    C     0.49000   0.25505   0.72572   0.00000  Uiso   1.00
C23    C     0.51375   0.23092   0.70169   0.00000  Uiso   1.00
H24    H     0.62991   0.30564   0.65688   0.00000  Uiso   1.00
H25    H     0.61267   0.33594   0.49784   0.00000  Uiso   1.00
H26    H     0.66094   0.32735   0.82698   0.00000  Uiso   1.00
H27    H     0.63008   0.25348   0.63707   0.00000  Uiso   1.00
H28    H     0.57157   0.36979   0.33545   0.00000  Uiso   1.00
H29    H     0.67336   0.35166   0.02946   0.00000  Uiso   1.00
H30    H     0.60829   0.19590   0.62901   0.00000  Uiso   1.00
H31    H     0.46056   0.30755   0.76407   0.00000  Uiso   1.00
H32    H     0.43402   0.33795   0.61090   0.00000  Uiso   1.00
H33    H     0.48229   0.32936   0.94004   0.00000  Uiso   1.00
H34    H     0.45144   0.25549   0.75013   0.00000  Uiso   1.00
H35    H     0.42658   0.37142   0.42722   0.00000  Uiso   1.00
H36    H     0.52836   0.35330   0.12123   0.00000  Uiso   1.00
H37    H     0.46330   0.19753   0.72077   0.00000  Uiso   1.00
O38    O     0.48468   0.39058   0.27867   0.00000  Uiso   1.00
O39    O     0.61821   0.36679   0.18918   0.00000  Uiso   1.00
O40    O     0.53285   0.16243   0.66379   0.00000  Uiso   1.00
N41    N     0.54109   0.36600   0.37806   0.00000  Uiso   1.00
N42    N     0.63625   0.34905   0.02690   0.00000  Uiso   1.00
N43    N     0.57542   0.20342   0.65254   0.00000  Uiso   1.00
N44    N     0.46307   0.36688   0.42743   0.00000  Uiso   1.00
N45    N     0.55823   0.34993   0.07628   0.00000  Uiso   1.00
N46    N     0.49740   0.20430   0.70192   0.00000  Uiso   1.00
C47    C     0.59111   0.80608   0.18143   0.00000  Uiso   1.00
C48    C     0.55826   0.82280   0.10988   0.00000  Uiso   1.00
C49    C     0.57410   0.83638   0.02222   0.00000  Uiso   1.00
C50    C     0.53829   0.85056   0.96715   0.00000  Uiso   1.00
C51    C     0.49486   0.87645   0.85128   0.00000  Uiso   1.00
C52    C     0.58448   0.81814   0.28871   0.00000  Uiso   1.00
C53    C     0.62237   0.82779   0.35140   0.00000  Uiso   1.00
C54    C     0.60865   0.83803   0.44687   0.00000  Uiso   1.00
C55    C     0.60594   0.85667   0.60866   0.00000  Uiso   1.00
C56    C     0.56772   0.77800   0.18551   0.00000  Uiso   1.00
C57    C     0.59152   0.75391   0.16148   0.00000  Uiso   1.00
C58    C     0.56367   0.73036   0.17009   0.00000  Uiso   1.00
C59    C     0.53494   0.68668   0.17166   0.00000  Uiso   1.00
C60    C     0.49936   0.80711   0.23951   0.00000  Uiso   1.00
C61    C     0.50842   0.82336   0.14143   0.00000  Uiso   1.00
C62    C     0.47258   0.83752   0.08647   0.00000  Uiso   1.00
C63    C     0.48837   0.85112   0.99875   0.00000  Uiso   1.00
C64    C     0.53465   0.81870   0.32025   0.00000  Uiso   1.00
C65    C     0.52086   0.82893   0.41565   0.00000  Uiso   1.00
C66    C     0.55872   0.83860   0.47847   0.00000  Uiso   1.00
C67    C     0.51788   0.77856   0.21706   0.00000  Uiso   1.00
C68    C     0.49000   0.75505   0.22572   0.00000  Uiso   1.00
C69    C     0.51375   0.73092   0.20169   0.00000  Uiso   1.00
H70    H     0.62991   0.80564   0.15688   0.00000  Uiso   1.00
H71    H     0.61267   0.83594   0.99784   0.00000  Uiso   1.00
H72    H     0.66094   0.82735   0.32698   0.00000  Uiso   1.00
H73    H     0.63008   0.75348   0.13707   0.00000  Uiso   1.00
H74    H     0.57157   0.86979   0.83545   0.00000  Uiso   1.00
H75    H     0.67336   0.85166   0.52946   0.00000  Uiso   1.00
H76    H     0.60829   0.69590   0.12901   0.00000  Uiso   1.00
H77    H     0.46056   0.80755   0.26407   0.00000  Uiso   1.00
H78    H     0.43402   0.83795   0.11090   0.00000  Uiso   1.00
H79    H     0.48229   0.82936   0.44004   0.00000  Uiso   1.00
H80    H     0.45144   0.75549   0.25013   0.00000  Uiso   1.00
H81    H     0.42658   0.87142   0.92722   0.00000  Uiso   1.00
H82    H     0.52836   0.85330   0.62123   0.00000  Uiso   1.00
H83    H     0.46330   0.69753   0.22077   0.00000  Uiso   1.00
O84    O     0.48468   0.89058   0.77867   0.00000  Uiso   1.00
O85    O     0.61821   0.86679   0.68918   0.00000  Uiso   1.00
O86    O     0.53285   0.66243   0.16379   0.00000  Uiso   1.00
N87    N     0.54109   0.86600   0.87806   0.00000  Uiso   1.00
N88    N     0.63625   0.84905   0.52690   0.00000  Uiso   1.00
N89    N     0.57542   0.70342   0.15254   0.00000  Uiso   1.00
N90    N     0.46307   0.86688   0.92743   0.00000  Uiso   1.00
N91    N     0.55823   0.84993   0.57628   0.00000  Uiso   1.00
N92    N     0.49740   0.70430   0.20192   0.00000  Uiso   1.00
C93    C     0.09111   0.30608   0.18143   0.00000  Uiso   1.00
C94    C     0.05826   0.32280   0.10988   0.00000  Uiso   1.00
C95    C     0.07410   0.33638   0.02222   0.00000  Uiso   1.00
C96    C     0.03829   0.35056   0.96715   0.00000  Uiso   1.00
C97    C     0.99486   0.37645   0.85128   0.00000  Uiso   1.00
C98    C     0.08448   0.31814   0.28871   0.00000  Uiso   1.00
C99    C     0.12237   0.32779   0.35140   0.00000  Uiso   1.00
C100   C     0.10865   0.33803   0.44687   0.00000  Uiso   1.00
C101   C     0.10594   0.35667   0.60866   0.00000  Uiso   1.00
C102   C     0.06772   0.27800   0.18551   0.00000  Uiso   1.00
C103   C     0.09152   0.25391   0.16148   0.00000  Uiso   1.00
C104   C     0.06367   0.23036   0.17009   0.00000  Uiso   1.00
C105   C     0.03494   0.18668   0.17166   0.00000  Uiso   1.00
C106   C     0.99936   0.30711   0.23951   0.00000  Uiso   1.00
C107   C     0.00842   0.32336   0.14143   0.00000  Uiso   1.00
C108   C     0.97258   0.33752   0.08647   0.00000  Uiso   1.00
C109   C     0.98837   0.35112   0.99875   0.00000  Uiso   1.00
C110   C     0.03465   0.31870   0.32025   0.00000  Uiso   1.00
C111   C     0.02086   0.32893   0.41565   0.00000  Uiso   1.00
C112   C     0.05872   0.33860   0.47847   0.00000  Uiso   1.00
C113   C     0.01788   0.27856   0.21706   0.00000  Uiso   1.00
C114   C     0.99000   0.25505   0.22572   0.00000  Uiso   1.00
C115   C     0.01375   0.23092   0.20169   0.00000  Uiso   1.00
H116   H     0.12991   0.30564   0.15688   0.00000  Uiso   1.00
H117   H     0.11267   0.33594   0.99784   0.00000  Uiso   1.00
H118   H     0.16094   0.32735   0.32698   0.00000  Uiso   1.00
H119   H     0.13008   0.25348   0.13707   0.00000  Uiso   1.00
H120   H     0.07157   0.36979   0.83545   0.00000  Uiso   1.00
H121   H     0.17336   0.35166   0.52946   0.00000  Uiso   1.00
H122   H     0.10829   0.19590   0.12901   0.00000  Uiso   1.00
H123   H     0.96056   0.30755   0.26407   0.00000  Uiso   1.00
H124   H     0.93402   0.33795   0.11090   0.00000  Uiso   1.00
H125   H     0.98229   0.32936   0.44004   0.00000  Uiso   1.00
H126   H     0.95144   0.25549   0.25013   0.00000  Uiso   1.00
H127   H     0.92658   0.37142   0.92722   0.00000  Uiso   1.00
H128   H     0.02836   0.35330   0.62123   0.00000  Uiso   1.00
H129   H     0.96330   0.19753   0.22077   0.00000  Uiso   1.00
O130   O     0.98468   0.39058   0.77867   0.00000  Uiso   1.00
O131   O     0.11821   0.36679   0.68918   0.00000  Uiso   1.00
O132   O     0.03285   0.16243   0.16379   0.00000  Uiso   1.00
N133   N     0.04109   0.36600   0.87806   0.00000  Uiso   1.00
N134   N     0.13625   0.34905   0.52690   0.00000  Uiso   1.00
N135   N     0.07542   0.20342   0.15254   0.00000  Uiso   1.00
N136   N     0.96307   0.36688   0.92743   0.00000  Uiso   1.00
N137   N     0.05823   0.34993   0.57628   0.00000  Uiso   1.00
N138   N     0.99740   0.20430   0.20192   0.00000  Uiso   1.00
C139   C     0.09111   0.80608   0.68143   0.00000  Uiso   1.00
C140   C     0.05826   0.82280   0.60988   0.00000  Uiso   1.00
C141   C     0.07410   0.83638   0.52222   0.00000  Uiso   1.00
C142   C     0.03829   0.85056   0.46715   0.00000  Uiso   1.00
C143   C     0.99486   0.87645   0.35128   0.00000  Uiso   1.00
C144   C     0.08448   0.81814   0.78871   0.00000  Uiso   1.00
C145   C     0.12237   0.82779   0.85140   0.00000  Uiso   1.00
C146   C     0.10865   0.83803   0.94687   0.00000  Uiso   1.00
C147   C     0.10594   0.85667   0.10866   0.00000  Uiso   1.00
C148   C     0.06772   0.77800   0.68551   0.00000  Uiso   1.00
C149   C     0.09152   0.75391   0.66148   0.00000  Uiso   1.00
C150   C     0.06367   0.73036   0.67009   0.00000  Uiso   1.00
C151   C     0.03494   0.68668   0.67166   0.00000  Uiso   1.00
C152   C     0.99936   0.80711   0.73951   0.00000  Uiso   1.00
C153   C     0.00842   0.82336   0.64143   0.00000  Uiso   1.00
C154   C     0.97258   0.83752   0.58647   0.00000  Uiso   1.00
C155   C     0.98837   0.85112   0.49875   0.00000  Uiso   1.00
C156   C     0.03465   0.81870   0.82025   0.00000  Uiso   1.00
C157   C     0.02086   0.82893   0.91565   0.00000  Uiso   1.00
C158   C     0.05872   0.83860   0.97847   0.00000  Uiso   1.00
C159   C     0.01788   0.77856   0.71706   0.00000  Uiso   1.00
C160   C     0.99000   0.75505   0.72572   0.00000  Uiso   1.00
C161   C     0.01375   0.73092   0.70169   0.00000  Uiso   1.00
H162   H     0.12991   0.80564   0.65688   0.00000  Uiso   1.00
H163   H     0.11267   0.83594   0.49784   0.00000  Uiso   1.00
H164   H     0.16094   0.82735   0.82698   0.00000  Uiso   1.00
H165   H     0.13008   0.75348   0.63707   0.00000  Uiso   1.00
H166   H     0.07157   0.86979   0.33545   0.00000  Uiso   1.00
H167   H     0.17336   0.85166   0.02946   0.00000  Uiso   1.00
H168   H     0.10829   0.69590   0.62901   0.00000  Uiso   1.00
H169   H     0.96056   0.80755   0.76407   0.00000  Uiso   1.00
H170   H     0.93402   0.83795   0.61090   0.00000  Uiso   1.00
H171   H     0.98229   0.82936   0.94004   0.00000  Uiso   1.00
H172   H     0.95144   0.75549   0.75013   0.00000  Uiso   1.00
H173   H     0.92658   0.87142   0.42722   0.00000  Uiso   1.00
H174   H     0.02836   0.85330   0.12123   0.00000  Uiso   1.00
H175   H     0.96330   0.69753   0.72077   0.00000  Uiso   1.00
O176   O     0.98468   0.89058   0.27867   0.00000  Uiso   1.00
O177   O     0.11821   0.86679   0.18918   0.00000  Uiso   1.00
O178   O     0.03285   0.66243   0.66379   0.00000  Uiso   1.00
N179   N     0.04109   0.86600   0.37806   0.00000  Uiso   1.00
N180   N     0.13625   0.84905   0.02690   0.00000  Uiso   1.00
N181   N     0.07542   0.70342   0.65254   0.00000  Uiso   1.00
N182   N     0.96307   0.86688   0.42743   0.00000  Uiso   1.00
N183   N     0.05823   0.84993   0.07628   0.00000  Uiso   1.00
N184   N     0.99740   0.70430   0.70192   0.00000  Uiso   1.00
C185   C     0.40889   0.69392   0.68143   0.00000  Uiso   1.00
C186   C     0.44174   0.67720   0.60988   0.00000  Uiso   1.00
C187   C     0.42590   0.66362   0.52222   0.00000  Uiso   1.00
C188   C     0.46171   0.64944   0.46715   0.00000  Uiso   1.00
C189   C     0.50514   0.62355   0.35128   0.00000  Uiso   1.00
C190   C     0.41552   0.68186   0.78871   0.00000  Uiso   1.00
C191   C     0.37763   0.67221   0.85140   0.00000  Uiso   1.00
C192   C     0.39135   0.66197   0.94687   0.00000  Uiso   1.00
C193   C     0.39406   0.64333   0.10866   0.00000  Uiso   1.00
C194   C     0.43228   0.72200   0.68551   0.00000  Uiso   1.00
C195   C     0.40848   0.74609   0.66148   0.00000  Uiso   1.00
C196   C     0.43633   0.76964   0.67009   0.00000  Uiso   1.00
C197   C     0.46506   0.81332   0.67166   0.00000  Uiso   1.00
C198   C     0.50064   0.69289   0.73951   0.00000  Uiso   1.00
C199   C     0.49158   0.67664   0.64143   0.00000  Uiso   1.00
C200   C     0.52742   0.66248   0.58647   0.00000  Uiso   1.00
C201   C     0.51163   0.64888   0.49875   0.00000  Uiso   1.00
C202   C     0.46535   0.68130   0.82025   0.00000  Uiso   1.00
C203   C     0.47914   0.67107   0.91565   0.00000  Uiso   1.00
C204   C     0.44128   0.66140   0.97847   0.00000  Uiso   1.00
C205   C     0.48212   0.72144   0.71706   0.00000  Uiso   1.00
C206   C     0.51000   0.74495   0.72572   0.00000  Uiso   1.00
C207   C     0.48625   0.76908   0.70169   0.00000  Uiso   1.00
H208   H     0.37009   0.69436   0.65688   0.00000  Uiso   1.00
H209   H     0.38733   0.66406   0.49784   0.00000  Uiso   1.00
H210   H     0.33906   0.67265   0.82698   0.00000  Uiso   1.00
H211   H     0.36992   0.74652   0.63707   0.00000  Uiso   1.00
H212   H     0.42843   0.63021   0.33545   0.00000  Uiso   1.00
H213   H     0.32664   0.64834   0.02946   0.00000  Uiso   1.00
H214   H     0.39171   0.80410   0.62901   0.00000  Uiso   1.00
H215   H     0.53944   0.69245   0.76407   0.00000  Uiso   1.00
H216   H     0.56598   0.66205   0.61090   0.00000  Uiso   1.00
H217   H     0.51771   0.67064   0.94004   0.00000  Uiso   1.00
H218   H     0.54856   0.74451   0.75013   0.00000  Uiso   1.00
H219   H     0.57342   0.62858   0.42722   0.00000  Uiso   1.00
H220   H     0.47164   0.64670   0.12123   0.00000  Uiso   1.00
H221   H     0.53670   0.80247   0.72077   0.00000  Uiso   1.00
O222   O     0.51532   0.60942   0.27867   0.00000  Uiso   1.00
O223   O     0.38179   0.63321   0.18918   0.00000  Uiso   1.00
O224   O     0.46715   0.83757   0.66379   0.00000  Uiso   1.00
N225   N     0.45891   0.63400   0.37806   0.00000  Uiso   1.00
N226   N     0.36375   0.65095   0.02690   0.00000  Uiso   1.00
N227   N     0.42458   0.79658   0.65254   0.00000  Uiso   1.00
N228   N     0.53693   0.63312   0.42743   0.00000  Uiso   1.00
N229   N     0.44177   0.65007   0.07628   0.00000  Uiso   1.00
N230   N     0.50260   0.79570   0.70192   0.00000  Uiso   1.00
C231   C     0.40889   0.19392   0.18143   0.00000  Uiso   1.00
C232   C     0.44174   0.17720   0.10988   0.00000  Uiso   1.00
C233   C     0.42590   0.16362   0.02222   0.00000  Uiso   1.00
C234   C     0.46171   0.14944   0.96715   0.00000  Uiso   1.00
C235   C     0.50514   0.12355   0.85128   0.00000  Uiso   1.00
C236   C     0.41552   0.18186   0.28871   0.00000  Uiso   1.00
C237   C     0.37763   0.17221   0.35140   0.00000  Uiso   1.00
C238   C     0.39135   0.16197   0.44687   0.00000  Uiso   1.00
C239   C     0.39406   0.14333   0.60866   0.00000  Uiso   1.00
C240   C     0.43228   0.22200   0.18551   0.00000  Uiso   1.00
C241   C     0.40848   0.24609   0.16148   0.00000  Uiso   1.00
C242   C     0.43633   0.26964   0.17009   0.00000  Uiso   1.00
C243   C     0.46506   0.31332   0.17166   0.00000  Uiso   1.00
C244   C     0.50064   0.19289   0.23951   0.00000  Uiso   1.00
C245   C     0.49158   0.17664   0.14143   0.00000  Uiso   1.00
C246   C     0.52742   0.16248   0.08647   0.00000  Uiso   1.00
C247   C     0.51163   0.14888   0.99875   0.00000  Uiso   1.00
C248   C     0.46535   0.18130   0.32025   0.00000  Uiso   1.00
C249   C     0.47914   0.17107   0.41565   0.00000  Uiso   1.00
C250   C     0.44128   0.16140   0.47847   0.00000  Uiso   1.00
C251   C     0.48212   0.22144   0.21706   0.00000  Uiso   1.00
C252   C     0.51000   0.24495   0.22572   0.00000  Uiso   1.00
C253   C     0.48625   0.26908   0.20169   0.00000  Uiso   1.00
H254   H     0.37009   0.19436   0.15688   0.00000  Uiso   1.00
H255   H     0.38733   0.16406   0.99784   0.00000  Uiso   1.00
H256   H     0.33906   0.17265   0.32698   0.00000  Uiso   1.00
H257   H     0.36992   0.24652   0.13707   0.00000  Uiso   1.00
H258   H     0.42843   0.13021   0.83545   0.00000  Uiso   1.00
H259   H     0.32664   0.14834   0.52946   0.00000  Uiso   1.00
H260   H     0.39171   0.30410   0.12901   0.00000  Uiso   1.00
H261   H     0.53944   0.19245   0.26407   0.00000  Uiso   1.00
H262   H     0.56598   0.16205   0.11090   0.00000  Uiso   1.00
H263   H     0.51771   0.17064   0.44004   0.00000  Uiso   1.00
H264   H     0.54856   0.24451   0.25013   0.00000  Uiso   1.00
H265   H     0.57342   0.12858   0.92722   0.00000  Uiso   1.00
H266   H     0.47164   0.14670   0.62123   0.00000  Uiso   1.00
H267   H     0.53670   0.30247   0.22077   0.00000  Uiso   1.00
O268   O     0.51532   0.10942   0.77867   0.00000  Uiso   1.00
O269   O     0.38179   0.13321   0.68918   0.00000  Uiso   1.00
O270   O     0.46715   0.33757   0.16379   0.00000  Uiso   1.00
N271   N     0.45891   0.13400   0.87806   0.00000  Uiso   1.00
N272   N     0.36375   0.15095   0.52690   0.00000  Uiso   1.00
N273   N     0.42458   0.29658   0.15254   0.00000  Uiso   1.00
N274   N     0.53693   0.13312   0.92743   0.00000  Uiso   1.00
N275   N     0.44177   0.15007   0.57628   0.00000  Uiso   1.00
N276   N     0.50260   0.29570   0.20192   0.00000  Uiso   1.00
C277   C     0.90889   0.69392   0.18143   0.00000  Uiso   1.00
C278   C     0.94174   0.67720   0.10988   0.00000  Uiso   1.00
C279   C     0.92590   0.66362   0.02222   0.00000  Uiso   1.00
C280   C     0.96171   0.64944   0.96715   0.00000  Uiso   1.00
C281   C     0.00514   0.62355   0.85128   0.00000  Uiso   1.00
C282   C     0.91552   0.68186   0.28871   0.00000  Uiso   1.00
C283   C     0.87763   0.67221   0.35140   0.00000  Uiso   1.00
C284   C     0.89135   0.66197   0.44687   0.00000  Uiso   1.00
C285   C     0.89406   0.64333   0.60866   0.00000  Uiso   1.00
C286   C     0.93228   0.72200   0.18551   0.00000  Uiso   1.00
C287   C     0.90848   0.74609   0.16148   0.00000  Uiso   1.00
C288   C     0.93633   0.76964   0.17009   0.00000  Uiso   1.00
C289   C     0.96506   0.81332   0.17166   0.00000  Uiso   1.00
C290   C     0.00064   0.69289   0.23951   0.00000  Uiso   1.00
C291   C     0.99158   0.67664   0.14143   0.00000  Uiso   1.00
C292   C     0.02742   0.66248   0.08647   0.00000  Uiso   1.00
C293   C     0.01163   0.64888   0.99875   0.00000  Uiso   1.00
C294   C     0.96535   0.68130   0.32025   0.00000  Uiso   1.00
C295   C     0.97914   0.67107   0.41565   0.00000  Uiso   1.00
C296   C     0.94128   0.66140   0.47847   0.00000  Uiso   1.00
C297   C     0.98212   0.72144   0.21706   0.00000  Uiso   1.00
C298   C     0.01000   0.74495   0.22572   0.00000  Uiso   1.00
C299   C     0.98625   0.76908   0.20169   0.00000  Uiso   1.00
H300   H     0.87009   0.69436   0.15688   0.00000  Uiso   1.00
H301   H     0.88733   0.66406   0.99784   0.00000  Uiso   1.00
H302   H     0.83906   0.67265   0.32698   0.00000  Uiso   1.00
H303   H     0.86992   0.74652   0.13707   0.00000  Uiso   1.00
H304   H     0.92843   0.63021   0.83545   0.00000  Uiso   1.00
H305   H     0.82664   0.64834   0.52946   0.00000  Uiso   1.00
H306   H     0.89171   0.80410   0.12901   0.00000  Uiso   1.00
H307   H     0.03944   0.69245   0.26407   0.00000  Uiso   1.00
H308   H     0.06598   0.66205   0.11090   0.00000  Uiso   1.00
H309   H     0.01771   0.67064   0.44004   0.00000  Uiso   1.00
H310   H     0.04856   0.74451   0.25013   0.00000  Uiso   1.00
H311   H     0.07342   0.62858   0.92722   0.00000  Uiso   1.00
H312   H     0.97164   0.64670   0.62123   0.00000  Uiso   1.00
H313   H     0.03670   0.80247   0.22077   0.00000  Uiso   1.00
O314   O     0.01532   0.60942   0.77867   0.00000  Uiso   1.00
O315   O     0.88179   0.63321   0.68918   0.00000  Uiso   1.00
O316   O     0.96715   0.83757   0.16379   0.00000  Uiso   1.00
N317   N     0.95891   0.63400   0.87806   0.00000  Uiso   1.00
N318   N     0.86375   0.65095   0.52690   0.00000  Uiso   1.00
N319   N     0.92458   0.79658   0.15254   0.00000  Uiso   1.00
N320   N     0.03693   0.63312   0.92743   0.00000  Uiso   1.00
N321   N     0.94177   0.65007   0.57628   0.00000  Uiso   1.00
N322   N     0.00260   0.79570   0.20192   0.00000  Uiso   1.00
C323   C     0.90889   0.19392   0.68143   0.00000  Uiso   1.00
C324   C     0.94174   0.17720   0.60988   0.00000  Uiso   1.00
C325   C     0.92590   0.16362   0.52222   0.00000  Uiso   1.00
C326   C     0.96171   0.14944   0.46715   0.00000  Uiso   1.00
C327   C     0.00514   0.12355   0.35128   0.00000  Uiso   1.00
C328   C     0.91552   0.18186   0.78871   0.00000  Uiso   1.00
C329   C     0.87763   0.17221   0.85140   0.00000  Uiso   1.00
C330   C     0.89135   0.16197   0.94687   0.00000  Uiso   1.00
C331   C     0.89406   0.14333   0.10866   0.00000  Uiso   1.00
C332   C     0.93228   0.22200   0.68551   0.00000  Uiso   1.00
C333   C     0.90848   0.24609   0.66148   0.00000  Uiso   1.00
C334   C     0.93633   0.26964   0.67009   0.00000  Uiso   1.00
C335   C     0.96506   0.31332   0.67166   0.00000  Uiso   1.00
C336   C     0.00064   0.19289   0.73951   0.00000  Uiso   1.00
C337   C     0.99158   0.17664   0.64143   0.00000  Uiso   1.00
C338   C     0.02742   0.16248   0.58647   0.00000  Uiso   1.00
C339   C     0.01163   0.14888   0.49875   0.00000  Uiso   1.00
C340   C     0.96535   0.18130   0.82025   0.00000  Uiso   1.00
C341   C     0.97914   0.17107   0.91565   0.00000  Uiso   1.00
C342   C     0.94128   0.16140   0.97847   0.00000  Uiso   1.00
C343   C     0.98212   0.22144   0.71706   0.00000  Uiso   1.00
C344   C     0.01000   0.24495   0.72572   0.00000  Uiso   1.00
C345   C     0.98625   0.26908   0.70169   0.00000  Uiso   1.00
H346   H     0.87009   0.19436   0.65688   0.00000  Uiso   1.00
H347   H     0.88733   0.16406   0.49784   0.00000  Uiso   1.00
H348   H     0.83906   0.17265   0.82698   0.00000  Uiso   1.00
H349   H     0.86992   0.24652   0.63707   0.00000  Uiso   1.00
H350   H     0.92843   0.13021   0.33545   0.00000  Uiso   1.00
H351   H     0.82664   0.14834   0.02946   0.00000  Uiso   1.00
H352   H     0.89171   0.30410   0.62901   0.00000  Uiso   1.00
H353   H     0.03944   0.19245   0.76407   0.00000  Uiso   1.00
H354   H     0.06598   0.16205   0.61090   0.00000  Uiso   1.00
H355   H     0.01771   0.17064   0.94004   0.00000  Uiso   1.00
H356   H     0.04856   0.24451   0.75013   0.00000  Uiso   1.00
H357   H     0.07342   0.12858   0.42722   0.00000  Uiso   1.00
H358   H     0.97164   0.14670   0.12123   0.00000  Uiso   1.00
H359   H     0.03670   0.30247   0.72077   0.00000  Uiso   1.00
O360   O     0.01532   0.10942   0.27867   0.00000  Uiso   1.00
O361   O     0.88179   0.13321   0.18918   0.00000  Uiso   1.00
O362   O     0.96715   0.33757   0.66379   0.00000  Uiso   1.00
N363   N     0.95891   0.13400   0.37806   0.00000  Uiso   1.00
N364   N     0.86375   0.15095   0.02690   0.00000  Uiso   1.00
N365   N     0.92458   0.29658   0.65254   0.00000  Uiso   1.00
N366   N     0.03693   0.13312   0.42743   0.00000  Uiso   1.00
N367   N     0.94177   0.15007   0.07628   0.00000  Uiso   1.00
N368   N     0.00260   0.29570   0.70192   0.00000  Uiso   1.00
C369   C     0.84111   0.94392   0.93143   0.00000  Uiso   1.00
C370   C     0.80826   0.92720   0.85988   0.00000  Uiso   1.00
C371   C     0.82410   0.91362   0.77222   0.00000  Uiso   1.00
C372   C     0.78829   0.89944   0.71715   0.00000  Uiso   1.00
C373   C     0.74486   0.87355   0.60128   0.00000  Uiso   1.00
C374   C     0.83448   0.93186   0.03871   0.00000  Uiso   1.00
C375   C     0.87237   0.92221   0.10140   0.00000  Uiso   1.00
C376   C     0.85865   0.91197   0.19687   0.00000  Uiso   1.00
C377   C     0.85594   0.89333   0.35866   0.00000  Uiso   1.00
C378   C     0.81772   0.97200   0.93551   0.00000  Uiso   1.00
C379   C     0.84152   0.99609   0.91148   0.00000  Uiso   1.00
C380   C     0.81367   0.01964   0.92009   0.00000  Uiso   1.00
C381   C     0.78494   0.06332   0.92166   0.00000  Uiso   1.00
C382   C     0.74936   0.94289   0.98951   0.00000  Uiso   1.00
C383   C     0.75842   0.92664   0.89143   0.00000  Uiso   1.00
C384   C     0.72258   0.91248   0.83647   0.00000  Uiso   1.00
C385   C     0.73837   0.89888   0.74875   0.00000  Uiso   1.00
C386   C     0.78465   0.93130   0.07025   0.00000  Uiso   1.00
C387   C     0.77086   0.92107   0.16565   0.00000  Uiso   1.00
C388   C     0.80872   0.91140   0.22847   0.00000  Uiso   1.00
C389   C     0.76788   0.97144   0.96706   0.00000  Uiso   1.00
C390   C     0.74000   0.99495   0.97572   0.00000  Uiso   1.00
C391   C     0.76375   0.01908   0.95169   0.00000  Uiso   1.00
H392   H     0.87991   0.94436   0.90688   0.00000  Uiso   1.00
H393   H     0.86267   0.91406   0.74784   0.00000  Uiso   1.00
H394   H     0.91094   0.92265   0.07698   0.00000  Uiso   1.00
H395   H     0.88008   0.99652   0.88707   0.00000  Uiso   1.00
H396   H     0.82157   0.88021   0.58545   0.00000  Uiso   1.00
H397   H     0.92336   0.89834   0.27946   0.00000  Uiso   1.00
H398   H     0.85829   0.05410   0.87901   0.00000  Uiso   1.00
H399   H     0.71056   0.94245   0.01407   0.00000  Uiso   1.00
H400   H     0.68402   0.91205   0.86090   0.00000  Uiso   1.00
H401   H     0.73229   0.92064   0.19004   0.00000  Uiso   1.00
H402   H     0.70144   0.99451   0.00013   0.00000  Uiso   1.00
H403   H     0.67658   0.87858   0.67722   0.00000  Uiso   1.00
H404   H     0.77836   0.89670   0.37123   0.00000  Uiso   1.00
H405   H     0.71330   0.05247   0.97077   0.00000  Uiso   1.00
O406   O     0.73468   0.85942   0.52867   0.00000  Uiso   1.00
O407   O     0.86821   0.88321   0.43918   0.00000  Uiso   1.00
O408   O     0.78285   0.08757   0.91379   0.00000  Uiso   1.00
N409   N     0.79109   0.88400   0.62806   0.00000  Uiso   1.00
N410   N     0.88625   0.90095   0.27690   0.00000  Uiso   1.00
N411   N     0.82542   0.04658   0.90254   0.00000  Uiso   1.00
N412   N     0.71307   0.88312   0.67743   0.00000  Uiso   1.00
N413   N     0.80823   0.90007   0.32628   0.00000  Uiso   1.00
N414   N     0.74740   0.04570   0.95192   0.00000  Uiso   1.00
C415   C     0.84111   0.44392   0.43143   0.00000  Uiso   1.00
C416   C     0.80826   0.42720   0.35988   0.00000  Uiso   1.00
C417   C     0.82410   0.41362   0.27222   0.00000  Uiso   1.00
C418   C     0.78829   0.39944   0.21715   0.00000  Uiso   1.00
C419   C     0.74486   0.37355   0.10128   0.00000  Uiso   1.00
C420   C     0.83448   0.43186   0.53871   0.00000  Uiso   1.00
C421   C     0.87237   0.42221   0.60140   0.00000  Uiso   1.00
C422   C     0.85865   0.41197   0.69687   0.00000  Uiso   1.00
C423   C     0.85594   0.39333   0.85866   0.00000  Uiso   1.00
C424   C     0.81772   0.47200   0.43551   0.00000  Uiso   1.00
C425   C     0.84152   0.49609   0.41148   0.00000  Uiso   1.00
C426   C     0.81367   0.51964   0.42009   0.00000  Uiso   1.00
C427   C     0.78494   0.56332   0.42166   0.00000  Uiso   1.00
C428   C     0.74936   0.44289   0.48951   0.00000  Uiso   1.00
C429   C     0.75842   0.42664   0.39143   0.00000  Uiso   1.00
C430   C     0.72258   0.41248   0.33647   0.00000  Uiso   1.00
C431   C     0.73837   0.39888   0.24875   0.00000  Uiso   1.00
C432   C     0.78465   0.43130   0.57025   0.00000  Uiso   1.00
C433   C     0.77086   0.42107   0.66565   0.00000  Uiso   1.00
C434   C     0.80872   0.41140   0.72847   0.00000  Uiso   1.00
C435   C     0.76788   0.47144   0.46706   0.00000  Uiso   1.00
C436   C     0.74000   0.49495   0.47572   0.00000  Uiso   1.00
C437   C     0.76375   0.51908   0.45169   0.00000  Uiso   1.00
H438   H     0.87991   0.44436   0.40688   0.00000  Uiso   1.00
H439   H     0.86267   0.41406   0.24784   0.00000  Uiso   1.00
H440   H     0.91094   0.42265   0.57698   0.00000  Uiso   1.00
H441   H     0.88008   0.49652   0.38707   0.00000  Uiso   1.00
H442   H     0.82157   0.38021   0.08545   0.00000  Uiso   1.00
H443   H     0.92336   0.39834   0.77946   0.00000  Uiso   1.00
H444   H     0.85829   0.55410   0.37901   0.00000  Uiso   1.00
H445   H     0.71056   0.44245   0.51407   0.00000  Uiso   1.00
H446   H     0.68402   0.41205   0.36090   0.00000  Uiso   1.00
H447   H     0.73229   0.42064   0.69004   0.00000  Uiso   1.00
H448   H     0.70144   0.49451   0.50013   0.00000  Uiso   1.00
H449   H     0.67658   0.37858   0.17722   0.00000  Uiso   1.00
H450   H     0.77836   0.39670   0.87123   0.00000  Uiso   1.00
H451   H     0.71330   0.55247   0.47077   0.00000  Uiso   1.00
O452   O     0.73468   0.35942   0.02867   0.00000  Uiso   1.00
O453   O     0.86821   0.38321   0.93918   0.00000  Uiso   1.00
O454   O     0.78285   0.58757   0.41379   0.00000  Uiso   1.00
N455   N     0.79109   0.38400   0.12806   0.00000  Uiso   1.00
N456   N     0.88625   0.40095   0.77690   0.00000  Uiso   1.00
N457   N     0.82542   0.54658   0.40254   0.00000  Uiso   1.00
N458   N     0.71307   0.38312   0.17743   0.00000  Uiso   1.00
N459   N     0.80823   0.40007   0.82628   0.00000  Uiso   1.00
N460   N     0.74740   0.54570   0.45192   0.00000  Uiso   1.00
C461   C     0.34111   0.94392   0.43143   0.00000  Uiso   1.00
C462   C     0.30826   0.92720   0.35988   0.00000  Uiso   1.00
C463   C     0.32410   0.91362   0.27222   0.00000  Uiso   1.00
C464   C     0.28829   0.89944   0.21715   0.00000  Uiso   1.00
C465   C     0.24486   0.87355   0.10128   0.00000  Uiso   1.00
C466   C     0.33448   0.93186   0.53871   0.00000  Uiso   1.00
C467   C     0.37237   0.92221   0.60140   0.00000  Uiso   1.00
C468   C     0.35865   0.91197   0.69687   0.00000  Uiso   1.00
C469   C     0.35594   0.89333   0.85866   0.00000  Uiso   1.00
C470   C     0.31772   0.97200   0.43551   0.00000  Uiso   1.00
C471   C     0.34152   0.99609   0.41148   0.00000  Uiso   1.00
C472   C     0.31367   0.01964   0.42009   0.00000  Uiso   1.00
C473   C     0.28494   0.06332   0.42166   0.00000  Uiso   1.00
C474   C     0.24936   0.94289   0.48951   0.00000  Uiso   1.00
C475   C     0.25842   0.92664   0.39143   0.00000  Uiso   1.00
C476   C     0.22258   0.91248   0.33647   0.00000  Uiso   1.00
C477   C     0.23837   0.89888   0.24875   0.00000  Uiso   1.00
C478   C     0.28465   0.93130   0.57025   0.00000  Uiso   1.00
C479   C     0.27086   0.92107   0.66565   0.00000  Uiso   1.00
C480   C     0.30872   0.91140   0.72847   0.00000  Uiso   1.00
C481   C     0.26788   0.97144   0.46706   0.00000  Uiso   1.00
C482   C     0.24000   0.99495   0.47572   0.00000  Uiso   1.00
C483   C     0.26375   0.01908   0.45169   0.00000  Uiso   1.00
H484   H     0.37991   0.94436   0.40688   0.00000  Uiso   1.00
H485   H     0.36267   0.91406   0.24784   0.00000  Uiso   1.00
H486   H     0.41094   0.92265   0.57698   0.00000  Uiso   1.00
H487   H     0.38008   0.99652   0.38707   0.00000  Uiso   1.00
H488   H     0.32157   0.88021   0.08545   0.00000  Uiso   1.00
H489   H     0.42336   0.89834   0.77946   0.00000  Uiso   1.00
H490   H     0.35829   0.05410   0.37901   0.00000  Uiso   1.00
H491   H     0.21056   0.94245   0.51407   0.00000  Uiso   1.00
H492   H     0.18402   0.91205   0.36090   0.00000  Uiso   1.00
H493   H     0.23229   0.92064   0.69004   0.00000  Uiso   1.00
H494   H     0.20144   0.99451   0.50013   0.00000  Uiso   1.00
H495   H     0.17658   0.87858   0.17722   0.00000  Uiso   1.00
H496   H     0.27836   0.89670   0.87123   0.00000  Uiso   1.00
H497   H     0.21330   0.05247   0.47077   0.00000  Uiso   1.00
O498   O     0.23468   0.85942   0.02867   0.00000  Uiso   1.00
O499   O     0.36821   0.88321   0.93918   0.00000  Uiso   1.00
O500   O     0.28285   0.08757   0.41379   0.00000  Uiso   1.00
N501   N     0.29109   0.88400   0.12806   0.00000  Uiso   1.00
N502   N     0.38625   0.90095   0.77690   0.00000  Uiso   1.00
N503   N     0.32542   0.04658   0.40254   0.00000  Uiso   1.00
N504   N     0.21307   0.88312   0.17743   0.00000  Uiso   1.00
N505   N     0.30823   0.90007   0.82628   0.00000  Uiso   1.00
N506   N     0.24740   0.04570   0.45192   0.00000  Uiso   1.00
C507   C     0.34111   0.44392   0.93143   0.00000  Uiso   1.00
C508   C     0.30826   0.42720   0.85988   0.00000  Uiso   1.00
C509   C     0.32410   0.41362   0.77222   0.00000  Uiso   1.00
C510   C     0.28829   0.39944   0.71715   0.00000  Uiso   1.00
C511   C     0.24486   0.37355   0.60128   0.00000  Uiso   1.00
C512   C     0.33448   0.43186   0.03871   0.00000  Uiso   1.00
C513   C     0.37237   0.42221   0.10140   0.00000  Uiso   1.00
C514   C     0.35865   0.41197   0.19687   0.00000  Uiso   1.00
C515   C     0.35594   0.39333   0.35866   0.00000  Uiso   1.00
C516   C     0.31772   0.47200   0.93551   0.00000  Uiso   1.00
C517   C     0.34152   0.49609   0.91148   0.00000  Uiso   1.00
C518   C     0.31367   0.51964   0.92009   0.00000  Uiso   1.00
C519   C     0.28494   0.56332   0.92166   0.00000  Uiso   1.00
C520   C     0.24936   0.44289   0.98951   0.00000  Uiso   1.00
C521   C     0.25842   0.42664   0.89143   0.00000  Uiso   1.00
C522   C     0.22258   0.41248   0.83647   0.00000  Uiso   1.00
C523   C     0.23837   0.39888   0.74875   0.00000  Uiso   1.00
C524   C     0.28465   0.43130   0.07025   0.00000  Uiso   1.00
C525   C     0.27086   0.42107   0.16565   0.00000  Uiso   1.00
C526   C     0.30872   0.41140   0.22847   0.00000  Uiso   1.00
C527   C     0.26788   0.47144   0.96706   0.00000  Uiso   1.00
C528   C     0.24000   0.49495   0.97572   0.00000  Uiso   1.00
C529   C     0.26375   0.51908   0.95169   0.00000  Uiso   1.00
H530   H     0.37991   0.44436   0.90688   0.00000  Uiso   1.00
H531   H     0.36267   0.41406   0.74784   0.00000  Uiso   1.00
H532   H     0.41094   0.42265   0.07698   0.00000  Uiso   1.00
H533   H     0.38008   0.49652   0.88707   0.00000  Uiso   1.00
H534   H     0.32157   0.38021   0.58545   0.00000  Uiso   1.00
H535   H     0.42336   0.39834   0.27946   0.00000  Uiso   1.00
H536   H     0.35829   0.55410   0.87901   0.00000  Uiso   1.00
H537   H     0.21056   0.44245   0.01407   0.00000  Uiso   1.00
H538   H     0.18402   0.41205   0.86090   0.00000  Uiso   1.00
H539   H     0.23229   0.42064   0.19004   0.00000  Uiso   1.00
H540   H     0.20144   0.49451   0.00013   0.00000  Uiso   1.00
H541   H     0.17658   0.37858   0.67722   0.00000  Uiso   1.00
H542   H     0.27836   0.39670   0.37123   0.00000  Uiso   1.00
H543   H     0.21330   0.55247   0.97077   0.00000  Uiso   1.00
O544   O     0.23468   0.35942   0.52867   0.00000  Uiso   1.00
O545   O     0.36821   0.38321   0.43918   0.00000  Uiso   1.00
O546   O     0.28285   0.58757   0.91379   0.00000  Uiso   1.00
N547   N     0.29109   0.38400   0.62806   0.00000  Uiso   1.00
N548   N     0.38625   0.40095   0.27690   0.00000  Uiso   1.00
N549   N     0.32542   0.54658   0.90254   0.00000  Uiso   1.00
N550   N     0.21307   0.38312   0.67743   0.00000  Uiso   1.00
N551   N     0.30823   0.40007   0.32628   0.00000  Uiso   1.00
N552   N     0.24740   0.54570   0.95192   0.00000  Uiso   1.00
C553   C     0.65889   0.55608   0.93143   0.00000  Uiso   1.00
C554   C     0.69174   0.57280   0.85988   0.00000  Uiso   1.00
C555   C     0.67590   0.58638   0.77222   0.00000  Uiso   1.00
C556   C     0.71171   0.60056   0.71715   0.00000  Uiso   1.00
C557   C     0.75514   0.62645   0.60128   0.00000  Uiso   1.00
C558   C     0.66552   0.56814   0.03871   0.00000  Uiso   1.00
C559   C     0.62763   0.57779   0.10140   0.00000  Uiso   1.00
C560   C     0.64135   0.58803   0.19687   0.00000  Uiso   1.00
C561   C     0.64406   0.60667   0.35866   0.00000  Uiso   1.00
C562   C     0.68228   0.52800   0.93551   0.00000  Uiso   1.00
C563   C     0.65848   0.50391   0.91148   0.00000  Uiso   1.00
C564   C     0.68633   0.48036   0.92009   0.00000  Uiso   1.00
C565   C     0.71506   0.43668   0.92166   0.00000  Uiso   1.00
C566   C     0.75064   0.55711   0.98951   0.00000  Uiso   1.00
C567   C     0.74158   0.57336   0.89143   0.00000  Uiso   1.00
C568   C     0.77742   0.58752   0.83647   0.00000  Uiso   1.00
C569   C     0.76163   0.60112   0.74875   0.00000  Uiso   1.00
C570   C     0.71535   0.56870   0.07025   0.00000  Uiso   1.00
C571   C     0.72914   0.57893   0.16565   0.00000  Uiso   1.00
C572   C     0.69128   0.58860   0.22847   0.00000  Uiso   1.00
C573   C     0.73212   0.52856   0.96706   0.00000  Uiso   1.00
C574   C     0.76000   0.50505   0.97572   0.00000  Uiso   1.00
C575   C     0.73625   0.48092   0.95169   0.00000  Uiso   1.00
H576   H     0.62009   0.55564   0.90688   0.00000  Uiso   1.00
H577   H     0.63733   0.58594   0.74784   0.00000  Uiso   1.00
H578   H     0.58906   0.57735   0.07698   0.00000  Uiso   1.00
H579   H     0.61992   0.50348   0.88707   0.00000  Uiso   1.00
H580   H     0.67843   0.61979   0.58545   0.00000  Uiso   1.00
H581   H     0.57664   0.60166   0.27946   0.00000  Uiso   1.00
H582   H     0.64171   0.44590   0.87901   0.00000  Uiso   1.00
H583   H     0.78944   0.55755   0.01407   0.00000  Uiso   1.00
H584   H     0.81598   0.58795   0.86090   0.00000  Uiso   1.00
H585   H     0.76771   0.57936   0.19004   0.00000  Uiso   1.00
H586   H     0.79856   0.50549   0.00013   0.00000  Uiso   1.00
H587   H     0.82342   0.62142   0.67722   0.00000  Uiso   1.00
H588   H     0.72164   0.60330   0.37123   0.00000  Uiso   1.00
H589   H     0.78670   0.44753   0.97077   0.00000  Uiso   1.00
O590   O     0.76532   0.64058   0.52867   0.00000  Uiso   1.00
O591   O     0.63179   0.61679   0.43918   0.00000  Uiso   1.00
O592   O     0.71715   0.41243   0.91379   0.00000  Uiso   1.00
N593   N     0.70891   0.61600   0.62806   0.00000  Uiso   1.00
N594   N     0.61375   0.59905   0.27690   0.00000  Uiso   1.00
N595   N     0.67458   0.45342   0.90254   0.00000  Uiso   1.00
N596   N     0.78693   0.61688   0.67743   0.00000  Uiso   1.00
N597   N     0.69177   0.59993   0.32628   0.00000  Uiso   1.00
N598   N     0.75260   0.45430   0.95192   0.00000  Uiso   1.00
C599   C     0.65889   0.05608   0.43143   0.00000  Uiso   1.00
C600   C     0.69174   0.07280   0.35988   0.00000  Uiso   1.00
C601   C     0.67590   0.08638   0.27222   0.00000  Uiso   1.00
C602   C     0.71171   0.10056   0.21715   0.00000  Uiso   1.00
C603   C     0.75514   0.12645   0.10128   0.00000  Uiso   1.00
C604   C     0.66552   0.06814   0.53871   0.00000  Uiso   1.00
C605   C     0.62763   0.07779   0.60140   0.00000  Uiso   1.00
C606   C     0.64135   0.08803   0.69687   0.00000  Uiso   1.00
C607   C     0.64406   0.10667   0.85866   0.00000  Uiso   1.00
C608   C     0.68228   0.02800   0.43551   0.00000  Uiso   1.00
C609   C     0.65848   0.00391   0.41148   0.00000  Uiso   1.00
C610   C     0.68633   0.98036   0.42009   0.00000  Uiso   1.00
C611   C     0.71506   0.93668   0.42166   0.00000  Uiso   1.00
C612   C     0.75064   0.05711   0.48951   0.00000  Uiso   1.00
C613   C     0.74158   0.07336   0.39143   0.00000  Uiso   1.00
C614   C     0.77742   0.08752   0.33647   0.00000  Uiso   1.00
C615   C     0.76163   0.10112   0.24875   0.00000  Uiso   1.00
C616   C     0.71535   0.06870   0.57025   0.00000  Uiso   1.00
C617   C     0.72914   0.07893   0.66565   0.00000  Uiso   1.00
C618   C     0.69128   0.08860   0.72847   0.00000  Uiso   1.00
C619   C     0.73212   0.02856   0.46706   0.00000  Uiso   1.00
C620   C     0.76000   0.00505   0.47572   0.00000  Uiso   1.00
C621   C     0.73625   0.98092   0.45169   0.00000  Uiso   1.00
H622   H     0.62009   0.05564   0.40688   0.00000  Uiso   1.00
H623   H     0.63733   0.08594   0.24784   0.00000  Uiso   1.00
H624   H     0.58906   0.07735   0.57698   0.00000  Uiso   1.00
H625   H     0.61992   0.00348   0.38707   0.00000  Uiso   1.00
H626   H     0.67843   0.11979   0.08545   0.00000  Uiso   1.00
H627   H     0.57664   0.10166   0.77946   0.00000  Uiso   1.00
H628   H     0.64171   0.94590   0.37901   0.00000  Uiso   1.00
H629   H     0.78944   0.05755   0.51407   0.00000  Uiso   1.00
H630   H     0.81598   0.08795   0.36090   0.00000  Uiso   1.00
H631   H     0.76771   0.07936   0.69004   0.00000  Uiso   1.00
H632   H     0.79856   0.00549   0.50013   0.00000  Uiso   1.00
H633   H     0.82342   0.12142   0.17722   0.00000  Uiso   1.00
H634   H     0.72164   0.10330   0.87123   0.00000  Uiso   1.00
H635   H     0.78670   0.94753   0.47077   0.00000  Uiso   1.00
O636   O     0.76532   0.14058   0.02867   0.00000  Uiso   1.00
O637   O     0.63179   0.11679   0.93918   0.00000  Uiso   1.00
O638   O     0.71715   0.91243   0.41379   0.00000  Uiso   1.00
N639   N     0.70891   0.11600   0.12806   0.00000  Uiso   1.00
N640   N     0.61375   0.09905   0.77690   0.00000  Uiso   1.00
N641   N     0.67458   0.95342   0.40254   0.00000  Uiso   1.00
N642   N     0.78693   0.11688   0.17743   0.00000  Uiso   1.00
N643   N     0.69177   0.09993   0.82628   0.00000  Uiso   1.00
N644   N     0.75260   0.95430   0.45192   0.00000  Uiso   1.00
C645   C     0.15889   0.55608   0.43143   0.00000  Uiso   1.00
C646   C     0.19174   0.57280   0.35988   0.00000  Uiso   1.00
C647   C     0.17590   0.58638   0.27222   0.00000  Uiso   1.00
C648   C     0.21171   0.60056   0.21715   0.00000  Uiso   1.00
C649   C     0.25514   0.62645   0.10128   0.00000  Uiso   1.00
C650   C     0.16552   0.56814   0.53871   0.00000  Uiso   1.00
C651   C     0.12763   0.57779   0.60140   0.00000  Uiso   1.00
C652   C     0.14135   0.58803   0.69687   0.00000  Uiso   1.00
C653   C     0.14406   0.60667   0.85866   0.00000  Uiso   1.00
C654   C     0.18228   0.52800   0.43551   0.00000  Uiso   1.00
C655   C     0.15848   0.50391   0.41148   0.00000  Uiso   1.00
C656   C     0.18633   0.48036   0.42009   0.00000  Uiso   1.00
C657   C     0.21506   0.43668   0.42166   0.00000  Uiso   1.00
C658   C     0.25064   0.55711   0.48951   0.00000  Uiso   1.00
C659   C     0.24158   0.57336   0.39143   0.00000  Uiso   1.00
C660   C     0.27742   0.58752   0.33647   0.00000  Uiso   1.00
C661   C     0.26163   0.60112   0.24875   0.00000  Uiso   1.00
C662   C     0.21535   0.56870   0.57025   0.00000  Uiso   1.00
C663   C     0.22914   0.57893   0.66565   0.00000  Uiso   1.00
C664   C     0.19128   0.58860   0.72847   0.00000  Uiso   1.00
C665   C     0.23212   0.52856   0.46706   0.00000  Uiso   1.00
C666   C     0.26000   0.50505   0.47572   0.00000  Uiso   1.00
C667   C     0.23625   0.48092   0.45169   0.00000  Uiso   1.00
H668   H     0.12009   0.55564   0.40688   0.00000  Uiso   1.00
H669   H     0.13733   0.58594   0.24784   0.00000  Uiso   1.00
H670   H     0.08906   0.57735   0.57698   0.00000  Uiso   1.00
H671   H     0.11992   0.50348   0.38707   0.00000  Uiso   1.00
H672   H     0.17843   0.61979   0.08545   0.00000  Uiso   1.00
H673   H     0.07664   0.60166   0.77946   0.00000  Uiso   1.00
H674   H     0.14171   0.44590   0.37901   0.00000  Uiso   1.00
H675   H     0.28944   0.55755   0.51407   0.00000  Uiso   1.00
H676   H     0.31598   0.58795   0.36090   0.00000  Uiso   1.00
H677   H     0.26771   0.57936   0.69004   0.00000  Uiso   1.00
H678   H     0.29856   0.50549   0.50013   0.00000  Uiso   1.00
H679   H     0.32342   0.62142   0.17722   0.00000  Uiso   1.00
H680   H     0.22164   0.60330   0.87123   0.00000  Uiso   1.00
H681   H     0.28670   0.44753   0.47077   0.00000  Uiso   1.00
O682   O     0.26532   0.64058   0.02867   0.00000  Uiso   1.00
O683   O     0.13179   0.61679   0.93918   0.00000  Uiso   1.00
O684   O     0.21715   0.41243   0.41379   0.00000  Uiso   1.00
N685   N     0.20891   0.61600   0.12806   0.00000  Uiso   1.00
N686   N     0.11375   0.59905   0.77690   0.00000  Uiso   1.00
N687   N     0.17458   0.45342   0.40254   0.00000  Uiso   1.00
N688   N     0.28693   0.61688   0.17743   0.00000  Uiso   1.00
N689   N     0.19177   0.59993   0.82628   0.00000  Uiso   1.00
N690   N     0.25260   0.45430   0.45192   0.00000  Uiso   1.00
C691   C     0.15889   0.05608   0.93143   0.00000  Uiso   1.00
C692   C     0.19174   0.07280   0.85988   0.00000  Uiso   1.00
C693   C     0.17590   0.08638   0.77222   0.00000  Uiso   1.00
C694   C     0.21171   0.10056   0.71715   0.00000  Uiso   1.00
C695   C     0.25514   0.12645   0.60128   0.00000  Uiso   1.00
C696   C     0.16552   0.06814   0.03871   0.00000  Uiso   1.00
C697   C     0.12763   0.07779   0.10140   0.00000  Uiso   1.00
C698   C     0.14135   0.08803   0.19687   0.00000  Uiso   1.00
C699   C     0.14406   0.10667   0.35866   0.00000  Uiso   1.00
C700   C     0.18228   0.02800   0.93551   0.00000  Uiso   1.00
C701   C     0.15848   0.00391   0.91148   0.00000  Uiso   1.00
C702   C     0.18633   0.98036   0.92009   0.00000  Uiso   1.00
C703   C     0.21506   0.93668   0.92166   0.00000  Uiso   1.00
C704   C     0.25064   0.05711   0.98951   0.00000  Uiso   1.00
C705   C     0.24158   0.07336   0.89143   0.00000  Uiso   1.00
C706   C     0.27742   0.08752   0.83647   0.00000  Uiso   1.00
C707   C     0.26163   0.10112   0.74875   0.00000  Uiso   1.00
C708   C     0.21535   0.06870   0.07025   0.00000  Uiso   1.00
C709   C     0.22914   0.07893   0.16565   0.00000  Uiso   1.00
C710   C     0.19128   0.08860   0.22847   0.00000  Uiso   1.00
C711   C     0.23212   0.02856   0.96706   0.00000  Uiso   1.00
C712   C     0.26000   0.00505   0.97572   0.00000  Uiso   1.00
C713   C     0.23625   0.98092   0.95169   0.00000  Uiso   1.00
H714   H     0.12009   0.05564   0.90688   0.00000  Uiso   1.00
H715   H     0.13733   0.08594   0.74784   0.00000  Uiso   1.00
H716   H     0.08906   0.07735   0.07698   0.00000  Uiso   1.00
H717   H     0.11992   0.00348   0.88707   0.00000  Uiso   1.00
H718   H     0.17843   0.11979   0.58545   0.00000  Uiso   1.00
H719   H     0.07664   0.10166   0.27946   0.00000  Uiso   1.00
H720   H     0.14171   0.94590   0.87901   0.00000  Uiso   1.00
H721   H     0.28944   0.05755   0.01407   0.00000  Uiso   1.00
H722   H     0.31598   0.08795   0.86090   0.00000  Uiso   1.00
H723   H     0.26771   0.07936   0.19004   0.00000  Uiso   1.00
H724   H     0.29856   0.00549   0.00013   0.00000  Uiso   1.00
H725   H     0.32342   0.12142   0.67722   0.00000  Uiso   1.00
H726   H     0.22164   0.10330   0.37123   0.00000  Uiso   1.00
H727   H     0.28670   0.94753   0.97077   0.00000  Uiso   1.00
O728   O     0.26532   0.14058   0.52867   0.00000  Uiso   1.00
O729   O     0.13179   0.11679   0.43918   0.00000  Uiso   1.00
O730   O     0.21715   0.91243   0.91379   0.00000  Uiso   1.00
N731   N     0.20891   0.11600   0.62806   0.00000  Uiso   1.00
N732   N     0.11375   0.09905   0.27690   0.00000  Uiso   1.00
N733   N     0.17458   0.95342   0.90254   0.00000  Uiso   1.00
N734   N     0.28693   0.11688   0.67743   0.00000  Uiso   1.00
N735   N     0.19177   0.09993   0.32628   0.00000  Uiso   1.00
N736   N     0.25260   0.95430   0.95192   0.00000  Uiso   1.00
