data_job_02079
_audit_creation_date              2018-12-19
_audit_creation_method            'Materials Studio'
_symmetry_space_group_name_H-M    'P1'
_symmetry_Int_Tables_number       1
_symmetry_cell_setting            triclinic
loop_
_symmetry_equiv_pos_as_xyz
  x,y,z
_cell_length_a                    26.3919
_cell_length_b                    26.3919
_cell_length_c                    13.1779
_cell_angle_alpha                 90.0000
_cell_angle_beta                  90.0000
_cell_angle_gamma                 90.0000
loop_
_atom_site_label
_atom_site_type_symbol
_atom_site_fract_x
_atom_site_fract_y
_atom_site_fract_z
_atom_site_U_iso_or_equiv
_atom_site_adp_type
_atom_site_occupancy
C1     C     0.00131   0.33867   0.32639   0.00000  Uiso   1.00
C2     C     0.98370   0.37250   0.41332   0.00000  Uiso   1.00
C3     C     0.96974   0.42302   0.40498   0.00000  Uiso   1.00
C4     C     0.95475   0.44736   0.49342   0.00000  Uiso   1.00
C5     C     0.92752   0.50374   0.61418   0.00000  Uiso   1.00
C6     C     0.96581   0.29308   0.32616   0.00000  Uiso   1.00
C7     C     0.93683   0.27683   0.24453   0.00000  Uiso   1.00
C8     C     0.90678   0.23430   0.25960   0.00000  Uiso   1.00
C9     C     0.85182   0.16736   0.24502   0.00000  Uiso   1.00
C10    C     0.05317   0.31847   0.35749   0.00000  Uiso   1.00
C11    C     0.09764   0.32356   0.30221   0.00000  Uiso   1.00
C12    C     0.14114   0.30241   0.34365   0.00000  Uiso   1.00
C13    C     0.22181   0.27489   0.37773   0.00000  Uiso   1.00
C14    C     0.99949   0.29204   0.49828   0.00000  Uiso   1.00
C15    C     0.98271   0.34717   0.50668   0.00000  Uiso   1.00
C16    C     0.96773   0.37144   0.59516   0.00000  Uiso   1.00
C17    C     0.95376   0.42199   0.58696   0.00000  Uiso   1.00
C18    C     0.96482   0.26775   0.41952   0.00000  Uiso   1.00
C19    C     0.93481   0.22524   0.43471   0.00000  Uiso   1.00
C20    C     0.90579   0.20893   0.35313   0.00000  Uiso   1.00
C21    C     0.05218   0.29315   0.45086   0.00000  Uiso   1.00
C22    C     0.09562   0.27198   0.49239   0.00000  Uiso   1.00
C23    C     0.14014   0.27704   0.43718   0.00000  Uiso   1.00
H24    H     0.00208   0.35838   0.25370   0.00000  Uiso   1.00
H25    H     0.97051   0.44261   0.33271   0.00000  Uiso   1.00
H26    H     0.93761   0.29643   0.17229   0.00000  Uiso   1.00
H27    H     0.09839   0.34316   0.22996   0.00000  Uiso   1.00
H28    H     0.93506   0.52481   0.46147   0.00000  Uiso   1.00
H29    H     0.86569   0.21658   0.12320   0.00000  Uiso   1.00
H30    H     0.20473   0.31512   0.24481   0.00000  Uiso   1.00
H31    H     0.99872   0.27232   0.57098   0.00000  Uiso   1.00
H32    H     0.96697   0.35183   0.66740   0.00000  Uiso   1.00
H33    H     0.93406   0.20565   0.50697   0.00000  Uiso   1.00
H34    H     0.09484   0.25238   0.56464   0.00000  Uiso   1.00
H35    H     0.93218   0.45114   0.73312   0.00000  Uiso   1.00
H36    H     0.86281   0.14290   0.39484   0.00000  Uiso   1.00
H37    H     0.20185   0.24144   0.51646   0.00000  Uiso   1.00
O38    O     0.91277   0.54183   0.65500   0.00000  Uiso   1.00
O39    O     0.82177   0.13743   0.21119   0.00000  Uiso   1.00
O40    O     0.26658   0.26671   0.37074   0.00000  Uiso   1.00
N41    N     0.93875   0.49657   0.51218   0.00000  Uiso   1.00
N42    N     0.87388   0.20839   0.19591   0.00000  Uiso   1.00
N43    N     0.19085   0.30050   0.30960   0.00000  Uiso   1.00
N44    N     0.93720   0.45692   0.65835   0.00000  Uiso   1.00
N45    N     0.87234   0.16874   0.34209   0.00000  Uiso   1.00
N46    N     0.18931   0.26086   0.45577   0.00000  Uiso   1.00
C47    C     0.50131   0.83867   0.82639   0.00000  Uiso   1.00
C48    C     0.48370   0.87250   0.91332   0.00000  Uiso   1.00
C49    C     0.46974   0.92302   0.90498   0.00000  Uiso   1.00
C50    C     0.45475   0.94736   0.99342   0.00000  Uiso   1.00
C51    C     0.42752   0.00374   0.11418   0.00000  Uiso   1.00
C52    C     0.46581   0.79308   0.82616   0.00000  Uiso   1.00
C53    C     0.43683   0.77683   0.74453   0.00000  Uiso   1.00
C54    C     0.40678   0.73430   0.75960   0.00000  Uiso   1.00
C55    C     0.35182   0.66736   0.74502   0.00000  Uiso   1.00
C56    C     0.55317   0.81847   0.85749   0.00000  Uiso   1.00
C57    C     0.59764   0.82356   0.80221   0.00000  Uiso   1.00
C58    C     0.64114   0.80241   0.84365   0.00000  Uiso   1.00
C59    C     0.72181   0.77489   0.87773   0.00000  Uiso   1.00
C60    C     0.49949   0.79204   0.99828   0.00000  Uiso   1.00
C61    C     0.48271   0.84717   0.00668   0.00000  Uiso   1.00
C62    C     0.46773   0.87144   0.09516   0.00000  Uiso   1.00
C63    C     0.45376   0.92199   0.08696   0.00000  Uiso   1.00
C64    C     0.46482   0.76775   0.91952   0.00000  Uiso   1.00
C65    C     0.43481   0.72524   0.93471   0.00000  Uiso   1.00
C66    C     0.40579   0.70893   0.85313   0.00000  Uiso   1.00
C67    C     0.55218   0.79315   0.95086   0.00000  Uiso   1.00
C68    C     0.59562   0.77198   0.99239   0.00000  Uiso   1.00
C69    C     0.64014   0.77704   0.93718   0.00000  Uiso   1.00
H70    H     0.50208   0.85838   0.75370   0.00000  Uiso   1.00
H71    H     0.47051   0.94261   0.83271   0.00000  Uiso   1.00
H72    H     0.43761   0.79643   0.67229   0.00000  Uiso   1.00
H73    H     0.59839   0.84316   0.72996   0.00000  Uiso   1.00
H74    H     0.43506   0.02481   0.96147   0.00000  Uiso   1.00
H75    H     0.36569   0.71658   0.62320   0.00000  Uiso   1.00
H76    H     0.70473   0.81512   0.74481   0.00000  Uiso   1.00
H77    H     0.49872   0.77232   0.07098   0.00000  Uiso   1.00
H78    H     0.46697   0.85183   0.16740   0.00000  Uiso   1.00
H79    H     0.43406   0.70565   0.00697   0.00000  Uiso   1.00
H80    H     0.59484   0.75238   0.06464   0.00000  Uiso   1.00
H81    H     0.43218   0.95114   0.23312   0.00000  Uiso   1.00
H82    H     0.36281   0.64290   0.89484   0.00000  Uiso   1.00
H83    H     0.70185   0.74144   0.01646   0.00000  Uiso   1.00
O84    O     0.41277   0.04183   0.15500   0.00000  Uiso   1.00
O85    O     0.32177   0.63743   0.71119   0.00000  Uiso   1.00
O86    O     0.76658   0.76671   0.87074   0.00000  Uiso   1.00
N87    N     0.43875   0.99657   0.01218   0.00000  Uiso   1.00
N88    N     0.37388   0.70839   0.69591   0.00000  Uiso   1.00
N89    N     0.69085   0.80050   0.80960   0.00000  Uiso   1.00
N90    N     0.43720   0.95692   0.15835   0.00000  Uiso   1.00
N91    N     0.37234   0.66874   0.84209   0.00000  Uiso   1.00
N92    N     0.68931   0.76086   0.95577   0.00000  Uiso   1.00
C93    C     0.49869   0.16133   0.82639   0.00000  Uiso   1.00
C94    C     0.51630   0.12750   0.91332   0.00000  Uiso   1.00
C95    C     0.53026   0.07698   0.90498   0.00000  Uiso   1.00
C96    C     0.54525   0.05264   0.99342   0.00000  Uiso   1.00
C97    C     0.57248   0.99626   0.11418   0.00000  Uiso   1.00
C98    C     0.53419   0.20692   0.82616   0.00000  Uiso   1.00
C99    C     0.56317   0.22317   0.74453   0.00000  Uiso   1.00
C100   C     0.59322   0.26570   0.75960   0.00000  Uiso   1.00
C101   C     0.64818   0.33264   0.74502   0.00000  Uiso   1.00
C102   C     0.44683   0.18153   0.85749   0.00000  Uiso   1.00
C103   C     0.40236   0.17644   0.80221   0.00000  Uiso   1.00
C104   C     0.35886   0.19759   0.84365   0.00000  Uiso   1.00
C105   C     0.27819   0.22511   0.87773   0.00000  Uiso   1.00
C106   C     0.50051   0.20796   0.99828   0.00000  Uiso   1.00
C107   C     0.51729   0.15283   0.00668   0.00000  Uiso   1.00
C108   C     0.53227   0.12856   0.09516   0.00000  Uiso   1.00
C109   C     0.54624   0.07801   0.08696   0.00000  Uiso   1.00
C110   C     0.53518   0.23225   0.91952   0.00000  Uiso   1.00
C111   C     0.56519   0.27476   0.93471   0.00000  Uiso   1.00
C112   C     0.59421   0.29107   0.85313   0.00000  Uiso   1.00
C113   C     0.44782   0.20685   0.95086   0.00000  Uiso   1.00
C114   C     0.40438   0.22802   0.99239   0.00000  Uiso   1.00
C115   C     0.35986   0.22296   0.93718   0.00000  Uiso   1.00
H116   H     0.49792   0.14162   0.75370   0.00000  Uiso   1.00
H117   H     0.52949   0.05739   0.83271   0.00000  Uiso   1.00
H118   H     0.56239   0.20357   0.67229   0.00000  Uiso   1.00
H119   H     0.40161   0.15684   0.72996   0.00000  Uiso   1.00
H120   H     0.56494   0.97519   0.96147   0.00000  Uiso   1.00
H121   H     0.63431   0.28342   0.62320   0.00000  Uiso   1.00
H122   H     0.29527   0.18488   0.74481   0.00000  Uiso   1.00
H123   H     0.50128   0.22768   0.07098   0.00000  Uiso   1.00
H124   H     0.53303   0.14817   0.16740   0.00000  Uiso   1.00
H125   H     0.56594   0.29435   0.00697   0.00000  Uiso   1.00
H126   H     0.40516   0.24762   0.06464   0.00000  Uiso   1.00
H127   H     0.56782   0.04886   0.23312   0.00000  Uiso   1.00
H128   H     0.63719   0.35710   0.89484   0.00000  Uiso   1.00
H129   H     0.29815   0.25856   0.01646   0.00000  Uiso   1.00
O130   O     0.58723   0.95817   0.15500   0.00000  Uiso   1.00
O131   O     0.67823   0.36257   0.71119   0.00000  Uiso   1.00
O132   O     0.23342   0.23329   0.87074   0.00000  Uiso   1.00
N133   N     0.56125   0.00343   0.01218   0.00000  Uiso   1.00
N134   N     0.62612   0.29161   0.69591   0.00000  Uiso   1.00
N135   N     0.30915   0.19950   0.80960   0.00000  Uiso   1.00
N136   N     0.56280   0.04308   0.15835   0.00000  Uiso   1.00
N137   N     0.62766   0.33126   0.84209   0.00000  Uiso   1.00
N138   N     0.31069   0.23914   0.95577   0.00000  Uiso   1.00
C139   C     0.99869   0.66133   0.32639   0.00000  Uiso   1.00
C140   C     0.01630   0.62750   0.41332   0.00000  Uiso   1.00
C141   C     0.03026   0.57698   0.40498   0.00000  Uiso   1.00
C142   C     0.04525   0.55264   0.49342   0.00000  Uiso   1.00
C143   C     0.07248   0.49626   0.61418   0.00000  Uiso   1.00
C144   C     0.03419   0.70692   0.32616   0.00000  Uiso   1.00
C145   C     0.06317   0.72317   0.24453   0.00000  Uiso   1.00
C146   C     0.09322   0.76570   0.25960   0.00000  Uiso   1.00
C147   C     0.14818   0.83264   0.24502   0.00000  Uiso   1.00
C148   C     0.94683   0.68153   0.35749   0.00000  Uiso   1.00
C149   C     0.90236   0.67644   0.30221   0.00000  Uiso   1.00
C150   C     0.85886   0.69759   0.34365   0.00000  Uiso   1.00
C151   C     0.77819   0.72511   0.37773   0.00000  Uiso   1.00
C152   C     0.00051   0.70796   0.49828   0.00000  Uiso   1.00
C153   C     0.01729   0.65283   0.50668   0.00000  Uiso   1.00
C154   C     0.03227   0.62856   0.59516   0.00000  Uiso   1.00
C155   C     0.04624   0.57801   0.58696   0.00000  Uiso   1.00
C156   C     0.03518   0.73225   0.41952   0.00000  Uiso   1.00
C157   C     0.06519   0.77476   0.43471   0.00000  Uiso   1.00
C158   C     0.09421   0.79107   0.35313   0.00000  Uiso   1.00
C159   C     0.94782   0.70685   0.45086   0.00000  Uiso   1.00
C160   C     0.90438   0.72802   0.49239   0.00000  Uiso   1.00
C161   C     0.85986   0.72296   0.43718   0.00000  Uiso   1.00
H162   H     0.99792   0.64162   0.25370   0.00000  Uiso   1.00
H163   H     0.02949   0.55739   0.33271   0.00000  Uiso   1.00
H164   H     0.06239   0.70357   0.17229   0.00000  Uiso   1.00
H165   H     0.90161   0.65684   0.22996   0.00000  Uiso   1.00
H166   H     0.06494   0.47519   0.46147   0.00000  Uiso   1.00
H167   H     0.13431   0.78342   0.12320   0.00000  Uiso   1.00
H168   H     0.79527   0.68488   0.24481   0.00000  Uiso   1.00
H169   H     0.00128   0.72768   0.57098   0.00000  Uiso   1.00
H170   H     0.03303   0.64817   0.66740   0.00000  Uiso   1.00
H171   H     0.06594   0.79435   0.50697   0.00000  Uiso   1.00
H172   H     0.90516   0.74762   0.56464   0.00000  Uiso   1.00
H173   H     0.06782   0.54886   0.73312   0.00000  Uiso   1.00
H174   H     0.13719   0.85710   0.39484   0.00000  Uiso   1.00
H175   H     0.79815   0.75856   0.51646   0.00000  Uiso   1.00
O176   O     0.08723   0.45817   0.65500   0.00000  Uiso   1.00
O177   O     0.17823   0.86257   0.21119   0.00000  Uiso   1.00
O178   O     0.73342   0.73329   0.37074   0.00000  Uiso   1.00
N179   N     0.06125   0.50343   0.51218   0.00000  Uiso   1.00
N180   N     0.12612   0.79161   0.19591   0.00000  Uiso   1.00
N181   N     0.80915   0.69950   0.30960   0.00000  Uiso   1.00
N182   N     0.06280   0.54308   0.65835   0.00000  Uiso   1.00
N183   N     0.12766   0.83126   0.34209   0.00000  Uiso   1.00
N184   N     0.81069   0.73914   0.45577   0.00000  Uiso   1.00
C185   C     0.66133   0.50131   0.57639   0.00000  Uiso   1.00
C186   C     0.62750   0.48370   0.66332   0.00000  Uiso   1.00
C187   C     0.57698   0.46974   0.65498   0.00000  Uiso   1.00
C188   C     0.55264   0.45475   0.74342   0.00000  Uiso   1.00
C189   C     0.49626   0.42752   0.86418   0.00000  Uiso   1.00
C190   C     0.70692   0.46581   0.57616   0.00000  Uiso   1.00
C191   C     0.72317   0.43683   0.49453   0.00000  Uiso   1.00
C192   C     0.76570   0.40678   0.50960   0.00000  Uiso   1.00
C193   C     0.83264   0.35182   0.49502   0.00000  Uiso   1.00
C194   C     0.68153   0.55317   0.60749   0.00000  Uiso   1.00
C195   C     0.67644   0.59764   0.55221   0.00000  Uiso   1.00
C196   C     0.69759   0.64114   0.59365   0.00000  Uiso   1.00
C197   C     0.72511   0.72181   0.62773   0.00000  Uiso   1.00
C198   C     0.70796   0.49949   0.74828   0.00000  Uiso   1.00
C199   C     0.65283   0.48271   0.75668   0.00000  Uiso   1.00
C200   C     0.62856   0.46773   0.84516   0.00000  Uiso   1.00
C201   C     0.57801   0.45376   0.83696   0.00000  Uiso   1.00
C202   C     0.73225   0.46482   0.66952   0.00000  Uiso   1.00
C203   C     0.77476   0.43481   0.68471   0.00000  Uiso   1.00
C204   C     0.79107   0.40579   0.60313   0.00000  Uiso   1.00
C205   C     0.70685   0.55218   0.70086   0.00000  Uiso   1.00
C206   C     0.72802   0.59562   0.74239   0.00000  Uiso   1.00
C207   C     0.72296   0.64014   0.68718   0.00000  Uiso   1.00
H208   H     0.64162   0.50208   0.50370   0.00000  Uiso   1.00
H209   H     0.55739   0.47051   0.58271   0.00000  Uiso   1.00
H210   H     0.70357   0.43761   0.42229   0.00000  Uiso   1.00
H211   H     0.65684   0.59839   0.47996   0.00000  Uiso   1.00
H212   H     0.47519   0.43506   0.71147   0.00000  Uiso   1.00
H213   H     0.78342   0.36569   0.37320   0.00000  Uiso   1.00
H214   H     0.68488   0.70473   0.49481   0.00000  Uiso   1.00
H215   H     0.72768   0.49872   0.82098   0.00000  Uiso   1.00
H216   H     0.64817   0.46697   0.91740   0.00000  Uiso   1.00
H217   H     0.79435   0.43406   0.75697   0.00000  Uiso   1.00
H218   H     0.74762   0.59484   0.81464   0.00000  Uiso   1.00
H219   H     0.54886   0.43218   0.98312   0.00000  Uiso   1.00
H220   H     0.85710   0.36281   0.64484   0.00000  Uiso   1.00
H221   H     0.75856   0.70185   0.76646   0.00000  Uiso   1.00
O222   O     0.45817   0.41277   0.90500   0.00000  Uiso   1.00
O223   O     0.86257   0.32177   0.46119   0.00000  Uiso   1.00
O224   O     0.73329   0.76658   0.62074   0.00000  Uiso   1.00
N225   N     0.50343   0.43875   0.76218   0.00000  Uiso   1.00
N226   N     0.79161   0.37388   0.44591   0.00000  Uiso   1.00
N227   N     0.69950   0.69085   0.55960   0.00000  Uiso   1.00
N228   N     0.54308   0.43720   0.90835   0.00000  Uiso   1.00
N229   N     0.83126   0.37234   0.59209   0.00000  Uiso   1.00
N230   N     0.73914   0.68931   0.70577   0.00000  Uiso   1.00
C231   C     0.16133   0.00131   0.07639   0.00000  Uiso   1.00
C232   C     0.12750   0.98370   0.16332   0.00000  Uiso   1.00
C233   C     0.07698   0.96974   0.15498   0.00000  Uiso   1.00
C234   C     0.05264   0.95475   0.24342   0.00000  Uiso   1.00
C235   C     0.99626   0.92752   0.36418   0.00000  Uiso   1.00
C236   C     0.20692   0.96581   0.07616   0.00000  Uiso   1.00
C237   C     0.22317   0.93683   0.99453   0.00000  Uiso   1.00
C238   C     0.26570   0.90678   0.00960   0.00000  Uiso   1.00
C239   C     0.33264   0.85182   0.99502   0.00000  Uiso   1.00
C240   C     0.18153   0.05317   0.10749   0.00000  Uiso   1.00
C241   C     0.17644   0.09764   0.05221   0.00000  Uiso   1.00
C242   C     0.19759   0.14114   0.09365   0.00000  Uiso   1.00
C243   C     0.22511   0.22181   0.12773   0.00000  Uiso   1.00
C244   C     0.20796   0.99949   0.24828   0.00000  Uiso   1.00
C245   C     0.15283   0.98271   0.25668   0.00000  Uiso   1.00
C246   C     0.12856   0.96773   0.34516   0.00000  Uiso   1.00
C247   C     0.07801   0.95376   0.33696   0.00000  Uiso   1.00
C248   C     0.23225   0.96482   0.16952   0.00000  Uiso   1.00
C249   C     0.27476   0.93481   0.18471   0.00000  Uiso   1.00
C250   C     0.29107   0.90579   0.10313   0.00000  Uiso   1.00
C251   C     0.20685   0.05218   0.20086   0.00000  Uiso   1.00
C252   C     0.22802   0.09562   0.24239   0.00000  Uiso   1.00
C253   C     0.22296   0.14014   0.18718   0.00000  Uiso   1.00
H254   H     0.14162   0.00208   0.00370   0.00000  Uiso   1.00
H255   H     0.05739   0.97051   0.08271   0.00000  Uiso   1.00
H256   H     0.20357   0.93761   0.92229   0.00000  Uiso   1.00
H257   H     0.15684   0.09839   0.97996   0.00000  Uiso   1.00
H258   H     0.97519   0.93506   0.21147   0.00000  Uiso   1.00
H259   H     0.28342   0.86569   0.87320   0.00000  Uiso   1.00
H260   H     0.18488   0.20473   0.99481   0.00000  Uiso   1.00
H261   H     0.22768   0.99872   0.32098   0.00000  Uiso   1.00
H262   H     0.14817   0.96697   0.41740   0.00000  Uiso   1.00
H263   H     0.29435   0.93406   0.25697   0.00000  Uiso   1.00
H264   H     0.24762   0.09484   0.31464   0.00000  Uiso   1.00
H265   H     0.04886   0.93218   0.48312   0.00000  Uiso   1.00
H266   H     0.35710   0.86281   0.14484   0.00000  Uiso   1.00
H267   H     0.25856   0.20185   0.26646   0.00000  Uiso   1.00
O268   O     0.95817   0.91277   0.40500   0.00000  Uiso   1.00
O269   O     0.36257   0.82177   0.96119   0.00000  Uiso   1.00
O270   O     0.23329   0.26658   0.12074   0.00000  Uiso   1.00
N271   N     0.00343   0.93875   0.26218   0.00000  Uiso   1.00
N272   N     0.29161   0.87388   0.94591   0.00000  Uiso   1.00
N273   N     0.19950   0.19085   0.05960   0.00000  Uiso   1.00
N274   N     0.04308   0.93720   0.40835   0.00000  Uiso   1.00
N275   N     0.33126   0.87234   0.09209   0.00000  Uiso   1.00
N276   N     0.23914   0.18931   0.20577   0.00000  Uiso   1.00
C277   C     0.83867   0.99869   0.07639   0.00000  Uiso   1.00
C278   C     0.87250   0.01630   0.16332   0.00000  Uiso   1.00
C279   C     0.92302   0.03026   0.15498   0.00000  Uiso   1.00
C280   C     0.94736   0.04525   0.24342   0.00000  Uiso   1.00
C281   C     0.00374   0.07248   0.36418   0.00000  Uiso   1.00
C282   C     0.79308   0.03419   0.07616   0.00000  Uiso   1.00
C283   C     0.77683   0.06317   0.99453   0.00000  Uiso   1.00
C284   C     0.73430   0.09322   0.00960   0.00000  Uiso   1.00
C285   C     0.66736   0.14818   0.99502   0.00000  Uiso   1.00
C286   C     0.81847   0.94683   0.10749   0.00000  Uiso   1.00
C287   C     0.82356   0.90236   0.05221   0.00000  Uiso   1.00
C288   C     0.80241   0.85886   0.09365   0.00000  Uiso   1.00
C289   C     0.77489   0.77819   0.12773   0.00000  Uiso   1.00
C290   C     0.79204   0.00051   0.24828   0.00000  Uiso   1.00
C291   C     0.84717   0.01729   0.25668   0.00000  Uiso   1.00
C292   C     0.87144   0.03227   0.34516   0.00000  Uiso   1.00
C293   C     0.92199   0.04624   0.33696   0.00000  Uiso   1.00
C294   C     0.76775   0.03518   0.16952   0.00000  Uiso   1.00
C295   C     0.72524   0.06519   0.18471   0.00000  Uiso   1.00
C296   C     0.70893   0.09421   0.10313   0.00000  Uiso   1.00
C297   C     0.79315   0.94782   0.20086   0.00000  Uiso   1.00
C298   C     0.77198   0.90438   0.24239   0.00000  Uiso   1.00
C299   C     0.77704   0.85986   0.18718   0.00000  Uiso   1.00
H300   H     0.85838   0.99792   0.00370   0.00000  Uiso   1.00
H301   H     0.94261   0.02949   0.08271   0.00000  Uiso   1.00
H302   H     0.79643   0.06239   0.92229   0.00000  Uiso   1.00
H303   H     0.84316   0.90161   0.97996   0.00000  Uiso   1.00
H304   H     0.02481   0.06494   0.21147   0.00000  Uiso   1.00
H305   H     0.71658   0.13431   0.87320   0.00000  Uiso   1.00
H306   H     0.81512   0.79527   0.99481   0.00000  Uiso   1.00
H307   H     0.77232   0.00128   0.32098   0.00000  Uiso   1.00
H308   H     0.85183   0.03303   0.41740   0.00000  Uiso   1.00
H309   H     0.70565   0.06594   0.25697   0.00000  Uiso   1.00
H310   H     0.75238   0.90516   0.31464   0.00000  Uiso   1.00
H311   H     0.95114   0.06782   0.48312   0.00000  Uiso   1.00
H312   H     0.64290   0.13719   0.14484   0.00000  Uiso   1.00
H313   H     0.74144   0.79815   0.26646   0.00000  Uiso   1.00
O314   O     0.04183   0.08723   0.40500   0.00000  Uiso   1.00
O315   O     0.63743   0.17823   0.96119   0.00000  Uiso   1.00
O316   O     0.76671   0.73342   0.12074   0.00000  Uiso   1.00
N317   N     0.99657   0.06125   0.26218   0.00000  Uiso   1.00
N318   N     0.70839   0.12612   0.94591   0.00000  Uiso   1.00
N319   N     0.80050   0.80915   0.05960   0.00000  Uiso   1.00
N320   N     0.95692   0.06280   0.40835   0.00000  Uiso   1.00
N321   N     0.66874   0.12766   0.09209   0.00000  Uiso   1.00
N322   N     0.76086   0.81069   0.20577   0.00000  Uiso   1.00
C323   C     0.33867   0.49869   0.57639   0.00000  Uiso   1.00
C324   C     0.37250   0.51630   0.66332   0.00000  Uiso   1.00
C325   C     0.42302   0.53026   0.65498   0.00000  Uiso   1.00
C326   C     0.44736   0.54525   0.74342   0.00000  Uiso   1.00
C327   C     0.50374   0.57248   0.86418   0.00000  Uiso   1.00
C328   C     0.29308   0.53419   0.57616   0.00000  Uiso   1.00
C329   C     0.27683   0.56317   0.49453   0.00000  Uiso   1.00
C330   C     0.23430   0.59322   0.50960   0.00000  Uiso   1.00
C331   C     0.16736   0.64818   0.49502   0.00000  Uiso   1.00
C332   C     0.31847   0.44683   0.60749   0.00000  Uiso   1.00
C333   C     0.32356   0.40236   0.55221   0.00000  Uiso   1.00
C334   C     0.30241   0.35886   0.59365   0.00000  Uiso   1.00
C335   C     0.27489   0.27819   0.62773   0.00000  Uiso   1.00
C336   C     0.29204   0.50051   0.74828   0.00000  Uiso   1.00
C337   C     0.34717   0.51729   0.75668   0.00000  Uiso   1.00
C338   C     0.37144   0.53227   0.84516   0.00000  Uiso   1.00
C339   C     0.42199   0.54624   0.83696   0.00000  Uiso   1.00
C340   C     0.26775   0.53518   0.66952   0.00000  Uiso   1.00
C341   C     0.22524   0.56519   0.68471   0.00000  Uiso   1.00
C342   C     0.20893   0.59421   0.60313   0.00000  Uiso   1.00
C343   C     0.29315   0.44782   0.70086   0.00000  Uiso   1.00
C344   C     0.27198   0.40438   0.74239   0.00000  Uiso   1.00
C345   C     0.27704   0.35986   0.68718   0.00000  Uiso   1.00
H346   H     0.35838   0.49792   0.50370   0.00000  Uiso   1.00
H347   H     0.44261   0.52949   0.58271   0.00000  Uiso   1.00
H348   H     0.29643   0.56239   0.42229   0.00000  Uiso   1.00
H349   H     0.34316   0.40161   0.47996   0.00000  Uiso   1.00
H350   H     0.52481   0.56494   0.71147   0.00000  Uiso   1.00
H351   H     0.21658   0.63431   0.37320   0.00000  Uiso   1.00
H352   H     0.31512   0.29527   0.49481   0.00000  Uiso   1.00
H353   H     0.27232   0.50128   0.82098   0.00000  Uiso   1.00
H354   H     0.35183   0.53303   0.91740   0.00000  Uiso   1.00
H355   H     0.20565   0.56594   0.75697   0.00000  Uiso   1.00
H356   H     0.25238   0.40516   0.81464   0.00000  Uiso   1.00
H357   H     0.45114   0.56782   0.98312   0.00000  Uiso   1.00
H358   H     0.14290   0.63719   0.64484   0.00000  Uiso   1.00
H359   H     0.24144   0.29815   0.76646   0.00000  Uiso   1.00
O360   O     0.54183   0.58723   0.90500   0.00000  Uiso   1.00
O361   O     0.13743   0.67823   0.46119   0.00000  Uiso   1.00
O362   O     0.26671   0.23342   0.62074   0.00000  Uiso   1.00
N363   N     0.49657   0.56125   0.76218   0.00000  Uiso   1.00
N364   N     0.20839   0.62612   0.44591   0.00000  Uiso   1.00
N365   N     0.30050   0.30915   0.55960   0.00000  Uiso   1.00
N366   N     0.45692   0.56280   0.90835   0.00000  Uiso   1.00
N367   N     0.16874   0.62766   0.59209   0.00000  Uiso   1.00
N368   N     0.26086   0.31069   0.70577   0.00000  Uiso   1.00
C369   C     0.99869   0.16133   0.92361   0.00000  Uiso   1.00
C370   C     0.01630   0.12750   0.83668   0.00000  Uiso   1.00
C371   C     0.03026   0.07698   0.84502   0.00000  Uiso   1.00
C372   C     0.04525   0.05264   0.75658   0.00000  Uiso   1.00
C373   C     0.07248   0.99626   0.63582   0.00000  Uiso   1.00
C374   C     0.03419   0.20692   0.92384   0.00000  Uiso   1.00
C375   C     0.06317   0.22317   0.00547   0.00000  Uiso   1.00
C376   C     0.09322   0.26570   0.99040   0.00000  Uiso   1.00
C377   C     0.14818   0.33264   0.00498   0.00000  Uiso   1.00
C378   C     0.94683   0.18153   0.89251   0.00000  Uiso   1.00
C379   C     0.90236   0.17644   0.94779   0.00000  Uiso   1.00
C380   C     0.85886   0.19759   0.90635   0.00000  Uiso   1.00
C381   C     0.77819   0.22511   0.87227   0.00000  Uiso   1.00
C382   C     0.00051   0.20796   0.75172   0.00000  Uiso   1.00
C383   C     0.01729   0.15283   0.74332   0.00000  Uiso   1.00
C384   C     0.03227   0.12856   0.65484   0.00000  Uiso   1.00
C385   C     0.04624   0.07801   0.66304   0.00000  Uiso   1.00
C386   C     0.03518   0.23225   0.83048   0.00000  Uiso   1.00
C387   C     0.06519   0.27476   0.81529   0.00000  Uiso   1.00
C388   C     0.09421   0.29107   0.89687   0.00000  Uiso   1.00
C389   C     0.94782   0.20685   0.79914   0.00000  Uiso   1.00
C390   C     0.90438   0.22802   0.75761   0.00000  Uiso   1.00
C391   C     0.85986   0.22296   0.81282   0.00000  Uiso   1.00
H392   H     0.99792   0.14162   0.99630   0.00000  Uiso   1.00
H393   H     0.02949   0.05739   0.91729   0.00000  Uiso   1.00
H394   H     0.06239   0.20357   0.07771   0.00000  Uiso   1.00
H395   H     0.90161   0.15684   0.02004   0.00000  Uiso   1.00
H396   H     0.06494   0.97519   0.78853   0.00000  Uiso   1.00
H397   H     0.13431   0.28342   0.12680   0.00000  Uiso   1.00
H398   H     0.79527   0.18488   0.00519   0.00000  Uiso   1.00
H399   H     0.00128   0.22768   0.67902   0.00000  Uiso   1.00
H400   H     0.03303   0.14817   0.58260   0.00000  Uiso   1.00
H401   H     0.06594   0.29435   0.74303   0.00000  Uiso   1.00
H402   H     0.90516   0.24762   0.68536   0.00000  Uiso   1.00
H403   H     0.06782   0.04886   0.51688   0.00000  Uiso   1.00
H404   H     0.13719   0.35710   0.85516   0.00000  Uiso   1.00
H405   H     0.79815   0.25856   0.73354   0.00000  Uiso   1.00
O406   O     0.08723   0.95817   0.59500   0.00000  Uiso   1.00
O407   O     0.17823   0.36257   0.03881   0.00000  Uiso   1.00
O408   O     0.73342   0.23329   0.87926   0.00000  Uiso   1.00
N409   N     0.06125   0.00343   0.73782   0.00000  Uiso   1.00
N410   N     0.12612   0.29161   0.05409   0.00000  Uiso   1.00
N411   N     0.80915   0.19950   0.94040   0.00000  Uiso   1.00
N412   N     0.06280   0.04308   0.59165   0.00000  Uiso   1.00
N413   N     0.12766   0.33126   0.90791   0.00000  Uiso   1.00
N414   N     0.81069   0.23914   0.79423   0.00000  Uiso   1.00
C415   C     0.49869   0.66133   0.42361   0.00000  Uiso   1.00
C416   C     0.51630   0.62750   0.33668   0.00000  Uiso   1.00
C417   C     0.53026   0.57698   0.34502   0.00000  Uiso   1.00
C418   C     0.54525   0.55264   0.25658   0.00000  Uiso   1.00
C419   C     0.57248   0.49626   0.13582   0.00000  Uiso   1.00
C420   C     0.53419   0.70692   0.42384   0.00000  Uiso   1.00
C421   C     0.56317   0.72317   0.50547   0.00000  Uiso   1.00
C422   C     0.59322   0.76570   0.49040   0.00000  Uiso   1.00
C423   C     0.64818   0.83264   0.50498   0.00000  Uiso   1.00
C424   C     0.44683   0.68153   0.39251   0.00000  Uiso   1.00
C425   C     0.40236   0.67644   0.44779   0.00000  Uiso   1.00
C426   C     0.35886   0.69759   0.40635   0.00000  Uiso   1.00
C427   C     0.27819   0.72511   0.37227   0.00000  Uiso   1.00
C428   C     0.50051   0.70796   0.25172   0.00000  Uiso   1.00
C429   C     0.51729   0.65283   0.24332   0.00000  Uiso   1.00
C430   C     0.53227   0.62856   0.15484   0.00000  Uiso   1.00
C431   C     0.54624   0.57801   0.16304   0.00000  Uiso   1.00
C432   C     0.53518   0.73225   0.33048   0.00000  Uiso   1.00
C433   C     0.56519   0.77476   0.31529   0.00000  Uiso   1.00
C434   C     0.59421   0.79107   0.39687   0.00000  Uiso   1.00
C435   C     0.44782   0.70685   0.29914   0.00000  Uiso   1.00
C436   C     0.40438   0.72802   0.25761   0.00000  Uiso   1.00
C437   C     0.35986   0.72296   0.31282   0.00000  Uiso   1.00
H438   H     0.49792   0.64162   0.49630   0.00000  Uiso   1.00
H439   H     0.52949   0.55739   0.41729   0.00000  Uiso   1.00
H440   H     0.56239   0.70357   0.57771   0.00000  Uiso   1.00
H441   H     0.40161   0.65684   0.52004   0.00000  Uiso   1.00
H442   H     0.56494   0.47519   0.28853   0.00000  Uiso   1.00
H443   H     0.63431   0.78342   0.62680   0.00000  Uiso   1.00
H444   H     0.29527   0.68488   0.50519   0.00000  Uiso   1.00
H445   H     0.50128   0.72768   0.17902   0.00000  Uiso   1.00
H446   H     0.53303   0.64817   0.08260   0.00000  Uiso   1.00
H447   H     0.56594   0.79435   0.24303   0.00000  Uiso   1.00
H448   H     0.40516   0.74762   0.18536   0.00000  Uiso   1.00
H449   H     0.56782   0.54886   0.01688   0.00000  Uiso   1.00
H450   H     0.63719   0.85710   0.35516   0.00000  Uiso   1.00
H451   H     0.29815   0.75856   0.23354   0.00000  Uiso   1.00
O452   O     0.58723   0.45817   0.09500   0.00000  Uiso   1.00
O453   O     0.67823   0.86257   0.53881   0.00000  Uiso   1.00
O454   O     0.23342   0.73329   0.37926   0.00000  Uiso   1.00
N455   N     0.56125   0.50343   0.23782   0.00000  Uiso   1.00
N456   N     0.62612   0.79161   0.55409   0.00000  Uiso   1.00
N457   N     0.30915   0.69950   0.44040   0.00000  Uiso   1.00
N458   N     0.56280   0.54308   0.09165   0.00000  Uiso   1.00
N459   N     0.62766   0.83126   0.40791   0.00000  Uiso   1.00
N460   N     0.31069   0.73914   0.29423   0.00000  Uiso   1.00
C461   C     0.50131   0.33867   0.42361   0.00000  Uiso   1.00
C462   C     0.48370   0.37250   0.33668   0.00000  Uiso   1.00
C463   C     0.46974   0.42302   0.34502   0.00000  Uiso   1.00
C464   C     0.45475   0.44736   0.25658   0.00000  Uiso   1.00
C465   C     0.42752   0.50374   0.13582   0.00000  Uiso   1.00
C466   C     0.46581   0.29308   0.42384   0.00000  Uiso   1.00
C467   C     0.43683   0.27683   0.50547   0.00000  Uiso   1.00
C468   C     0.40678   0.23430   0.49040   0.00000  Uiso   1.00
C469   C     0.35182   0.16736   0.50498   0.00000  Uiso   1.00
C470   C     0.55317   0.31847   0.39251   0.00000  Uiso   1.00
C471   C     0.59764   0.32356   0.44779   0.00000  Uiso   1.00
C472   C     0.64114   0.30241   0.40635   0.00000  Uiso   1.00
C473   C     0.72181   0.27489   0.37227   0.00000  Uiso   1.00
C474   C     0.49949   0.29204   0.25172   0.00000  Uiso   1.00
C475   C     0.48271   0.34717   0.24332   0.00000  Uiso   1.00
C476   C     0.46773   0.37144   0.15484   0.00000  Uiso   1.00
C477   C     0.45376   0.42199   0.16304   0.00000  Uiso   1.00
C478   C     0.46482   0.26775   0.33048   0.00000  Uiso   1.00
C479   C     0.43481   0.22524   0.31529   0.00000  Uiso   1.00
C480   C     0.40579   0.20893   0.39687   0.00000  Uiso   1.00
C481   C     0.55218   0.29315   0.29914   0.00000  Uiso   1.00
C482   C     0.59562   0.27198   0.25761   0.00000  Uiso   1.00
C483   C     0.64014   0.27704   0.31282   0.00000  Uiso   1.00
H484   H     0.50208   0.35838   0.49630   0.00000  Uiso   1.00
H485   H     0.47051   0.44261   0.41729   0.00000  Uiso   1.00
H486   H     0.43761   0.29643   0.57771   0.00000  Uiso   1.00
H487   H     0.59839   0.34316   0.52004   0.00000  Uiso   1.00
H488   H     0.43506   0.52481   0.28853   0.00000  Uiso   1.00
H489   H     0.36569   0.21658   0.62680   0.00000  Uiso   1.00
H490   H     0.70473   0.31512   0.50519   0.00000  Uiso   1.00
H491   H     0.49872   0.27232   0.17902   0.00000  Uiso   1.00
H492   H     0.46697   0.35183   0.08260   0.00000  Uiso   1.00
H493   H     0.43406   0.20565   0.24303   0.00000  Uiso   1.00
H494   H     0.59484   0.25238   0.18536   0.00000  Uiso   1.00
H495   H     0.43218   0.45114   0.01688   0.00000  Uiso   1.00
H496   H     0.36281   0.14290   0.35516   0.00000  Uiso   1.00
H497   H     0.70185   0.24144   0.23354   0.00000  Uiso   1.00
O498   O     0.41277   0.54183   0.09500   0.00000  Uiso   1.00
O499   O     0.32177   0.13743   0.53881   0.00000  Uiso   1.00
O500   O     0.76658   0.26671   0.37926   0.00000  Uiso   1.00
N501   N     0.43875   0.49657   0.23782   0.00000  Uiso   1.00
N502   N     0.37388   0.20839   0.55409   0.00000  Uiso   1.00
N503   N     0.69085   0.30050   0.44040   0.00000  Uiso   1.00
N504   N     0.43720   0.45692   0.09165   0.00000  Uiso   1.00
N505   N     0.37234   0.16874   0.40791   0.00000  Uiso   1.00
N506   N     0.68931   0.26086   0.29423   0.00000  Uiso   1.00
C507   C     0.00131   0.83867   0.92361   0.00000  Uiso   1.00
C508   C     0.98370   0.87250   0.83668   0.00000  Uiso   1.00
C509   C     0.96974   0.92302   0.84502   0.00000  Uiso   1.00
C510   C     0.95475   0.94736   0.75658   0.00000  Uiso   1.00
C511   C     0.92752   0.00374   0.63582   0.00000  Uiso   1.00
C512   C     0.96581   0.79308   0.92384   0.00000  Uiso   1.00
C513   C     0.93683   0.77683   0.00547   0.00000  Uiso   1.00
C514   C     0.90678   0.73430   0.99040   0.00000  Uiso   1.00
C515   C     0.85182   0.66736   0.00498   0.00000  Uiso   1.00
C516   C     0.05317   0.81847   0.89251   0.00000  Uiso   1.00
C517   C     0.09764   0.82356   0.94779   0.00000  Uiso   1.00
C518   C     0.14114   0.80241   0.90635   0.00000  Uiso   1.00
C519   C     0.22181   0.77489   0.87227   0.00000  Uiso   1.00
C520   C     0.99949   0.79204   0.75172   0.00000  Uiso   1.00
C521   C     0.98271   0.84717   0.74332   0.00000  Uiso   1.00
C522   C     0.96773   0.87144   0.65484   0.00000  Uiso   1.00
C523   C     0.95376   0.92199   0.66304   0.00000  Uiso   1.00
C524   C     0.96482   0.76775   0.83048   0.00000  Uiso   1.00
C525   C     0.93481   0.72524   0.81529   0.00000  Uiso   1.00
C526   C     0.90579   0.70893   0.89687   0.00000  Uiso   1.00
C527   C     0.05218   0.79315   0.79914   0.00000  Uiso   1.00
C528   C     0.09562   0.77198   0.75761   0.00000  Uiso   1.00
C529   C     0.14014   0.77704   0.81282   0.00000  Uiso   1.00
H530   H     0.00208   0.85838   0.99630   0.00000  Uiso   1.00
H531   H     0.97051   0.94261   0.91729   0.00000  Uiso   1.00
H532   H     0.93761   0.79643   0.07771   0.00000  Uiso   1.00
H533   H     0.09839   0.84316   0.02004   0.00000  Uiso   1.00
H534   H     0.93506   0.02481   0.78853   0.00000  Uiso   1.00
H535   H     0.86569   0.71658   0.12680   0.00000  Uiso   1.00
H536   H     0.20473   0.81512   0.00519   0.00000  Uiso   1.00
H537   H     0.99872   0.77232   0.67902   0.00000  Uiso   1.00
H538   H     0.96697   0.85183   0.58260   0.00000  Uiso   1.00
H539   H     0.93406   0.70565   0.74303   0.00000  Uiso   1.00
H540   H     0.09484   0.75238   0.68536   0.00000  Uiso   1.00
H541   H     0.93218   0.95114   0.51688   0.00000  Uiso   1.00
H542   H     0.86281   0.64290   0.85516   0.00000  Uiso   1.00
H543   H     0.20185   0.74144   0.73354   0.00000  Uiso   1.00
O544   O     0.91277   0.04183   0.59500   0.00000  Uiso   1.00
O545   O     0.82177   0.63743   0.03881   0.00000  Uiso   1.00
O546   O     0.26658   0.76671   0.87926   0.00000  Uiso   1.00
N547   N     0.93875   0.99657   0.73782   0.00000  Uiso   1.00
N548   N     0.87388   0.70839   0.05409   0.00000  Uiso   1.00
N549   N     0.19085   0.80050   0.94040   0.00000  Uiso   1.00
N550   N     0.93720   0.95692   0.59165   0.00000  Uiso   1.00
N551   N     0.87234   0.66874   0.90791   0.00000  Uiso   1.00
N552   N     0.18931   0.76086   0.79423   0.00000  Uiso   1.00
C553   C     0.33867   0.99869   0.67361   0.00000  Uiso   1.00
C554   C     0.37250   0.01630   0.58668   0.00000  Uiso   1.00
C555   C     0.42302   0.03026   0.59502   0.00000  Uiso   1.00
C556   C     0.44736   0.04525   0.50658   0.00000  Uiso   1.00
C557   C     0.50374   0.07248   0.38582   0.00000  Uiso   1.00
C558   C     0.29308   0.03419   0.67384   0.00000  Uiso   1.00
C559   C     0.27683   0.06317   0.75547   0.00000  Uiso   1.00
C560   C     0.23430   0.09322   0.74040   0.00000  Uiso   1.00
C561   C     0.16736   0.14818   0.75498   0.00000  Uiso   1.00
C562   C     0.31847   0.94683   0.64251   0.00000  Uiso   1.00
C563   C     0.32356   0.90236   0.69779   0.00000  Uiso   1.00
C564   C     0.30241   0.85886   0.65635   0.00000  Uiso   1.00
C565   C     0.27489   0.77819   0.62227   0.00000  Uiso   1.00
C566   C     0.29204   0.00051   0.50172   0.00000  Uiso   1.00
C567   C     0.34717   0.01729   0.49332   0.00000  Uiso   1.00
C568   C     0.37144   0.03227   0.40484   0.00000  Uiso   1.00
C569   C     0.42199   0.04624   0.41304   0.00000  Uiso   1.00
C570   C     0.26775   0.03518   0.58048   0.00000  Uiso   1.00
C571   C     0.22524   0.06519   0.56529   0.00000  Uiso   1.00
C572   C     0.20893   0.09421   0.64687   0.00000  Uiso   1.00
C573   C     0.29315   0.94782   0.54914   0.00000  Uiso   1.00
C574   C     0.27198   0.90438   0.50761   0.00000  Uiso   1.00
C575   C     0.27704   0.85986   0.56282   0.00000  Uiso   1.00
H576   H     0.35838   0.99792   0.74630   0.00000  Uiso   1.00
H577   H     0.44261   0.02949   0.66729   0.00000  Uiso   1.00
H578   H     0.29643   0.06239   0.82771   0.00000  Uiso   1.00
H579   H     0.34316   0.90161   0.77004   0.00000  Uiso   1.00
H580   H     0.52481   0.06494   0.53853   0.00000  Uiso   1.00
H581   H     0.21658   0.13431   0.87680   0.00000  Uiso   1.00
H582   H     0.31512   0.79527   0.75519   0.00000  Uiso   1.00
H583   H     0.27232   0.00128   0.42902   0.00000  Uiso   1.00
H584   H     0.35183   0.03303   0.33260   0.00000  Uiso   1.00
H585   H     0.20565   0.06594   0.49303   0.00000  Uiso   1.00
H586   H     0.25238   0.90516   0.43536   0.00000  Uiso   1.00
H587   H     0.45114   0.06782   0.26688   0.00000  Uiso   1.00
H588   H     0.14290   0.13719   0.60516   0.00000  Uiso   1.00
H589   H     0.24144   0.79815   0.48354   0.00000  Uiso   1.00
O590   O     0.54183   0.08723   0.34500   0.00000  Uiso   1.00
O591   O     0.13743   0.17823   0.78881   0.00000  Uiso   1.00
O592   O     0.26671   0.73342   0.62926   0.00000  Uiso   1.00
N593   N     0.49657   0.06125   0.48782   0.00000  Uiso   1.00
N594   N     0.20839   0.12612   0.80409   0.00000  Uiso   1.00
N595   N     0.30050   0.80915   0.69040   0.00000  Uiso   1.00
N596   N     0.45692   0.06280   0.34165   0.00000  Uiso   1.00
N597   N     0.16874   0.12766   0.65791   0.00000  Uiso   1.00
N598   N     0.26086   0.81069   0.54423   0.00000  Uiso   1.00
C599   C     0.83867   0.49869   0.17361   0.00000  Uiso   1.00
C600   C     0.87250   0.51630   0.08668   0.00000  Uiso   1.00
C601   C     0.92302   0.53026   0.09502   0.00000  Uiso   1.00
C602   C     0.94736   0.54525   0.00658   0.00000  Uiso   1.00
C603   C     0.00374   0.57248   0.88582   0.00000  Uiso   1.00
C604   C     0.79308   0.53419   0.17384   0.00000  Uiso   1.00
C605   C     0.77683   0.56317   0.25547   0.00000  Uiso   1.00
C606   C     0.73430   0.59322   0.24040   0.00000  Uiso   1.00
C607   C     0.66736   0.64818   0.25498   0.00000  Uiso   1.00
C608   C     0.81847   0.44683   0.14251   0.00000  Uiso   1.00
C609   C     0.82356   0.40236   0.19779   0.00000  Uiso   1.00
C610   C     0.80241   0.35886   0.15635   0.00000  Uiso   1.00
C611   C     0.77489   0.27819   0.12227   0.00000  Uiso   1.00
C612   C     0.79204   0.50051   0.00172   0.00000  Uiso   1.00
C613   C     0.84717   0.51729   0.99332   0.00000  Uiso   1.00
C614   C     0.87144   0.53227   0.90484   0.00000  Uiso   1.00
C615   C     0.92199   0.54624   0.91304   0.00000  Uiso   1.00
C616   C     0.76775   0.53518   0.08048   0.00000  Uiso   1.00
C617   C     0.72524   0.56519   0.06529   0.00000  Uiso   1.00
C618   C     0.70893   0.59421   0.14687   0.00000  Uiso   1.00
C619   C     0.79315   0.44782   0.04914   0.00000  Uiso   1.00
C620   C     0.77198   0.40438   0.00761   0.00000  Uiso   1.00
C621   C     0.77704   0.35986   0.06282   0.00000  Uiso   1.00
H622   H     0.85838   0.49792   0.24630   0.00000  Uiso   1.00
H623   H     0.94261   0.52949   0.16729   0.00000  Uiso   1.00
H624   H     0.79643   0.56239   0.32771   0.00000  Uiso   1.00
H625   H     0.84316   0.40161   0.27004   0.00000  Uiso   1.00
H626   H     0.02481   0.56494   0.03853   0.00000  Uiso   1.00
H627   H     0.71658   0.63431   0.37680   0.00000  Uiso   1.00
H628   H     0.81512   0.29527   0.25519   0.00000  Uiso   1.00
H629   H     0.77232   0.50128   0.92902   0.00000  Uiso   1.00
H630   H     0.85183   0.53303   0.83260   0.00000  Uiso   1.00
H631   H     0.70565   0.56594   0.99303   0.00000  Uiso   1.00
H632   H     0.75238   0.40516   0.93536   0.00000  Uiso   1.00
H633   H     0.95114   0.56782   0.76688   0.00000  Uiso   1.00
H634   H     0.64290   0.63719   0.10516   0.00000  Uiso   1.00
H635   H     0.74144   0.29815   0.98354   0.00000  Uiso   1.00
O636   O     0.04183   0.58723   0.84500   0.00000  Uiso   1.00
O637   O     0.63743   0.67823   0.28881   0.00000  Uiso   1.00
O638   O     0.76671   0.23342   0.12926   0.00000  Uiso   1.00
N639   N     0.99657   0.56125   0.98782   0.00000  Uiso   1.00
N640   N     0.70839   0.62612   0.30409   0.00000  Uiso   1.00
N641   N     0.80050   0.30915   0.19040   0.00000  Uiso   1.00
N642   N     0.95692   0.56280   0.84165   0.00000  Uiso   1.00
N643   N     0.66874   0.62766   0.15791   0.00000  Uiso   1.00
N644   N     0.76086   0.31069   0.04423   0.00000  Uiso   1.00
C645   C     0.16133   0.50131   0.17361   0.00000  Uiso   1.00
C646   C     0.12750   0.48370   0.08668   0.00000  Uiso   1.00
C647   C     0.07698   0.46974   0.09502   0.00000  Uiso   1.00
C648   C     0.05264   0.45475   0.00658   0.00000  Uiso   1.00
C649   C     0.99626   0.42752   0.88582   0.00000  Uiso   1.00
C650   C     0.20692   0.46581   0.17384   0.00000  Uiso   1.00
C651   C     0.22317   0.43683   0.25547   0.00000  Uiso   1.00
C652   C     0.26570   0.40678   0.24040   0.00000  Uiso   1.00
C653   C     0.33264   0.35182   0.25498   0.00000  Uiso   1.00
C654   C     0.18153   0.55317   0.14251   0.00000  Uiso   1.00
C655   C     0.17644   0.59764   0.19779   0.00000  Uiso   1.00
C656   C     0.19759   0.64114   0.15635   0.00000  Uiso   1.00
C657   C     0.22511   0.72181   0.12227   0.00000  Uiso   1.00
C658   C     0.20796   0.49949   0.00172   0.00000  Uiso   1.00
C659   C     0.15283   0.48271   0.99332   0.00000  Uiso   1.00
C660   C     0.12856   0.46773   0.90484   0.00000  Uiso   1.00
C661   C     0.07801   0.45376   0.91304   0.00000  Uiso   1.00
C662   C     0.23225   0.46482   0.08048   0.00000  Uiso   1.00
C663   C     0.27476   0.43481   0.06529   0.00000  Uiso   1.00
C664   C     0.29107   0.40579   0.14687   0.00000  Uiso   1.00
C665   C     0.20685   0.55218   0.04914   0.00000  Uiso   1.00
C666   C     0.22802   0.59562   0.00761   0.00000  Uiso   1.00
C667   C     0.22296   0.64014   0.06282   0.00000  Uiso   1.00
H668   H     0.14162   0.50208   0.24630   0.00000  Uiso   1.00
H669   H     0.05739   0.47051   0.16729   0.00000  Uiso   1.00
H670   H     0.20357   0.43761   0.32771   0.00000  Uiso   1.00
H671   H     0.15684   0.59839   0.27004   0.00000  Uiso   1.00
H672   H     0.97519   0.43506   0.03853   0.00000  Uiso   1.00
H673   H     0.28342   0.36569   0.37680   0.00000  Uiso   1.00
H674   H     0.18488   0.70473   0.25519   0.00000  Uiso   1.00
H675   H     0.22768   0.49872   0.92902   0.00000  Uiso   1.00
H676   H     0.14817   0.46697   0.83260   0.00000  Uiso   1.00
H677   H     0.29435   0.43406   0.99303   0.00000  Uiso   1.00
H678   H     0.24762   0.59484   0.93536   0.00000  Uiso   1.00
H679   H     0.04886   0.43218   0.76688   0.00000  Uiso   1.00
H680   H     0.35710   0.36281   0.10516   0.00000  Uiso   1.00
H681   H     0.25856   0.70185   0.98354   0.00000  Uiso   1.00
O682   O     0.95817   0.41277   0.84500   0.00000  Uiso   1.00
O683   O     0.36257   0.32177   0.28881   0.00000  Uiso   1.00
O684   O     0.23329   0.76658   0.12926   0.00000  Uiso   1.00
N685   N     0.00343   0.43875   0.98782   0.00000  Uiso   1.00
N686   N     0.29161   0.37388   0.30409   0.00000  Uiso   1.00
N687   N     0.19950   0.69085   0.19040   0.00000  Uiso   1.00
N688   N     0.04308   0.43720   0.84165   0.00000  Uiso   1.00
N689   N     0.33126   0.37234   0.15791   0.00000  Uiso   1.00
N690   N     0.23914   0.68931   0.04423   0.00000  Uiso   1.00
C691   C     0.66133   0.00131   0.67361   0.00000  Uiso   1.00
C692   C     0.62750   0.98370   0.58668   0.00000  Uiso   1.00
C693   C     0.57698   0.96974   0.59502   0.00000  Uiso   1.00
C694   C     0.55264   0.95475   0.50658   0.00000  Uiso   1.00
C695   C     0.49626   0.92752   0.38582   0.00000  Uiso   1.00
C696   C     0.70692   0.96581   0.67384   0.00000  Uiso   1.00
C697   C     0.72317   0.93683   0.75547   0.00000  Uiso   1.00
C698   C     0.76570   0.90678   0.74040   0.00000  Uiso   1.00
C699   C     0.83264   0.85182   0.75498   0.00000  Uiso   1.00
C700   C     0.68153   0.05317   0.64251   0.00000  Uiso   1.00
C701   C     0.67644   0.09764   0.69779   0.00000  Uiso   1.00
C702   C     0.69759   0.14114   0.65635   0.00000  Uiso   1.00
C703   C     0.72511   0.22181   0.62227   0.00000  Uiso   1.00
C704   C     0.70796   0.99949   0.50172   0.00000  Uiso   1.00
C705   C     0.65283   0.98271   0.49332   0.00000  Uiso   1.00
C706   C     0.62856   0.96773   0.40484   0.00000  Uiso   1.00
C707   C     0.57801   0.95376   0.41304   0.00000  Uiso   1.00
C708   C     0.73225   0.96482   0.58048   0.00000  Uiso   1.00
C709   C     0.77476   0.93481   0.56529   0.00000  Uiso   1.00
C710   C     0.79107   0.90579   0.64687   0.00000  Uiso   1.00
C711   C     0.70685   0.05218   0.54914   0.00000  Uiso   1.00
C712   C     0.72802   0.09562   0.50761   0.00000  Uiso   1.00
C713   C     0.72296   0.14014   0.56282   0.00000  Uiso   1.00
H714   H     0.64162   0.00208   0.74630   0.00000  Uiso   1.00
H715   H     0.55739   0.97051   0.66729   0.00000  Uiso   1.00
H716   H     0.70357   0.93761   0.82771   0.00000  Uiso   1.00
H717   H     0.65684   0.09839   0.77004   0.00000  Uiso   1.00
H718   H     0.47519   0.93506   0.53853   0.00000  Uiso   1.00
H719   H     0.78342   0.86569   0.87680   0.00000  Uiso   1.00
H720   H     0.68488   0.20473   0.75519   0.00000  Uiso   1.00
H721   H     0.72768   0.99872   0.42902   0.00000  Uiso   1.00
H722   H     0.64817   0.96697   0.33260   0.00000  Uiso   1.00
H723   H     0.79435   0.93406   0.49303   0.00000  Uiso   1.00
H724   H     0.74762   0.09484   0.43536   0.00000  Uiso   1.00
H725   H     0.54886   0.93218   0.26688   0.00000  Uiso   1.00
H726   H     0.85710   0.86281   0.60516   0.00000  Uiso   1.00
H727   H     0.75856   0.20185   0.48354   0.00000  Uiso   1.00
O728   O     0.45817   0.91277   0.34500   0.00000  Uiso   1.00
O729   O     0.86257   0.82177   0.78881   0.00000  Uiso   1.00
O730   O     0.73329   0.26658   0.62926   0.00000  Uiso   1.00
N731   N     0.50343   0.93875   0.48782   0.00000  Uiso   1.00
N732   N     0.79161   0.87388   0.80409   0.00000  Uiso   1.00
N733   N     0.69950   0.19085   0.69040   0.00000  Uiso   1.00
N734   N     0.54308   0.93720   0.34165   0.00000  Uiso   1.00
N735   N     0.83126   0.87234   0.65791   0.00000  Uiso   1.00
N736   N     0.73914   0.18931   0.54423   0.00000  Uiso   1.00
