data_job_02931
_audit_creation_date              2018-12-19
_audit_creation_method            'Materials Studio'
_symmetry_space_group_name_H-M    'P1'
_symmetry_Int_Tables_number       1
_symmetry_cell_setting            triclinic
loop_
_symmetry_equiv_pos_as_xyz
  x,y,z
_cell_length_a                    22.7189
_cell_length_b                    22.6531
_cell_length_c                    23.6477
_cell_angle_alpha                 90.0000
_cell_angle_beta                  90.0000
_cell_angle_gamma                 90.0000
loop_
_atom_site_label
_atom_site_type_symbol
_atom_site_fract_x
_atom_site_fract_y
_atom_site_fract_z
_atom_site_U_iso_or_equiv
_atom_site_adp_type
_atom_site_occupancy
C1     C     0.13011   0.89794   0.92740   0.00000  Uiso   1.00
C2     C     0.18030   0.92857   0.89621   0.00000  Uiso   1.00
C3     C     0.21240   0.97637   0.91610   0.00000  Uiso   1.00
C4     C     0.25654   0.99803   0.88120   0.00000  Uiso   1.00
C5     C     0.33269   0.04944   0.84080   0.00000  Uiso   1.00
C6     C     0.07720   0.90031   0.88778   0.00000  Uiso   1.00
C7     C     0.02262   0.92436   0.90059   0.00000  Uiso   1.00
C8     C     0.97997   0.92222   0.85858   0.00000  Uiso   1.00
C9     C     0.89605   0.92974   0.80511   0.00000  Uiso   1.00
C10    C     0.14742   0.83305   0.93148   0.00000  Uiso   1.00
C11    C     0.15187   0.80052   0.98103   0.00000  Uiso   1.00
C12    C     0.16832   0.74174   0.97582   0.00000  Uiso   1.00
C13    C     0.19343   0.64482   0.99021   0.00000  Uiso   1.00
C14    C     0.15142   0.85139   0.83003   0.00000  Uiso   1.00
C15    C     0.19187   0.90328   0.84333   0.00000  Uiso   1.00
C16    C     0.23598   0.92487   0.80838   0.00000  Uiso   1.00
C17    C     0.26814   0.97269   0.82822   0.00000  Uiso   1.00
C18    C     0.08878   0.87503   0.83490   0.00000  Uiso   1.00
C19    C     0.04620   0.87285   0.79286   0.00000  Uiso   1.00
C20    C     0.99157   0.89689   0.80560   0.00000  Uiso   1.00
C21    C     0.15900   0.80776   0.87860   0.00000  Uiso   1.00
C22    C     0.17545   0.74902   0.87331   0.00000  Uiso   1.00
C23    C     0.17992   0.71641   0.92284   0.00000  Uiso   1.00
H24    H     0.12109   0.91763   0.96857   0.00000  Uiso   1.00
H25    H     0.20343   0.99593   0.95703   0.00000  Uiso   1.00
H26    H     0.01368   0.94392   0.94152   0.00000  Uiso   1.00
H27    H     0.14291   0.82010   0.02195   0.00000  Uiso   1.00
H28    H     0.29980   0.07161   0.92091   0.00000  Uiso   1.00
H29    H     0.89969   0.96192   0.88820   0.00000  Uiso   1.00
H30    H     0.17219   0.70083   0.05781   0.00000  Uiso   1.00
H31    H     0.16043   0.83170   0.78886   0.00000  Uiso   1.00
H32    H     0.24492   0.90529   0.76746   0.00000  Uiso   1.00
H33    H     0.05517   0.85328   0.75195   0.00000  Uiso   1.00
H34    H     0.18440   0.72946   0.83238   0.00000  Uiso   1.00
H35    H     0.33347   0.99804   0.76704   0.00000  Uiso   1.00
H36    H     0.93337   0.88835   0.73434   0.00000  Uiso   1.00
H37    H     0.20587   0.62726   0.90395   0.00000  Uiso   1.00
O38    O     0.37149   0.08480   0.83313   0.00000  Uiso   1.00
O39    O     0.84657   0.94088   0.79023   0.00000  Uiso   1.00
O40    O     0.20409   0.59834   0.01275   0.00000  Uiso   1.00
N41    N     0.29613   0.04419   0.88764   0.00000  Uiso   1.00
N42    N     0.92206   0.94164   0.85705   0.00000  Uiso   1.00
N43    N     0.17681   0.69754   0.01562   0.00000  Uiso   1.00
N44    N     0.31426   0.00460   0.80484   0.00000  Uiso   1.00
N45    N     0.94018   0.90206   0.77426   0.00000  Uiso   1.00
N46    N     0.19494   0.65796   0.93283   0.00000  Uiso   1.00
C47    C     0.63011   0.39794   0.92740   0.00000  Uiso   1.00
C48    C     0.68030   0.42857   0.89621   0.00000  Uiso   1.00
C49    C     0.71240   0.47637   0.91610   0.00000  Uiso   1.00
C50    C     0.75654   0.49803   0.88120   0.00000  Uiso   1.00
C51    C     0.83269   0.54944   0.84080   0.00000  Uiso   1.00
C52    C     0.57720   0.40031   0.88778   0.00000  Uiso   1.00
C53    C     0.52262   0.42436   0.90059   0.00000  Uiso   1.00
C54    C     0.47997   0.42222   0.85858   0.00000  Uiso   1.00
C55    C     0.39605   0.42974   0.80511   0.00000  Uiso   1.00
C56    C     0.64742   0.33305   0.93148   0.00000  Uiso   1.00
C57    C     0.65187   0.30052   0.98103   0.00000  Uiso   1.00
C58    C     0.66832   0.24174   0.97582   0.00000  Uiso   1.00
C59    C     0.69343   0.14482   0.99021   0.00000  Uiso   1.00
C60    C     0.65142   0.35139   0.83003   0.00000  Uiso   1.00
C61    C     0.69187   0.40328   0.84333   0.00000  Uiso   1.00
C62    C     0.73598   0.42487   0.80838   0.00000  Uiso   1.00
C63    C     0.76814   0.47269   0.82822   0.00000  Uiso   1.00
C64    C     0.58878   0.37503   0.83490   0.00000  Uiso   1.00
C65    C     0.54620   0.37285   0.79286   0.00000  Uiso   1.00
C66    C     0.49157   0.39689   0.80560   0.00000  Uiso   1.00
C67    C     0.65900   0.30776   0.87860   0.00000  Uiso   1.00
C68    C     0.67545   0.24902   0.87331   0.00000  Uiso   1.00
C69    C     0.67992   0.21641   0.92284   0.00000  Uiso   1.00
H70    H     0.62109   0.41763   0.96857   0.00000  Uiso   1.00
H71    H     0.70343   0.49593   0.95703   0.00000  Uiso   1.00
H72    H     0.51368   0.44392   0.94152   0.00000  Uiso   1.00
H73    H     0.64291   0.32010   0.02195   0.00000  Uiso   1.00
H74    H     0.79980   0.57161   0.92091   0.00000  Uiso   1.00
H75    H     0.39969   0.46192   0.88820   0.00000  Uiso   1.00
H76    H     0.67219   0.20083   0.05781   0.00000  Uiso   1.00
H77    H     0.66043   0.33170   0.78886   0.00000  Uiso   1.00
H78    H     0.74492   0.40529   0.76746   0.00000  Uiso   1.00
H79    H     0.55517   0.35328   0.75195   0.00000  Uiso   1.00
H80    H     0.68440   0.22946   0.83238   0.00000  Uiso   1.00
H81    H     0.83347   0.49804   0.76704   0.00000  Uiso   1.00
H82    H     0.43337   0.38835   0.73434   0.00000  Uiso   1.00
H83    H     0.70587   0.12726   0.90395   0.00000  Uiso   1.00
O84    O     0.87149   0.58480   0.83313   0.00000  Uiso   1.00
O85    O     0.34657   0.44088   0.79023   0.00000  Uiso   1.00
O86    O     0.70409   0.09834   0.01275   0.00000  Uiso   1.00
N87    N     0.79613   0.54419   0.88764   0.00000  Uiso   1.00
N88    N     0.42206   0.44164   0.85705   0.00000  Uiso   1.00
N89    N     0.67681   0.19754   0.01562   0.00000  Uiso   1.00
N90    N     0.81426   0.50460   0.80484   0.00000  Uiso   1.00
N91    N     0.44018   0.40206   0.77426   0.00000  Uiso   1.00
N92    N     0.69494   0.15796   0.93283   0.00000  Uiso   1.00
C93    C     0.36989   0.60206   0.92740   0.00000  Uiso   1.00
C94    C     0.31970   0.57143   0.89621   0.00000  Uiso   1.00
C95    C     0.28760   0.52363   0.91610   0.00000  Uiso   1.00
C96    C     0.24346   0.50197   0.88120   0.00000  Uiso   1.00
C97    C     0.16731   0.45056   0.84080   0.00000  Uiso   1.00
C98    C     0.42280   0.59969   0.88778   0.00000  Uiso   1.00
C99    C     0.47738   0.57564   0.90059   0.00000  Uiso   1.00
C100   C     0.52003   0.57778   0.85858   0.00000  Uiso   1.00
C101   C     0.60395   0.57026   0.80511   0.00000  Uiso   1.00
C102   C     0.35258   0.66695   0.93148   0.00000  Uiso   1.00
C103   C     0.34813   0.69948   0.98103   0.00000  Uiso   1.00
C104   C     0.33168   0.75826   0.97582   0.00000  Uiso   1.00
C105   C     0.30657   0.85518   0.99021   0.00000  Uiso   1.00
C106   C     0.34858   0.64861   0.83003   0.00000  Uiso   1.00
C107   C     0.30813   0.59672   0.84333   0.00000  Uiso   1.00
C108   C     0.26402   0.57513   0.80838   0.00000  Uiso   1.00
C109   C     0.23186   0.52731   0.82822   0.00000  Uiso   1.00
C110   C     0.41122   0.62497   0.83490   0.00000  Uiso   1.00
C111   C     0.45380   0.62715   0.79286   0.00000  Uiso   1.00
C112   C     0.50843   0.60311   0.80560   0.00000  Uiso   1.00
C113   C     0.34100   0.69224   0.87860   0.00000  Uiso   1.00
C114   C     0.32455   0.75098   0.87331   0.00000  Uiso   1.00
C115   C     0.32008   0.78359   0.92284   0.00000  Uiso   1.00
H116   H     0.37891   0.58237   0.96857   0.00000  Uiso   1.00
H117   H     0.29657   0.50407   0.95703   0.00000  Uiso   1.00
H118   H     0.48632   0.55608   0.94152   0.00000  Uiso   1.00
H119   H     0.35709   0.67990   0.02195   0.00000  Uiso   1.00
H120   H     0.20020   0.42839   0.92091   0.00000  Uiso   1.00
H121   H     0.60031   0.53808   0.88820   0.00000  Uiso   1.00
H122   H     0.32781   0.79917   0.05781   0.00000  Uiso   1.00
H123   H     0.33957   0.66830   0.78886   0.00000  Uiso   1.00
H124   H     0.25508   0.59471   0.76746   0.00000  Uiso   1.00
H125   H     0.44483   0.64672   0.75195   0.00000  Uiso   1.00
H126   H     0.31560   0.77054   0.83238   0.00000  Uiso   1.00
H127   H     0.16653   0.50196   0.76704   0.00000  Uiso   1.00
H128   H     0.56663   0.61165   0.73434   0.00000  Uiso   1.00
H129   H     0.29413   0.87274   0.90395   0.00000  Uiso   1.00
O130   O     0.12851   0.41520   0.83313   0.00000  Uiso   1.00
O131   O     0.65343   0.55912   0.79023   0.00000  Uiso   1.00
O132   O     0.29591   0.90166   0.01275   0.00000  Uiso   1.00
N133   N     0.20387   0.45581   0.88764   0.00000  Uiso   1.00
N134   N     0.57794   0.55836   0.85705   0.00000  Uiso   1.00
N135   N     0.32319   0.80246   0.01562   0.00000  Uiso   1.00
N136   N     0.18574   0.49540   0.80484   0.00000  Uiso   1.00
N137   N     0.55982   0.59794   0.77426   0.00000  Uiso   1.00
N138   N     0.30506   0.84204   0.93283   0.00000  Uiso   1.00
C139   C     0.86989   0.10206   0.92740   0.00000  Uiso   1.00
C140   C     0.81970   0.07143   0.89621   0.00000  Uiso   1.00
C141   C     0.78760   0.02363   0.91610   0.00000  Uiso   1.00
C142   C     0.74346   0.00197   0.88120   0.00000  Uiso   1.00
C143   C     0.66731   0.95056   0.84080   0.00000  Uiso   1.00
C144   C     0.92280   0.09969   0.88778   0.00000  Uiso   1.00
C145   C     0.97738   0.07564   0.90059   0.00000  Uiso   1.00
C146   C     0.02003   0.07778   0.85858   0.00000  Uiso   1.00
C147   C     0.10395   0.07026   0.80511   0.00000  Uiso   1.00
C148   C     0.85258   0.16695   0.93148   0.00000  Uiso   1.00
C149   C     0.84813   0.19948   0.98103   0.00000  Uiso   1.00
C150   C     0.83168   0.25826   0.97582   0.00000  Uiso   1.00
C151   C     0.80657   0.35518   0.99021   0.00000  Uiso   1.00
C152   C     0.84858   0.14861   0.83003   0.00000  Uiso   1.00
C153   C     0.80813   0.09672   0.84333   0.00000  Uiso   1.00
C154   C     0.76402   0.07513   0.80838   0.00000  Uiso   1.00
C155   C     0.73186   0.02731   0.82822   0.00000  Uiso   1.00
C156   C     0.91122   0.12497   0.83490   0.00000  Uiso   1.00
C157   C     0.95380   0.12715   0.79286   0.00000  Uiso   1.00
C158   C     0.00843   0.10311   0.80560   0.00000  Uiso   1.00
C159   C     0.84100   0.19224   0.87860   0.00000  Uiso   1.00
C160   C     0.82455   0.25098   0.87331   0.00000  Uiso   1.00
C161   C     0.82008   0.28359   0.92284   0.00000  Uiso   1.00
H162   H     0.87891   0.08237   0.96857   0.00000  Uiso   1.00
H163   H     0.79657   0.00407   0.95703   0.00000  Uiso   1.00
H164   H     0.98632   0.05608   0.94152   0.00000  Uiso   1.00
H165   H     0.85709   0.17990   0.02195   0.00000  Uiso   1.00
H166   H     0.70020   0.92839   0.92091   0.00000  Uiso   1.00
H167   H     0.10031   0.03808   0.88820   0.00000  Uiso   1.00
H168   H     0.82781   0.29917   0.05781   0.00000  Uiso   1.00
H169   H     0.83957   0.16830   0.78886   0.00000  Uiso   1.00
H170   H     0.75508   0.09471   0.76746   0.00000  Uiso   1.00
H171   H     0.94483   0.14672   0.75195   0.00000  Uiso   1.00
H172   H     0.81560   0.27054   0.83238   0.00000  Uiso   1.00
H173   H     0.66653   0.00196   0.76704   0.00000  Uiso   1.00
H174   H     0.06663   0.11165   0.73434   0.00000  Uiso   1.00
H175   H     0.79413   0.37274   0.90395   0.00000  Uiso   1.00
O176   O     0.62851   0.91520   0.83313   0.00000  Uiso   1.00
O177   O     0.15343   0.05912   0.79023   0.00000  Uiso   1.00
O178   O     0.79591   0.40166   0.01275   0.00000  Uiso   1.00
N179   N     0.70387   0.95581   0.88764   0.00000  Uiso   1.00
N180   N     0.07794   0.05836   0.85705   0.00000  Uiso   1.00
N181   N     0.82319   0.30246   0.01562   0.00000  Uiso   1.00
N182   N     0.68574   0.99540   0.80484   0.00000  Uiso   1.00
N183   N     0.05982   0.09794   0.77426   0.00000  Uiso   1.00
N184   N     0.80506   0.34204   0.93283   0.00000  Uiso   1.00
C185   C     0.86989   0.89794   0.07260   0.00000  Uiso   1.00
C186   C     0.81970   0.92857   0.10379   0.00000  Uiso   1.00
C187   C     0.78760   0.97637   0.08390   0.00000  Uiso   1.00
C188   C     0.74346   0.99803   0.11880   0.00000  Uiso   1.00
C189   C     0.66731   0.04944   0.15920   0.00000  Uiso   1.00
C190   C     0.92280   0.90031   0.11222   0.00000  Uiso   1.00
C191   C     0.97738   0.92436   0.09941   0.00000  Uiso   1.00
C192   C     0.02003   0.92222   0.14142   0.00000  Uiso   1.00
C193   C     0.10395   0.92974   0.19489   0.00000  Uiso   1.00
C194   C     0.85258   0.83305   0.06852   0.00000  Uiso   1.00
C195   C     0.84813   0.80052   0.01897   0.00000  Uiso   1.00
C196   C     0.83168   0.74174   0.02418   0.00000  Uiso   1.00
C197   C     0.80657   0.64482   0.00979   0.00000  Uiso   1.00
C198   C     0.84858   0.85139   0.16997   0.00000  Uiso   1.00
C199   C     0.80813   0.90328   0.15667   0.00000  Uiso   1.00
C200   C     0.76402   0.92487   0.19162   0.00000  Uiso   1.00
C201   C     0.73186   0.97269   0.17178   0.00000  Uiso   1.00
C202   C     0.91122   0.87503   0.16510   0.00000  Uiso   1.00
C203   C     0.95380   0.87285   0.20714   0.00000  Uiso   1.00
C204   C     0.00843   0.89689   0.19440   0.00000  Uiso   1.00
C205   C     0.84100   0.80776   0.12140   0.00000  Uiso   1.00
C206   C     0.82455   0.74902   0.12669   0.00000  Uiso   1.00
C207   C     0.82008   0.71641   0.07716   0.00000  Uiso   1.00
H208   H     0.87891   0.91763   0.03143   0.00000  Uiso   1.00
H209   H     0.79657   0.99593   0.04297   0.00000  Uiso   1.00
H210   H     0.98632   0.94392   0.05848   0.00000  Uiso   1.00
H211   H     0.85709   0.82010   0.97805   0.00000  Uiso   1.00
H212   H     0.70020   0.07161   0.07909   0.00000  Uiso   1.00
H213   H     0.10031   0.96192   0.11180   0.00000  Uiso   1.00
H214   H     0.82781   0.70083   0.94219   0.00000  Uiso   1.00
H215   H     0.83957   0.83170   0.21114   0.00000  Uiso   1.00
H216   H     0.75508   0.90529   0.23254   0.00000  Uiso   1.00
H217   H     0.94483   0.85328   0.24805   0.00000  Uiso   1.00
H218   H     0.81560   0.72946   0.16762   0.00000  Uiso   1.00
H219   H     0.66653   0.99804   0.23296   0.00000  Uiso   1.00
H220   H     0.06663   0.88835   0.26566   0.00000  Uiso   1.00
H221   H     0.79413   0.62726   0.09605   0.00000  Uiso   1.00
O222   O     0.62851   0.08480   0.16687   0.00000  Uiso   1.00
O223   O     0.15343   0.94088   0.20977   0.00000  Uiso   1.00
O224   O     0.79591   0.59834   0.98725   0.00000  Uiso   1.00
N225   N     0.70387   0.04419   0.11236   0.00000  Uiso   1.00
N226   N     0.07794   0.94164   0.14295   0.00000  Uiso   1.00
N227   N     0.82319   0.69754   0.98438   0.00000  Uiso   1.00
N228   N     0.68574   0.00460   0.19516   0.00000  Uiso   1.00
N229   N     0.05982   0.90206   0.22574   0.00000  Uiso   1.00
N230   N     0.80506   0.65796   0.06717   0.00000  Uiso   1.00
C231   C     0.36989   0.39794   0.07260   0.00000  Uiso   1.00
C232   C     0.31970   0.42857   0.10379   0.00000  Uiso   1.00
C233   C     0.28760   0.47637   0.08390   0.00000  Uiso   1.00
C234   C     0.24346   0.49803   0.11880   0.00000  Uiso   1.00
C235   C     0.16731   0.54944   0.15920   0.00000  Uiso   1.00
C236   C     0.42280   0.40031   0.11222   0.00000  Uiso   1.00
C237   C     0.47738   0.42436   0.09941   0.00000  Uiso   1.00
C238   C     0.52003   0.42222   0.14142   0.00000  Uiso   1.00
C239   C     0.60395   0.42974   0.19489   0.00000  Uiso   1.00
C240   C     0.35258   0.33305   0.06852   0.00000  Uiso   1.00
C241   C     0.34813   0.30052   0.01897   0.00000  Uiso   1.00
C242   C     0.33168   0.24174   0.02418   0.00000  Uiso   1.00
C243   C     0.30657   0.14482   0.00979   0.00000  Uiso   1.00
C244   C     0.34858   0.35139   0.16997   0.00000  Uiso   1.00
C245   C     0.30813   0.40328   0.15667   0.00000  Uiso   1.00
C246   C     0.26402   0.42487   0.19162   0.00000  Uiso   1.00
C247   C     0.23186   0.47269   0.17178   0.00000  Uiso   1.00
C248   C     0.41122   0.37503   0.16510   0.00000  Uiso   1.00
C249   C     0.45380   0.37285   0.20714   0.00000  Uiso   1.00
C250   C     0.50843   0.39689   0.19440   0.00000  Uiso   1.00
C251   C     0.34100   0.30776   0.12140   0.00000  Uiso   1.00
C252   C     0.32455   0.24902   0.12669   0.00000  Uiso   1.00
C253   C     0.32008   0.21641   0.07716   0.00000  Uiso   1.00
H254   H     0.37891   0.41763   0.03143   0.00000  Uiso   1.00
H255   H     0.29657   0.49593   0.04297   0.00000  Uiso   1.00
H256   H     0.48632   0.44392   0.05848   0.00000  Uiso   1.00
H257   H     0.35709   0.32010   0.97805   0.00000  Uiso   1.00
H258   H     0.20020   0.57161   0.07909   0.00000  Uiso   1.00
H259   H     0.60031   0.46192   0.11180   0.00000  Uiso   1.00
H260   H     0.32781   0.20083   0.94219   0.00000  Uiso   1.00
H261   H     0.33957   0.33170   0.21114   0.00000  Uiso   1.00
H262   H     0.25508   0.40529   0.23254   0.00000  Uiso   1.00
H263   H     0.44483   0.35328   0.24805   0.00000  Uiso   1.00
H264   H     0.31560   0.22946   0.16762   0.00000  Uiso   1.00
H265   H     0.16653   0.49804   0.23296   0.00000  Uiso   1.00
H266   H     0.56663   0.38835   0.26566   0.00000  Uiso   1.00
H267   H     0.29413   0.12726   0.09605   0.00000  Uiso   1.00
O268   O     0.12851   0.58480   0.16687   0.00000  Uiso   1.00
O269   O     0.65343   0.44088   0.20977   0.00000  Uiso   1.00
O270   O     0.29591   0.09834   0.98725   0.00000  Uiso   1.00
N271   N     0.20387   0.54419   0.11236   0.00000  Uiso   1.00
N272   N     0.57794   0.44164   0.14295   0.00000  Uiso   1.00
N273   N     0.32319   0.19754   0.98438   0.00000  Uiso   1.00
N274   N     0.18574   0.50460   0.19516   0.00000  Uiso   1.00
N275   N     0.55982   0.40206   0.22574   0.00000  Uiso   1.00
N276   N     0.30506   0.15796   0.06717   0.00000  Uiso   1.00
C277   C     0.63011   0.60206   0.07260   0.00000  Uiso   1.00
C278   C     0.68030   0.57143   0.10379   0.00000  Uiso   1.00
C279   C     0.71240   0.52363   0.08390   0.00000  Uiso   1.00
C280   C     0.75654   0.50197   0.11880   0.00000  Uiso   1.00
C281   C     0.83269   0.45056   0.15920   0.00000  Uiso   1.00
C282   C     0.57720   0.59969   0.11222   0.00000  Uiso   1.00
C283   C     0.52262   0.57564   0.09941   0.00000  Uiso   1.00
C284   C     0.47997   0.57778   0.14142   0.00000  Uiso   1.00
C285   C     0.39605   0.57026   0.19489   0.00000  Uiso   1.00
C286   C     0.64742   0.66695   0.06852   0.00000  Uiso   1.00
C287   C     0.65187   0.69948   0.01897   0.00000  Uiso   1.00
C288   C     0.66832   0.75826   0.02418   0.00000  Uiso   1.00
C289   C     0.69343   0.85518   0.00979   0.00000  Uiso   1.00
C290   C     0.65142   0.64861   0.16997   0.00000  Uiso   1.00
C291   C     0.69187   0.59672   0.15667   0.00000  Uiso   1.00
C292   C     0.73598   0.57513   0.19162   0.00000  Uiso   1.00
C293   C     0.76814   0.52731   0.17178   0.00000  Uiso   1.00
C294   C     0.58878   0.62497   0.16510   0.00000  Uiso   1.00
C295   C     0.54620   0.62715   0.20714   0.00000  Uiso   1.00
C296   C     0.49157   0.60311   0.19440   0.00000  Uiso   1.00
C297   C     0.65900   0.69224   0.12140   0.00000  Uiso   1.00
C298   C     0.67545   0.75098   0.12669   0.00000  Uiso   1.00
C299   C     0.67992   0.78359   0.07716   0.00000  Uiso   1.00
H300   H     0.62109   0.58237   0.03143   0.00000  Uiso   1.00
H301   H     0.70343   0.50407   0.04297   0.00000  Uiso   1.00
H302   H     0.51368   0.55608   0.05848   0.00000  Uiso   1.00
H303   H     0.64291   0.67990   0.97805   0.00000  Uiso   1.00
H304   H     0.79980   0.42839   0.07909   0.00000  Uiso   1.00
H305   H     0.39969   0.53808   0.11180   0.00000  Uiso   1.00
H306   H     0.67219   0.79917   0.94219   0.00000  Uiso   1.00
H307   H     0.66043   0.66830   0.21114   0.00000  Uiso   1.00
H308   H     0.74492   0.59471   0.23254   0.00000  Uiso   1.00
H309   H     0.55517   0.64672   0.24805   0.00000  Uiso   1.00
H310   H     0.68440   0.77054   0.16762   0.00000  Uiso   1.00
H311   H     0.83347   0.50196   0.23296   0.00000  Uiso   1.00
H312   H     0.43337   0.61165   0.26566   0.00000  Uiso   1.00
H313   H     0.70587   0.87274   0.09605   0.00000  Uiso   1.00
O314   O     0.87149   0.41520   0.16687   0.00000  Uiso   1.00
O315   O     0.34657   0.55912   0.20977   0.00000  Uiso   1.00
O316   O     0.70409   0.90166   0.98725   0.00000  Uiso   1.00
N317   N     0.79613   0.45581   0.11236   0.00000  Uiso   1.00
N318   N     0.42206   0.55836   0.14295   0.00000  Uiso   1.00
N319   N     0.67681   0.80246   0.98438   0.00000  Uiso   1.00
N320   N     0.81426   0.49540   0.19516   0.00000  Uiso   1.00
N321   N     0.44018   0.59794   0.22574   0.00000  Uiso   1.00
N322   N     0.69494   0.84204   0.06717   0.00000  Uiso   1.00
C323   C     0.13011   0.10206   0.07260   0.00000  Uiso   1.00
C324   C     0.18030   0.07143   0.10379   0.00000  Uiso   1.00
C325   C     0.21240   0.02363   0.08390   0.00000  Uiso   1.00
C326   C     0.25654   0.00197   0.11880   0.00000  Uiso   1.00
C327   C     0.33269   0.95056   0.15920   0.00000  Uiso   1.00
C328   C     0.07720   0.09969   0.11222   0.00000  Uiso   1.00
C329   C     0.02262   0.07564   0.09941   0.00000  Uiso   1.00
C330   C     0.97997   0.07778   0.14142   0.00000  Uiso   1.00
C331   C     0.89605   0.07026   0.19489   0.00000  Uiso   1.00
C332   C     0.14742   0.16695   0.06852   0.00000  Uiso   1.00
C333   C     0.15187   0.19948   0.01897   0.00000  Uiso   1.00
C334   C     0.16832   0.25826   0.02418   0.00000  Uiso   1.00
C335   C     0.19343   0.35518   0.00979   0.00000  Uiso   1.00
C336   C     0.15142   0.14861   0.16997   0.00000  Uiso   1.00
C337   C     0.19187   0.09672   0.15667   0.00000  Uiso   1.00
C338   C     0.23598   0.07513   0.19162   0.00000  Uiso   1.00
C339   C     0.26814   0.02731   0.17178   0.00000  Uiso   1.00
C340   C     0.08878   0.12497   0.16510   0.00000  Uiso   1.00
C341   C     0.04620   0.12715   0.20714   0.00000  Uiso   1.00
C342   C     0.99157   0.10311   0.19440   0.00000  Uiso   1.00
C343   C     0.15900   0.19224   0.12140   0.00000  Uiso   1.00
C344   C     0.17545   0.25098   0.12669   0.00000  Uiso   1.00
C345   C     0.17992   0.28359   0.07716   0.00000  Uiso   1.00
H346   H     0.12109   0.08237   0.03143   0.00000  Uiso   1.00
H347   H     0.20343   0.00407   0.04297   0.00000  Uiso   1.00
H348   H     0.01368   0.05608   0.05848   0.00000  Uiso   1.00
H349   H     0.14291   0.17990   0.97805   0.00000  Uiso   1.00
H350   H     0.29980   0.92839   0.07909   0.00000  Uiso   1.00
H351   H     0.89969   0.03808   0.11180   0.00000  Uiso   1.00
H352   H     0.17219   0.29917   0.94219   0.00000  Uiso   1.00
H353   H     0.16043   0.16830   0.21114   0.00000  Uiso   1.00
H354   H     0.24492   0.09471   0.23254   0.00000  Uiso   1.00
H355   H     0.05517   0.14672   0.24805   0.00000  Uiso   1.00
H356   H     0.18440   0.27054   0.16762   0.00000  Uiso   1.00
H357   H     0.33347   0.00196   0.23296   0.00000  Uiso   1.00
H358   H     0.93337   0.11165   0.26566   0.00000  Uiso   1.00
H359   H     0.20587   0.37274   0.09605   0.00000  Uiso   1.00
O360   O     0.37149   0.91520   0.16687   0.00000  Uiso   1.00
O361   O     0.84657   0.05912   0.20977   0.00000  Uiso   1.00
O362   O     0.20409   0.40166   0.98725   0.00000  Uiso   1.00
N363   N     0.29613   0.95581   0.11236   0.00000  Uiso   1.00
N364   N     0.92206   0.05836   0.14295   0.00000  Uiso   1.00
N365   N     0.17681   0.30246   0.98438   0.00000  Uiso   1.00
N366   N     0.31426   0.99540   0.19516   0.00000  Uiso   1.00
N367   N     0.94018   0.09794   0.22574   0.00000  Uiso   1.00
N368   N     0.19494   0.34204   0.06717   0.00000  Uiso   1.00
C369   C     0.86989   0.60206   0.57260   0.00000  Uiso   1.00
C370   C     0.81970   0.57143   0.60379   0.00000  Uiso   1.00
C371   C     0.78760   0.52363   0.58390   0.00000  Uiso   1.00
C372   C     0.74346   0.50197   0.61880   0.00000  Uiso   1.00
C373   C     0.66731   0.45056   0.65920   0.00000  Uiso   1.00
C374   C     0.92280   0.59969   0.61222   0.00000  Uiso   1.00
C375   C     0.97738   0.57564   0.59941   0.00000  Uiso   1.00
C376   C     0.02003   0.57778   0.64142   0.00000  Uiso   1.00
C377   C     0.10395   0.57026   0.69489   0.00000  Uiso   1.00
C378   C     0.85258   0.66695   0.56852   0.00000  Uiso   1.00
C379   C     0.84813   0.69948   0.51897   0.00000  Uiso   1.00
C380   C     0.83168   0.75826   0.52418   0.00000  Uiso   1.00
C381   C     0.80657   0.85518   0.50979   0.00000  Uiso   1.00
C382   C     0.84858   0.64861   0.66997   0.00000  Uiso   1.00
C383   C     0.80813   0.59672   0.65667   0.00000  Uiso   1.00
C384   C     0.76402   0.57513   0.69162   0.00000  Uiso   1.00
C385   C     0.73186   0.52731   0.67178   0.00000  Uiso   1.00
C386   C     0.91122   0.62497   0.66510   0.00000  Uiso   1.00
C387   C     0.95380   0.62715   0.70714   0.00000  Uiso   1.00
C388   C     0.00843   0.60311   0.69440   0.00000  Uiso   1.00
C389   C     0.84100   0.69224   0.62140   0.00000  Uiso   1.00
C390   C     0.82455   0.75098   0.62669   0.00000  Uiso   1.00
C391   C     0.82008   0.78359   0.57716   0.00000  Uiso   1.00
H392   H     0.87891   0.58237   0.53143   0.00000  Uiso   1.00
H393   H     0.79657   0.50407   0.54297   0.00000  Uiso   1.00
H394   H     0.98632   0.55608   0.55848   0.00000  Uiso   1.00
H395   H     0.85709   0.67990   0.47805   0.00000  Uiso   1.00
H396   H     0.70020   0.42839   0.57909   0.00000  Uiso   1.00
H397   H     0.10031   0.53808   0.61180   0.00000  Uiso   1.00
H398   H     0.82781   0.79917   0.44219   0.00000  Uiso   1.00
H399   H     0.83957   0.66830   0.71114   0.00000  Uiso   1.00
H400   H     0.75508   0.59471   0.73254   0.00000  Uiso   1.00
H401   H     0.94483   0.64672   0.74805   0.00000  Uiso   1.00
H402   H     0.81560   0.77054   0.66762   0.00000  Uiso   1.00
H403   H     0.66653   0.50196   0.73296   0.00000  Uiso   1.00
H404   H     0.06663   0.61165   0.76566   0.00000  Uiso   1.00
H405   H     0.79413   0.87274   0.59605   0.00000  Uiso   1.00
O406   O     0.62851   0.41520   0.66687   0.00000  Uiso   1.00
O407   O     0.15343   0.55912   0.70977   0.00000  Uiso   1.00
O408   O     0.79591   0.90166   0.48725   0.00000  Uiso   1.00
N409   N     0.70387   0.45581   0.61236   0.00000  Uiso   1.00
N410   N     0.07794   0.55836   0.64295   0.00000  Uiso   1.00
N411   N     0.82319   0.80246   0.48438   0.00000  Uiso   1.00
N412   N     0.68574   0.49540   0.69516   0.00000  Uiso   1.00
N413   N     0.05982   0.59794   0.72574   0.00000  Uiso   1.00
N414   N     0.80506   0.84204   0.56717   0.00000  Uiso   1.00
C415   C     0.36989   0.10206   0.57260   0.00000  Uiso   1.00
C416   C     0.31970   0.07143   0.60379   0.00000  Uiso   1.00
C417   C     0.28760   0.02363   0.58390   0.00000  Uiso   1.00
C418   C     0.24346   0.00197   0.61880   0.00000  Uiso   1.00
C419   C     0.16731   0.95056   0.65920   0.00000  Uiso   1.00
C420   C     0.42280   0.09969   0.61222   0.00000  Uiso   1.00
C421   C     0.47738   0.07564   0.59941   0.00000  Uiso   1.00
C422   C     0.52003   0.07778   0.64142   0.00000  Uiso   1.00
C423   C     0.60395   0.07026   0.69489   0.00000  Uiso   1.00
C424   C     0.35258   0.16695   0.56852   0.00000  Uiso   1.00
C425   C     0.34813   0.19948   0.51897   0.00000  Uiso   1.00
C426   C     0.33168   0.25826   0.52418   0.00000  Uiso   1.00
C427   C     0.30657   0.35518   0.50979   0.00000  Uiso   1.00
C428   C     0.34858   0.14861   0.66997   0.00000  Uiso   1.00
C429   C     0.30813   0.09672   0.65667   0.00000  Uiso   1.00
C430   C     0.26402   0.07513   0.69162   0.00000  Uiso   1.00
C431   C     0.23186   0.02731   0.67178   0.00000  Uiso   1.00
C432   C     0.41122   0.12497   0.66510   0.00000  Uiso   1.00
C433   C     0.45380   0.12715   0.70714   0.00000  Uiso   1.00
C434   C     0.50843   0.10311   0.69440   0.00000  Uiso   1.00
C435   C     0.34100   0.19224   0.62140   0.00000  Uiso   1.00
C436   C     0.32455   0.25098   0.62669   0.00000  Uiso   1.00
C437   C     0.32008   0.28359   0.57716   0.00000  Uiso   1.00
H438   H     0.37891   0.08237   0.53143   0.00000  Uiso   1.00
H439   H     0.29657   0.00407   0.54297   0.00000  Uiso   1.00
H440   H     0.48632   0.05608   0.55848   0.00000  Uiso   1.00
H441   H     0.35709   0.17990   0.47805   0.00000  Uiso   1.00
H442   H     0.20020   0.92839   0.57909   0.00000  Uiso   1.00
H443   H     0.60031   0.03808   0.61180   0.00000  Uiso   1.00
H444   H     0.32781   0.29917   0.44219   0.00000  Uiso   1.00
H445   H     0.33957   0.16830   0.71114   0.00000  Uiso   1.00
H446   H     0.25508   0.09471   0.73254   0.00000  Uiso   1.00
H447   H     0.44483   0.14672   0.74805   0.00000  Uiso   1.00
H448   H     0.31560   0.27054   0.66762   0.00000  Uiso   1.00
H449   H     0.16653   0.00196   0.73296   0.00000  Uiso   1.00
H450   H     0.56663   0.11165   0.76566   0.00000  Uiso   1.00
H451   H     0.29413   0.37274   0.59605   0.00000  Uiso   1.00
O452   O     0.12851   0.91520   0.66687   0.00000  Uiso   1.00
O453   O     0.65343   0.05912   0.70977   0.00000  Uiso   1.00
O454   O     0.29591   0.40166   0.48725   0.00000  Uiso   1.00
N455   N     0.20387   0.95581   0.61236   0.00000  Uiso   1.00
N456   N     0.57794   0.05836   0.64295   0.00000  Uiso   1.00
N457   N     0.32319   0.30246   0.48438   0.00000  Uiso   1.00
N458   N     0.18574   0.99540   0.69516   0.00000  Uiso   1.00
N459   N     0.55982   0.09794   0.72574   0.00000  Uiso   1.00
N460   N     0.30506   0.34204   0.56717   0.00000  Uiso   1.00
C461   C     0.63011   0.89794   0.57260   0.00000  Uiso   1.00
C462   C     0.68030   0.92857   0.60379   0.00000  Uiso   1.00
C463   C     0.71240   0.97637   0.58390   0.00000  Uiso   1.00
C464   C     0.75654   0.99803   0.61880   0.00000  Uiso   1.00
C465   C     0.83269   0.04944   0.65920   0.00000  Uiso   1.00
C466   C     0.57720   0.90031   0.61222   0.00000  Uiso   1.00
C467   C     0.52262   0.92436   0.59941   0.00000  Uiso   1.00
C468   C     0.47997   0.92222   0.64142   0.00000  Uiso   1.00
C469   C     0.39605   0.92974   0.69489   0.00000  Uiso   1.00
C470   C     0.64742   0.83305   0.56852   0.00000  Uiso   1.00
C471   C     0.65187   0.80052   0.51897   0.00000  Uiso   1.00
C472   C     0.66832   0.74174   0.52418   0.00000  Uiso   1.00
C473   C     0.69343   0.64482   0.50979   0.00000  Uiso   1.00
C474   C     0.65142   0.85139   0.66997   0.00000  Uiso   1.00
C475   C     0.69187   0.90328   0.65667   0.00000  Uiso   1.00
C476   C     0.73598   0.92487   0.69162   0.00000  Uiso   1.00
C477   C     0.76814   0.97269   0.67178   0.00000  Uiso   1.00
C478   C     0.58878   0.87503   0.66510   0.00000  Uiso   1.00
C479   C     0.54620   0.87285   0.70714   0.00000  Uiso   1.00
C480   C     0.49157   0.89689   0.69440   0.00000  Uiso   1.00
C481   C     0.65900   0.80776   0.62140   0.00000  Uiso   1.00
C482   C     0.67545   0.74902   0.62669   0.00000  Uiso   1.00
C483   C     0.67992   0.71641   0.57716   0.00000  Uiso   1.00
H484   H     0.62109   0.91763   0.53143   0.00000  Uiso   1.00
H485   H     0.70343   0.99593   0.54297   0.00000  Uiso   1.00
H486   H     0.51368   0.94392   0.55848   0.00000  Uiso   1.00
H487   H     0.64291   0.82010   0.47805   0.00000  Uiso   1.00
H488   H     0.79980   0.07161   0.57909   0.00000  Uiso   1.00
H489   H     0.39969   0.96192   0.61180   0.00000  Uiso   1.00
H490   H     0.67219   0.70083   0.44219   0.00000  Uiso   1.00
H491   H     0.66043   0.83170   0.71114   0.00000  Uiso   1.00
H492   H     0.74492   0.90529   0.73254   0.00000  Uiso   1.00
H493   H     0.55517   0.85328   0.74805   0.00000  Uiso   1.00
H494   H     0.68440   0.72946   0.66762   0.00000  Uiso   1.00
H495   H     0.83347   0.99804   0.73296   0.00000  Uiso   1.00
H496   H     0.43337   0.88835   0.76566   0.00000  Uiso   1.00
H497   H     0.70587   0.62726   0.59605   0.00000  Uiso   1.00
O498   O     0.87149   0.08480   0.66687   0.00000  Uiso   1.00
O499   O     0.34657   0.94088   0.70977   0.00000  Uiso   1.00
O500   O     0.70409   0.59834   0.48725   0.00000  Uiso   1.00
N501   N     0.79613   0.04419   0.61236   0.00000  Uiso   1.00
N502   N     0.42206   0.94164   0.64295   0.00000  Uiso   1.00
N503   N     0.67681   0.69754   0.48438   0.00000  Uiso   1.00
N504   N     0.81426   0.00460   0.69516   0.00000  Uiso   1.00
N505   N     0.44018   0.90206   0.72574   0.00000  Uiso   1.00
N506   N     0.69494   0.65796   0.56717   0.00000  Uiso   1.00
C507   C     0.13011   0.39794   0.57260   0.00000  Uiso   1.00
C508   C     0.18030   0.42857   0.60379   0.00000  Uiso   1.00
C509   C     0.21240   0.47637   0.58390   0.00000  Uiso   1.00
C510   C     0.25654   0.49803   0.61880   0.00000  Uiso   1.00
C511   C     0.33269   0.54944   0.65920   0.00000  Uiso   1.00
C512   C     0.07720   0.40031   0.61222   0.00000  Uiso   1.00
C513   C     0.02262   0.42436   0.59941   0.00000  Uiso   1.00
C514   C     0.97997   0.42222   0.64142   0.00000  Uiso   1.00
C515   C     0.89605   0.42974   0.69489   0.00000  Uiso   1.00
C516   C     0.14742   0.33305   0.56852   0.00000  Uiso   1.00
C517   C     0.15187   0.30052   0.51897   0.00000  Uiso   1.00
C518   C     0.16832   0.24174   0.52418   0.00000  Uiso   1.00
C519   C     0.19343   0.14482   0.50979   0.00000  Uiso   1.00
C520   C     0.15142   0.35139   0.66997   0.00000  Uiso   1.00
C521   C     0.19187   0.40328   0.65667   0.00000  Uiso   1.00
C522   C     0.23598   0.42487   0.69162   0.00000  Uiso   1.00
C523   C     0.26814   0.47269   0.67178   0.00000  Uiso   1.00
C524   C     0.08878   0.37503   0.66510   0.00000  Uiso   1.00
C525   C     0.04620   0.37285   0.70714   0.00000  Uiso   1.00
C526   C     0.99157   0.39689   0.69440   0.00000  Uiso   1.00
C527   C     0.15900   0.30776   0.62140   0.00000  Uiso   1.00
C528   C     0.17545   0.24902   0.62669   0.00000  Uiso   1.00
C529   C     0.17992   0.21641   0.57716   0.00000  Uiso   1.00
H530   H     0.12109   0.41763   0.53143   0.00000  Uiso   1.00
H531   H     0.20343   0.49593   0.54297   0.00000  Uiso   1.00
H532   H     0.01368   0.44392   0.55848   0.00000  Uiso   1.00
H533   H     0.14291   0.32010   0.47805   0.00000  Uiso   1.00
H534   H     0.29980   0.57161   0.57909   0.00000  Uiso   1.00
H535   H     0.89969   0.46192   0.61180   0.00000  Uiso   1.00
H536   H     0.17219   0.20083   0.44219   0.00000  Uiso   1.00
H537   H     0.16043   0.33170   0.71114   0.00000  Uiso   1.00
H538   H     0.24492   0.40529   0.73254   0.00000  Uiso   1.00
H539   H     0.05517   0.35328   0.74805   0.00000  Uiso   1.00
H540   H     0.18440   0.22946   0.66762   0.00000  Uiso   1.00
H541   H     0.33347   0.49804   0.73296   0.00000  Uiso   1.00
H542   H     0.93337   0.38835   0.76566   0.00000  Uiso   1.00
H543   H     0.20587   0.12726   0.59605   0.00000  Uiso   1.00
O544   O     0.37149   0.58480   0.66687   0.00000  Uiso   1.00
O545   O     0.84657   0.44088   0.70977   0.00000  Uiso   1.00
O546   O     0.20409   0.09834   0.48725   0.00000  Uiso   1.00
N547   N     0.29613   0.54419   0.61236   0.00000  Uiso   1.00
N548   N     0.92206   0.44164   0.64295   0.00000  Uiso   1.00
N549   N     0.17681   0.19754   0.48438   0.00000  Uiso   1.00
N550   N     0.31426   0.50460   0.69516   0.00000  Uiso   1.00
N551   N     0.94018   0.40206   0.72574   0.00000  Uiso   1.00
N552   N     0.19494   0.15796   0.56717   0.00000  Uiso   1.00
C553   C     0.13011   0.60206   0.42740   0.00000  Uiso   1.00
C554   C     0.18030   0.57143   0.39621   0.00000  Uiso   1.00
C555   C     0.21240   0.52363   0.41610   0.00000  Uiso   1.00
C556   C     0.25654   0.50197   0.38120   0.00000  Uiso   1.00
C557   C     0.33269   0.45056   0.34080   0.00000  Uiso   1.00
C558   C     0.07720   0.59969   0.38778   0.00000  Uiso   1.00
C559   C     0.02262   0.57564   0.40059   0.00000  Uiso   1.00
C560   C     0.97997   0.57778   0.35858   0.00000  Uiso   1.00
C561   C     0.89605   0.57026   0.30511   0.00000  Uiso   1.00
C562   C     0.14742   0.66695   0.43148   0.00000  Uiso   1.00
C563   C     0.15187   0.69948   0.48103   0.00000  Uiso   1.00
C564   C     0.16832   0.75826   0.47582   0.00000  Uiso   1.00
C565   C     0.19343   0.85518   0.49021   0.00000  Uiso   1.00
C566   C     0.15142   0.64861   0.33003   0.00000  Uiso   1.00
C567   C     0.19187   0.59672   0.34333   0.00000  Uiso   1.00
C568   C     0.23598   0.57513   0.30838   0.00000  Uiso   1.00
C569   C     0.26814   0.52731   0.32822   0.00000  Uiso   1.00
C570   C     0.08878   0.62497   0.33490   0.00000  Uiso   1.00
C571   C     0.04620   0.62715   0.29286   0.00000  Uiso   1.00
C572   C     0.99157   0.60311   0.30560   0.00000  Uiso   1.00
C573   C     0.15900   0.69224   0.37860   0.00000  Uiso   1.00
C574   C     0.17545   0.75098   0.37331   0.00000  Uiso   1.00
C575   C     0.17992   0.78359   0.42284   0.00000  Uiso   1.00
H576   H     0.12109   0.58237   0.46857   0.00000  Uiso   1.00
H577   H     0.20343   0.50407   0.45703   0.00000  Uiso   1.00
H578   H     0.01368   0.55608   0.44152   0.00000  Uiso   1.00
H579   H     0.14291   0.67990   0.52195   0.00000  Uiso   1.00
H580   H     0.29980   0.42839   0.42091   0.00000  Uiso   1.00
H581   H     0.89969   0.53808   0.38820   0.00000  Uiso   1.00
H582   H     0.17219   0.79917   0.55781   0.00000  Uiso   1.00
H583   H     0.16043   0.66830   0.28886   0.00000  Uiso   1.00
H584   H     0.24492   0.59471   0.26746   0.00000  Uiso   1.00
H585   H     0.05517   0.64672   0.25195   0.00000  Uiso   1.00
H586   H     0.18440   0.77054   0.33238   0.00000  Uiso   1.00
H587   H     0.33347   0.50196   0.26704   0.00000  Uiso   1.00
H588   H     0.93337   0.61165   0.23434   0.00000  Uiso   1.00
H589   H     0.20587   0.87274   0.40395   0.00000  Uiso   1.00
O590   O     0.37149   0.41520   0.33313   0.00000  Uiso   1.00
O591   O     0.84657   0.55912   0.29023   0.00000  Uiso   1.00
O592   O     0.20409   0.90166   0.51275   0.00000  Uiso   1.00
N593   N     0.29613   0.45581   0.38764   0.00000  Uiso   1.00
N594   N     0.92206   0.55836   0.35705   0.00000  Uiso   1.00
N595   N     0.17681   0.80246   0.51562   0.00000  Uiso   1.00
N596   N     0.31426   0.49540   0.30484   0.00000  Uiso   1.00
N597   N     0.94018   0.59794   0.27426   0.00000  Uiso   1.00
N598   N     0.19494   0.84204   0.43283   0.00000  Uiso   1.00
C599   C     0.63011   0.10206   0.42740   0.00000  Uiso   1.00
C600   C     0.68030   0.07143   0.39621   0.00000  Uiso   1.00
C601   C     0.71240   0.02363   0.41610   0.00000  Uiso   1.00
C602   C     0.75654   0.00197   0.38120   0.00000  Uiso   1.00
C603   C     0.83269   0.95056   0.34080   0.00000  Uiso   1.00
C604   C     0.57720   0.09969   0.38778   0.00000  Uiso   1.00
C605   C     0.52262   0.07564   0.40059   0.00000  Uiso   1.00
C606   C     0.47997   0.07778   0.35858   0.00000  Uiso   1.00
C607   C     0.39605   0.07026   0.30511   0.00000  Uiso   1.00
C608   C     0.64742   0.16695   0.43148   0.00000  Uiso   1.00
C609   C     0.65187   0.19948   0.48103   0.00000  Uiso   1.00
C610   C     0.66832   0.25826   0.47582   0.00000  Uiso   1.00
C611   C     0.69343   0.35518   0.49021   0.00000  Uiso   1.00
C612   C     0.65142   0.14861   0.33003   0.00000  Uiso   1.00
C613   C     0.69187   0.09672   0.34333   0.00000  Uiso   1.00
C614   C     0.73598   0.07513   0.30838   0.00000  Uiso   1.00
C615   C     0.76814   0.02731   0.32822   0.00000  Uiso   1.00
C616   C     0.58878   0.12497   0.33490   0.00000  Uiso   1.00
C617   C     0.54620   0.12715   0.29286   0.00000  Uiso   1.00
C618   C     0.49157   0.10311   0.30560   0.00000  Uiso   1.00
C619   C     0.65900   0.19224   0.37860   0.00000  Uiso   1.00
C620   C     0.67545   0.25098   0.37331   0.00000  Uiso   1.00
C621   C     0.67992   0.28359   0.42284   0.00000  Uiso   1.00
H622   H     0.62109   0.08237   0.46857   0.00000  Uiso   1.00
H623   H     0.70343   0.00407   0.45703   0.00000  Uiso   1.00
H624   H     0.51368   0.05608   0.44152   0.00000  Uiso   1.00
H625   H     0.64291   0.17990   0.52195   0.00000  Uiso   1.00
H626   H     0.79980   0.92839   0.42091   0.00000  Uiso   1.00
H627   H     0.39969   0.03808   0.38820   0.00000  Uiso   1.00
H628   H     0.67219   0.29917   0.55781   0.00000  Uiso   1.00
H629   H     0.66043   0.16830   0.28886   0.00000  Uiso   1.00
H630   H     0.74492   0.09471   0.26746   0.00000  Uiso   1.00
H631   H     0.55517   0.14672   0.25195   0.00000  Uiso   1.00
H632   H     0.68440   0.27054   0.33238   0.00000  Uiso   1.00
H633   H     0.83347   0.00196   0.26704   0.00000  Uiso   1.00
H634   H     0.43337   0.11165   0.23434   0.00000  Uiso   1.00
H635   H     0.70587   0.37274   0.40395   0.00000  Uiso   1.00
O636   O     0.87149   0.91520   0.33313   0.00000  Uiso   1.00
O637   O     0.34657   0.05912   0.29023   0.00000  Uiso   1.00
O638   O     0.70409   0.40166   0.51275   0.00000  Uiso   1.00
N639   N     0.79613   0.95581   0.38764   0.00000  Uiso   1.00
N640   N     0.42206   0.05836   0.35705   0.00000  Uiso   1.00
N641   N     0.67681   0.30246   0.51562   0.00000  Uiso   1.00
N642   N     0.81426   0.99540   0.30484   0.00000  Uiso   1.00
N643   N     0.44018   0.09794   0.27426   0.00000  Uiso   1.00
N644   N     0.69494   0.34204   0.43283   0.00000  Uiso   1.00
C645   C     0.36989   0.89794   0.42740   0.00000  Uiso   1.00
C646   C     0.31970   0.92857   0.39621   0.00000  Uiso   1.00
C647   C     0.28760   0.97637   0.41610   0.00000  Uiso   1.00
C648   C     0.24346   0.99803   0.38120   0.00000  Uiso   1.00
C649   C     0.16731   0.04944   0.34080   0.00000  Uiso   1.00
C650   C     0.42280   0.90031   0.38778   0.00000  Uiso   1.00
C651   C     0.47738   0.92436   0.40059   0.00000  Uiso   1.00
C652   C     0.52003   0.92222   0.35858   0.00000  Uiso   1.00
C653   C     0.60395   0.92974   0.30511   0.00000  Uiso   1.00
C654   C     0.35258   0.83305   0.43148   0.00000  Uiso   1.00
C655   C     0.34813   0.80052   0.48103   0.00000  Uiso   1.00
C656   C     0.33168   0.74174   0.47582   0.00000  Uiso   1.00
C657   C     0.30657   0.64482   0.49021   0.00000  Uiso   1.00
C658   C     0.34858   0.85139   0.33003   0.00000  Uiso   1.00
C659   C     0.30813   0.90328   0.34333   0.00000  Uiso   1.00
C660   C     0.26402   0.92487   0.30838   0.00000  Uiso   1.00
C661   C     0.23186   0.97269   0.32822   0.00000  Uiso   1.00
C662   C     0.41122   0.87503   0.33490   0.00000  Uiso   1.00
C663   C     0.45380   0.87285   0.29286   0.00000  Uiso   1.00
C664   C     0.50843   0.89689   0.30560   0.00000  Uiso   1.00
C665   C     0.34100   0.80776   0.37860   0.00000  Uiso   1.00
C666   C     0.32455   0.74902   0.37331   0.00000  Uiso   1.00
C667   C     0.32008   0.71641   0.42284   0.00000  Uiso   1.00
H668   H     0.37891   0.91763   0.46857   0.00000  Uiso   1.00
H669   H     0.29657   0.99593   0.45703   0.00000  Uiso   1.00
H670   H     0.48632   0.94392   0.44152   0.00000  Uiso   1.00
H671   H     0.35709   0.82010   0.52195   0.00000  Uiso   1.00
H672   H     0.20020   0.07161   0.42091   0.00000  Uiso   1.00
H673   H     0.60031   0.96192   0.38820   0.00000  Uiso   1.00
H674   H     0.32781   0.70083   0.55781   0.00000  Uiso   1.00
H675   H     0.33957   0.83170   0.28886   0.00000  Uiso   1.00
H676   H     0.25508   0.90529   0.26746   0.00000  Uiso   1.00
H677   H     0.44483   0.85328   0.25195   0.00000  Uiso   1.00
H678   H     0.31560   0.72946   0.33238   0.00000  Uiso   1.00
H679   H     0.16653   0.99804   0.26704   0.00000  Uiso   1.00
H680   H     0.56663   0.88835   0.23434   0.00000  Uiso   1.00
H681   H     0.29413   0.62726   0.40395   0.00000  Uiso   1.00
O682   O     0.12851   0.08480   0.33313   0.00000  Uiso   1.00
O683   O     0.65343   0.94088   0.29023   0.00000  Uiso   1.00
O684   O     0.29591   0.59834   0.51275   0.00000  Uiso   1.00
N685   N     0.20387   0.04419   0.38764   0.00000  Uiso   1.00
N686   N     0.57794   0.94164   0.35705   0.00000  Uiso   1.00
N687   N     0.32319   0.69754   0.51562   0.00000  Uiso   1.00
N688   N     0.18574   0.00460   0.30484   0.00000  Uiso   1.00
N689   N     0.55982   0.90206   0.27426   0.00000  Uiso   1.00
N690   N     0.30506   0.65796   0.43283   0.00000  Uiso   1.00
C691   C     0.86989   0.39794   0.42740   0.00000  Uiso   1.00
C692   C     0.81970   0.42857   0.39621   0.00000  Uiso   1.00
C693   C     0.78760   0.47637   0.41610   0.00000  Uiso   1.00
C694   C     0.74346   0.49803   0.38120   0.00000  Uiso   1.00
C695   C     0.66731   0.54944   0.34080   0.00000  Uiso   1.00
C696   C     0.92280   0.40031   0.38778   0.00000  Uiso   1.00
C697   C     0.97738   0.42436   0.40059   0.00000  Uiso   1.00
C698   C     0.02003   0.42222   0.35858   0.00000  Uiso   1.00
C699   C     0.10395   0.42974   0.30511   0.00000  Uiso   1.00
C700   C     0.85258   0.33305   0.43148   0.00000  Uiso   1.00
C701   C     0.84813   0.30052   0.48103   0.00000  Uiso   1.00
C702   C     0.83168   0.24174   0.47582   0.00000  Uiso   1.00
C703   C     0.80657   0.14482   0.49021   0.00000  Uiso   1.00
C704   C     0.84858   0.35139   0.33003   0.00000  Uiso   1.00
C705   C     0.80813   0.40328   0.34333   0.00000  Uiso   1.00
C706   C     0.76402   0.42487   0.30838   0.00000  Uiso   1.00
C707   C     0.73186   0.47269   0.32822   0.00000  Uiso   1.00
C708   C     0.91122   0.37503   0.33490   0.00000  Uiso   1.00
C709   C     0.95380   0.37285   0.29286   0.00000  Uiso   1.00
C710   C     0.00843   0.39689   0.30560   0.00000  Uiso   1.00
C711   C     0.84100   0.30776   0.37860   0.00000  Uiso   1.00
C712   C     0.82455   0.24902   0.37331   0.00000  Uiso   1.00
C713   C     0.82008   0.21641   0.42284   0.00000  Uiso   1.00
H714   H     0.87891   0.41763   0.46857   0.00000  Uiso   1.00
H715   H     0.79657   0.49593   0.45703   0.00000  Uiso   1.00
H716   H     0.98632   0.44392   0.44152   0.00000  Uiso   1.00
H717   H     0.85709   0.32010   0.52195   0.00000  Uiso   1.00
H718   H     0.70020   0.57161   0.42091   0.00000  Uiso   1.00
H719   H     0.10031   0.46192   0.38820   0.00000  Uiso   1.00
H720   H     0.82781   0.20083   0.55781   0.00000  Uiso   1.00
H721   H     0.83957   0.33170   0.28886   0.00000  Uiso   1.00
H722   H     0.75508   0.40529   0.26746   0.00000  Uiso   1.00
H723   H     0.94483   0.35328   0.25195   0.00000  Uiso   1.00
H724   H     0.81560   0.22946   0.33238   0.00000  Uiso   1.00
H725   H     0.66653   0.49804   0.26704   0.00000  Uiso   1.00
H726   H     0.06663   0.38835   0.23434   0.00000  Uiso   1.00
H727   H     0.79413   0.12726   0.40395   0.00000  Uiso   1.00
O728   O     0.62851   0.58480   0.33313   0.00000  Uiso   1.00
O729   O     0.15343   0.44088   0.29023   0.00000  Uiso   1.00
O730   O     0.79591   0.09834   0.51275   0.00000  Uiso   1.00
N731   N     0.70387   0.54419   0.38764   0.00000  Uiso   1.00
N732   N     0.07794   0.44164   0.35705   0.00000  Uiso   1.00
N733   N     0.82319   0.19754   0.51562   0.00000  Uiso   1.00
N734   N     0.68574   0.50460   0.30484   0.00000  Uiso   1.00
N735   N     0.05982   0.40206   0.27426   0.00000  Uiso   1.00
N736   N     0.80506   0.15796   0.43283   0.00000  Uiso   1.00
