data_job_02451
_audit_creation_date              2018-12-19
_audit_creation_method            'Materials Studio'
_symmetry_space_group_name_H-M    'P1'
_symmetry_Int_Tables_number       1
_symmetry_cell_setting            triclinic
loop_
_symmetry_equiv_pos_as_xyz
  x,y,z
_cell_length_a                    12.1719
_cell_length_b                    25.0076
_cell_length_c                    43.0039
_cell_angle_alpha                 90.0000
_cell_angle_beta                  90.0000
_cell_angle_gamma                 90.0000
loop_
_atom_site_label
_atom_site_type_symbol
_atom_site_fract_x
_atom_site_fract_y
_atom_site_fract_z
_atom_site_U_iso_or_equiv
_atom_site_adp_type
_atom_site_occupancy
C1     C     0.13310   0.86446   0.91703   0.00000  Uiso   1.00
C2     C     0.10194   0.86084   0.88275   0.00000  Uiso   1.00
C3     C     0.99590   0.86230   0.87092   0.00000  Uiso   1.00
C4     C     0.98464   0.85839   0.83888   0.00000  Uiso   1.00
C5     C     0.92232   0.85352   0.78861   0.00000  Uiso   1.00
C6     C     0.20058   0.81452   0.92404   0.00000  Uiso   1.00
C7     C     0.17748   0.77704   0.94693   0.00000  Uiso   1.00
C8     C     0.24926   0.73415   0.94963   0.00000  Uiso   1.00
C9     C     0.34014   0.65739   0.96348   0.00000  Uiso   1.00
C10    C     0.21229   0.91149   0.91972   0.00000  Uiso   1.00
C11    C     0.19906   0.95554   0.93899   0.00000  Uiso   1.00
C12    C     0.28071   0.99428   0.93807   0.00000  Uiso   1.00
C13    C     0.38976   0.06808   0.94521   0.00000  Uiso   1.00
C14    C     0.30166   0.85492   0.88115   0.00000  Uiso   1.00
C15    C     0.19350   0.85565   0.86326   0.00000  Uiso   1.00
C16    C     0.18239   0.85174   0.83122   0.00000  Uiso   1.00
C17    C     0.07635   0.85320   0.81935   0.00000  Uiso   1.00
C18    C     0.29213   0.80933   0.90455   0.00000  Uiso   1.00
C19    C     0.36397   0.76648   0.90722   0.00000  Uiso   1.00
C20    C     0.34098   0.72895   0.93011   0.00000  Uiso   1.00
C21    C     0.30385   0.90630   0.90023   0.00000  Uiso   1.00
C22    C     0.38554   0.94498   0.89928   0.00000  Uiso   1.00
C23    C     0.37243   0.98908   0.91854   0.00000  Uiso   1.00
H24    H     0.06183   0.86850   0.93221   0.00000  Uiso   1.00
H25    H     0.92507   0.86631   0.88602   0.00000  Uiso   1.00
H26    H     0.10663   0.78107   0.96201   0.00000  Uiso   1.00
H27    H     0.12820   0.95954   0.95406   0.00000  Uiso   1.00
H28    H     0.81383   0.86158   0.82621   0.00000  Uiso   1.00
H29    H     0.19668   0.68186   0.98645   0.00000  Uiso   1.00
H30    H     0.24215   0.05819   0.96970   0.00000  Uiso   1.00
H31    H     0.37294   0.85088   0.86597   0.00000  Uiso   1.00
H32    H     0.25326   0.84773   0.81615   0.00000  Uiso   1.00
H33    H     0.43482   0.76248   0.89214   0.00000  Uiso   1.00
H34    H     0.45638   0.94095   0.88420   0.00000  Uiso   1.00
H35    H     0.08019   0.84649   0.76950   0.00000  Uiso   1.00
H36    H     0.46305   0.66677   0.92974   0.00000  Uiso   1.00
H37    H     0.50852   0.04310   0.91299   0.00000  Uiso   1.00
O38    O     0.86266   0.85226   0.76627   0.00000  Uiso   1.00
O39    O     0.36496   0.61648   0.97650   0.00000  Uiso   1.00
O40    O     0.42461   0.11022   0.95453   0.00000  Uiso   1.00
N41    N     0.89294   0.85847   0.81970   0.00000  Uiso   1.00
N42    N     0.25087   0.69044   0.96951   0.00000  Uiso   1.00
N43    N     0.29340   0.04227   0.95386   0.00000  Uiso   1.00
N44    N     0.03627   0.85036   0.78919   0.00000  Uiso   1.00
N45    N     0.39421   0.68232   0.93900   0.00000  Uiso   1.00
N46    N     0.43673   0.03415   0.92335   0.00000  Uiso   1.00
C47    C     0.86839   0.70916   0.91696   0.00000  Uiso   1.00
C48    C     0.89944   0.71190   0.88264   0.00000  Uiso   1.00
C49    C     0.00535   0.70948   0.87078   0.00000  Uiso   1.00
C50    C     0.01653   0.71268   0.83870   0.00000  Uiso   1.00
C51    C     0.07867   0.71614   0.78838   0.00000  Uiso   1.00
C52    C     0.80241   0.75970   0.92366   0.00000  Uiso   1.00
C53    C     0.82674   0.79746   0.94629   0.00000  Uiso   1.00
C54    C     0.75623   0.84089   0.94875   0.00000  Uiso   1.00
C55    C     0.66768   0.91854   0.96213   0.00000  Uiso   1.00
C56    C     0.78786   0.66275   0.91999   0.00000  Uiso   1.00
C57    C     0.79993   0.61899   0.93954   0.00000  Uiso   1.00
C58    C     0.71715   0.58080   0.93892   0.00000  Uiso   1.00
C59    C     0.60601   0.50790   0.94660   0.00000  Uiso   1.00
C60    C     0.69990   0.71917   0.88109   0.00000  Uiso   1.00
C61    C     0.80792   0.71734   0.86316   0.00000  Uiso   1.00
C62    C     0.81894   0.72055   0.83109   0.00000  Uiso   1.00
C63    C     0.92485   0.71812   0.81918   0.00000  Uiso   1.00
C64    C     0.71090   0.76514   0.90418   0.00000  Uiso   1.00
C65    C     0.64033   0.80853   0.90661   0.00000  Uiso   1.00
C66    C     0.66455   0.84634   0.92923   0.00000  Uiso   1.00
C67    C     0.69634   0.66818   0.90051   0.00000  Uiso   1.00
C68    C     0.61352   0.63006   0.89986   0.00000  Uiso   1.00
C69    C     0.62547   0.58624   0.91940   0.00000  Uiso   1.00
H70    H     0.93963   0.70493   0.93213   0.00000  Uiso   1.00
H71    H     0.07615   0.70527   0.88586   0.00000  Uiso   1.00
H72    H     0.89756   0.79324   0.96137   0.00000  Uiso   1.00
H73    H     0.87076   0.61479   0.95462   0.00000  Uiso   1.00
H74    H     0.18716   0.70807   0.82598   0.00000  Uiso   1.00
H75    H     0.81056   0.89353   0.98519   0.00000  Uiso   1.00
H76    H     0.75404   0.51725   0.97096   0.00000  Uiso   1.00
H77    H     0.62865   0.72340   0.86592   0.00000  Uiso   1.00
H78    H     0.74811   0.72476   0.81602   0.00000  Uiso   1.00
H79    H     0.56951   0.81272   0.89153   0.00000  Uiso   1.00
H80    H     0.54272   0.63428   0.88478   0.00000  Uiso   1.00
H81    H     0.92090   0.72388   0.76930   0.00000  Uiso   1.00
H82    H     0.54430   0.90935   0.92851   0.00000  Uiso   1.00
H83    H     0.48779   0.53306   0.91427   0.00000  Uiso   1.00
O84    O     0.13823   0.71655   0.76601   0.00000  Uiso   1.00
O85    O     0.64413   0.95987   0.97489   0.00000  Uiso   1.00
O86    O     0.56999   0.46619   0.95621   0.00000  Uiso   1.00
N87    N     0.10810   0.71159   0.81949   0.00000  Uiso   1.00
N88    N     0.75601   0.88500   0.96833   0.00000  Uiso   1.00
N89    N     0.70316   0.53321   0.95503   0.00000  Uiso   1.00
N90    N     0.96483   0.72010   0.78899   0.00000  Uiso   1.00
N91    N     0.61274   0.89351   0.93783   0.00000  Uiso   1.00
N92    N     0.55989   0.54172   0.92453   0.00000  Uiso   1.00
C93    C     0.36690   0.63554   0.41703   0.00000  Uiso   1.00
C94    C     0.39806   0.63916   0.38275   0.00000  Uiso   1.00
C95    C     0.50410   0.63770   0.37092   0.00000  Uiso   1.00
C96    C     0.51536   0.64161   0.33888   0.00000  Uiso   1.00
C97    C     0.57768   0.64648   0.28861   0.00000  Uiso   1.00
C98    C     0.29942   0.68548   0.42404   0.00000  Uiso   1.00
C99    C     0.32252   0.72296   0.44693   0.00000  Uiso   1.00
C100   C     0.25074   0.76585   0.44963   0.00000  Uiso   1.00
C101   C     0.15986   0.84261   0.46348   0.00000  Uiso   1.00
C102   C     0.28771   0.58851   0.41972   0.00000  Uiso   1.00
C103   C     0.30094   0.54446   0.43899   0.00000  Uiso   1.00
C104   C     0.21929   0.50572   0.43807   0.00000  Uiso   1.00
C105   C     0.11024   0.43192   0.44521   0.00000  Uiso   1.00
C106   C     0.19834   0.64508   0.38115   0.00000  Uiso   1.00
C107   C     0.30650   0.64435   0.36326   0.00000  Uiso   1.00
C108   C     0.31761   0.64826   0.33122   0.00000  Uiso   1.00
C109   C     0.42365   0.64680   0.31935   0.00000  Uiso   1.00
C110   C     0.20787   0.69067   0.40455   0.00000  Uiso   1.00
C111   C     0.13603   0.73352   0.40722   0.00000  Uiso   1.00
C112   C     0.15902   0.77105   0.43011   0.00000  Uiso   1.00
C113   C     0.19615   0.59370   0.40023   0.00000  Uiso   1.00
C114   C     0.11446   0.55502   0.39928   0.00000  Uiso   1.00
C115   C     0.12757   0.51092   0.41854   0.00000  Uiso   1.00
H116   H     0.43817   0.63150   0.43221   0.00000  Uiso   1.00
H117   H     0.57493   0.63369   0.38602   0.00000  Uiso   1.00
H118   H     0.39337   0.71893   0.46201   0.00000  Uiso   1.00
H119   H     0.37180   0.54046   0.45406   0.00000  Uiso   1.00
H120   H     0.68617   0.63842   0.32621   0.00000  Uiso   1.00
H121   H     0.30332   0.81814   0.48645   0.00000  Uiso   1.00
H122   H     0.25785   0.44181   0.46970   0.00000  Uiso   1.00
H123   H     0.12706   0.64912   0.36597   0.00000  Uiso   1.00
H124   H     0.24674   0.65227   0.31615   0.00000  Uiso   1.00
H125   H     0.06518   0.73752   0.39214   0.00000  Uiso   1.00
H126   H     0.04362   0.55905   0.38420   0.00000  Uiso   1.00
H127   H     0.41981   0.65351   0.26950   0.00000  Uiso   1.00
H128   H     0.03695   0.83323   0.42974   0.00000  Uiso   1.00
H129   H     0.99148   0.45690   0.41299   0.00000  Uiso   1.00
O130   O     0.63734   0.64774   0.26627   0.00000  Uiso   1.00
O131   O     0.13504   0.88352   0.47650   0.00000  Uiso   1.00
O132   O     0.07539   0.38978   0.45453   0.00000  Uiso   1.00
N133   N     0.60706   0.64153   0.31970   0.00000  Uiso   1.00
N134   N     0.24913   0.80956   0.46951   0.00000  Uiso   1.00
N135   N     0.20660   0.45773   0.45386   0.00000  Uiso   1.00
N136   N     0.46373   0.64964   0.28919   0.00000  Uiso   1.00
N137   N     0.10579   0.81768   0.43900   0.00000  Uiso   1.00
N138   N     0.06327   0.46585   0.42335   0.00000  Uiso   1.00
C139   C     0.63161   0.79084   0.41696   0.00000  Uiso   1.00
C140   C     0.60056   0.78810   0.38264   0.00000  Uiso   1.00
C141   C     0.49465   0.79052   0.37078   0.00000  Uiso   1.00
C142   C     0.48347   0.78732   0.33870   0.00000  Uiso   1.00
C143   C     0.42133   0.78386   0.28838   0.00000  Uiso   1.00
C144   C     0.69759   0.74030   0.42366   0.00000  Uiso   1.00
C145   C     0.67326   0.70254   0.44629   0.00000  Uiso   1.00
C146   C     0.74377   0.65911   0.44875   0.00000  Uiso   1.00
C147   C     0.83232   0.58146   0.46213   0.00000  Uiso   1.00
C148   C     0.71214   0.83725   0.41999   0.00000  Uiso   1.00
C149   C     0.70007   0.88101   0.43954   0.00000  Uiso   1.00
C150   C     0.78285   0.91920   0.43892   0.00000  Uiso   1.00
C151   C     0.89399   0.99210   0.44660   0.00000  Uiso   1.00
C152   C     0.80010   0.78083   0.38109   0.00000  Uiso   1.00
C153   C     0.69208   0.78266   0.36316   0.00000  Uiso   1.00
C154   C     0.68106   0.77945   0.33109   0.00000  Uiso   1.00
C155   C     0.57515   0.78188   0.31918   0.00000  Uiso   1.00
C156   C     0.78910   0.73486   0.40418   0.00000  Uiso   1.00
C157   C     0.85967   0.69147   0.40661   0.00000  Uiso   1.00
C158   C     0.83545   0.65366   0.42923   0.00000  Uiso   1.00
C159   C     0.80366   0.83182   0.40051   0.00000  Uiso   1.00
C160   C     0.88648   0.86994   0.39986   0.00000  Uiso   1.00
C161   C     0.87453   0.91376   0.41940   0.00000  Uiso   1.00
H162   H     0.56037   0.79507   0.43213   0.00000  Uiso   1.00
H163   H     0.42385   0.79473   0.38586   0.00000  Uiso   1.00
H164   H     0.60244   0.70676   0.46137   0.00000  Uiso   1.00
H165   H     0.62924   0.88521   0.45462   0.00000  Uiso   1.00
H166   H     0.31284   0.79193   0.32598   0.00000  Uiso   1.00
H167   H     0.68944   0.60647   0.48519   0.00000  Uiso   1.00
H168   H     0.74596   0.98275   0.47096   0.00000  Uiso   1.00
H169   H     0.87135   0.77660   0.36592   0.00000  Uiso   1.00
H170   H     0.75189   0.77524   0.31602   0.00000  Uiso   1.00
H171   H     0.93049   0.68728   0.39153   0.00000  Uiso   1.00
H172   H     0.95728   0.86572   0.38478   0.00000  Uiso   1.00
H173   H     0.57910   0.77612   0.26930   0.00000  Uiso   1.00
H174   H     0.95570   0.59065   0.42851   0.00000  Uiso   1.00
H175   H     0.01221   0.96694   0.41427   0.00000  Uiso   1.00
O176   O     0.36177   0.78345   0.26601   0.00000  Uiso   1.00
O177   O     0.85587   0.54013   0.47489   0.00000  Uiso   1.00
O178   O     0.93001   0.03381   0.45621   0.00000  Uiso   1.00
N179   N     0.39190   0.78841   0.31949   0.00000  Uiso   1.00
N180   N     0.74399   0.61500   0.46833   0.00000  Uiso   1.00
N181   N     0.79684   0.96679   0.45503   0.00000  Uiso   1.00
N182   N     0.53517   0.77990   0.28899   0.00000  Uiso   1.00
N183   N     0.88726   0.60649   0.43783   0.00000  Uiso   1.00
N184   N     0.94011   0.95828   0.42453   0.00000  Uiso   1.00
C185   C     0.86690   0.86446   0.58297   0.00000  Uiso   1.00
C186   C     0.89806   0.86084   0.61725   0.00000  Uiso   1.00
C187   C     0.00410   0.86230   0.62908   0.00000  Uiso   1.00
C188   C     0.01536   0.85839   0.66112   0.00000  Uiso   1.00
C189   C     0.07768   0.85352   0.71139   0.00000  Uiso   1.00
C190   C     0.79942   0.81452   0.57596   0.00000  Uiso   1.00
C191   C     0.82252   0.77704   0.55307   0.00000  Uiso   1.00
C192   C     0.75074   0.73415   0.55037   0.00000  Uiso   1.00
C193   C     0.65986   0.65739   0.53652   0.00000  Uiso   1.00
C194   C     0.78771   0.91149   0.58028   0.00000  Uiso   1.00
C195   C     0.80094   0.95554   0.56101   0.00000  Uiso   1.00
C196   C     0.71929   0.99428   0.56193   0.00000  Uiso   1.00
C197   C     0.61024   0.06808   0.55479   0.00000  Uiso   1.00
C198   C     0.69834   0.85492   0.61885   0.00000  Uiso   1.00
C199   C     0.80650   0.85565   0.63674   0.00000  Uiso   1.00
C200   C     0.81761   0.85174   0.66878   0.00000  Uiso   1.00
C201   C     0.92365   0.85320   0.68065   0.00000  Uiso   1.00
C202   C     0.70787   0.80933   0.59545   0.00000  Uiso   1.00
C203   C     0.63603   0.76648   0.59278   0.00000  Uiso   1.00
C204   C     0.65902   0.72895   0.56989   0.00000  Uiso   1.00
C205   C     0.69615   0.90630   0.59977   0.00000  Uiso   1.00
C206   C     0.61446   0.94498   0.60072   0.00000  Uiso   1.00
C207   C     0.62757   0.98908   0.58146   0.00000  Uiso   1.00
H208   H     0.93817   0.86850   0.56779   0.00000  Uiso   1.00
H209   H     0.07493   0.86631   0.61398   0.00000  Uiso   1.00
H210   H     0.89337   0.78107   0.53799   0.00000  Uiso   1.00
H211   H     0.87180   0.95954   0.54594   0.00000  Uiso   1.00
H212   H     0.18617   0.86158   0.67379   0.00000  Uiso   1.00
H213   H     0.80332   0.68186   0.51355   0.00000  Uiso   1.00
H214   H     0.75785   0.05819   0.53030   0.00000  Uiso   1.00
H215   H     0.62706   0.85088   0.63403   0.00000  Uiso   1.00
H216   H     0.74674   0.84773   0.68385   0.00000  Uiso   1.00
H217   H     0.56518   0.76248   0.60786   0.00000  Uiso   1.00
H218   H     0.54362   0.94095   0.61580   0.00000  Uiso   1.00
H219   H     0.91981   0.84649   0.73050   0.00000  Uiso   1.00
H220   H     0.53695   0.66677   0.57026   0.00000  Uiso   1.00
H221   H     0.49148   0.04310   0.58701   0.00000  Uiso   1.00
O222   O     0.13734   0.85226   0.73373   0.00000  Uiso   1.00
O223   O     0.63504   0.61648   0.52350   0.00000  Uiso   1.00
O224   O     0.57539   0.11022   0.54547   0.00000  Uiso   1.00
N225   N     0.10706   0.85847   0.68030   0.00000  Uiso   1.00
N226   N     0.74913   0.69044   0.53049   0.00000  Uiso   1.00
N227   N     0.70660   0.04227   0.54614   0.00000  Uiso   1.00
N228   N     0.96373   0.85036   0.71081   0.00000  Uiso   1.00
N229   N     0.60579   0.68232   0.56100   0.00000  Uiso   1.00
N230   N     0.56327   0.03415   0.57665   0.00000  Uiso   1.00
C231   C     0.13161   0.70916   0.58304   0.00000  Uiso   1.00
C232   C     0.10056   0.71190   0.61736   0.00000  Uiso   1.00
C233   C     0.99465   0.70948   0.62922   0.00000  Uiso   1.00
C234   C     0.98347   0.71268   0.66130   0.00000  Uiso   1.00
C235   C     0.92133   0.71614   0.71162   0.00000  Uiso   1.00
C236   C     0.19759   0.75970   0.57634   0.00000  Uiso   1.00
C237   C     0.17326   0.79746   0.55371   0.00000  Uiso   1.00
C238   C     0.24377   0.84089   0.55125   0.00000  Uiso   1.00
C239   C     0.33232   0.91854   0.53787   0.00000  Uiso   1.00
C240   C     0.21214   0.66275   0.58001   0.00000  Uiso   1.00
C241   C     0.20007   0.61899   0.56046   0.00000  Uiso   1.00
C242   C     0.28285   0.58080   0.56108   0.00000  Uiso   1.00
C243   C     0.39399   0.50790   0.55340   0.00000  Uiso   1.00
C244   C     0.30010   0.71917   0.61891   0.00000  Uiso   1.00
C245   C     0.19208   0.71734   0.63684   0.00000  Uiso   1.00
C246   C     0.18106   0.72055   0.66891   0.00000  Uiso   1.00
C247   C     0.07515   0.71812   0.68082   0.00000  Uiso   1.00
C248   C     0.28910   0.76514   0.59582   0.00000  Uiso   1.00
C249   C     0.35967   0.80853   0.59339   0.00000  Uiso   1.00
C250   C     0.33545   0.84634   0.57077   0.00000  Uiso   1.00
C251   C     0.30366   0.66818   0.59949   0.00000  Uiso   1.00
C252   C     0.38648   0.63006   0.60014   0.00000  Uiso   1.00
C253   C     0.37453   0.58624   0.58060   0.00000  Uiso   1.00
H254   H     0.06037   0.70493   0.56787   0.00000  Uiso   1.00
H255   H     0.92385   0.70527   0.61414   0.00000  Uiso   1.00
H256   H     0.10244   0.79324   0.53863   0.00000  Uiso   1.00
H257   H     0.12924   0.61479   0.54538   0.00000  Uiso   1.00
H258   H     0.81284   0.70807   0.67402   0.00000  Uiso   1.00
H259   H     0.18944   0.89353   0.51481   0.00000  Uiso   1.00
H260   H     0.24596   0.51725   0.52904   0.00000  Uiso   1.00
H261   H     0.37135   0.72340   0.63408   0.00000  Uiso   1.00
H262   H     0.25189   0.72476   0.68398   0.00000  Uiso   1.00
H263   H     0.43049   0.81272   0.60847   0.00000  Uiso   1.00
H264   H     0.45728   0.63428   0.61522   0.00000  Uiso   1.00
H265   H     0.07910   0.72388   0.73070   0.00000  Uiso   1.00
H266   H     0.45570   0.90935   0.57149   0.00000  Uiso   1.00
H267   H     0.51221   0.53306   0.58573   0.00000  Uiso   1.00
O268   O     0.86177   0.71655   0.73399   0.00000  Uiso   1.00
O269   O     0.35587   0.95987   0.52511   0.00000  Uiso   1.00
O270   O     0.43001   0.46619   0.54379   0.00000  Uiso   1.00
N271   N     0.89190   0.71159   0.68051   0.00000  Uiso   1.00
N272   N     0.24399   0.88500   0.53167   0.00000  Uiso   1.00
N273   N     0.29684   0.53321   0.54497   0.00000  Uiso   1.00
N274   N     0.03517   0.72010   0.71101   0.00000  Uiso   1.00
N275   N     0.38726   0.89351   0.56217   0.00000  Uiso   1.00
N276   N     0.44011   0.54172   0.57547   0.00000  Uiso   1.00
C277   C     0.63310   0.63554   0.08297   0.00000  Uiso   1.00
C278   C     0.60194   0.63916   0.11725   0.00000  Uiso   1.00
C279   C     0.49590   0.63770   0.12908   0.00000  Uiso   1.00
C280   C     0.48464   0.64161   0.16112   0.00000  Uiso   1.00
C281   C     0.42232   0.64648   0.21139   0.00000  Uiso   1.00
C282   C     0.70058   0.68548   0.07596   0.00000  Uiso   1.00
C283   C     0.67748   0.72296   0.05307   0.00000  Uiso   1.00
C284   C     0.74926   0.76585   0.05037   0.00000  Uiso   1.00
C285   C     0.84014   0.84261   0.03652   0.00000  Uiso   1.00
C286   C     0.71229   0.58851   0.08028   0.00000  Uiso   1.00
C287   C     0.69906   0.54446   0.06101   0.00000  Uiso   1.00
C288   C     0.78071   0.50572   0.06193   0.00000  Uiso   1.00
C289   C     0.88976   0.43192   0.05479   0.00000  Uiso   1.00
C290   C     0.80166   0.64508   0.11885   0.00000  Uiso   1.00
C291   C     0.69350   0.64435   0.13674   0.00000  Uiso   1.00
C292   C     0.68239   0.64826   0.16878   0.00000  Uiso   1.00
C293   C     0.57635   0.64680   0.18065   0.00000  Uiso   1.00
C294   C     0.79213   0.69067   0.09545   0.00000  Uiso   1.00
C295   C     0.86397   0.73352   0.09278   0.00000  Uiso   1.00
C296   C     0.84098   0.77105   0.06989   0.00000  Uiso   1.00
C297   C     0.80385   0.59370   0.09977   0.00000  Uiso   1.00
C298   C     0.88554   0.55502   0.10072   0.00000  Uiso   1.00
C299   C     0.87243   0.51092   0.08146   0.00000  Uiso   1.00
H300   H     0.56183   0.63150   0.06779   0.00000  Uiso   1.00
H301   H     0.42507   0.63369   0.11398   0.00000  Uiso   1.00
H302   H     0.60663   0.71893   0.03799   0.00000  Uiso   1.00
H303   H     0.62820   0.54046   0.04594   0.00000  Uiso   1.00
H304   H     0.31383   0.63842   0.17379   0.00000  Uiso   1.00
H305   H     0.69668   0.81814   0.01355   0.00000  Uiso   1.00
H306   H     0.74215   0.44181   0.03030   0.00000  Uiso   1.00
H307   H     0.87294   0.64912   0.13403   0.00000  Uiso   1.00
H308   H     0.75326   0.65227   0.18385   0.00000  Uiso   1.00
H309   H     0.93482   0.73752   0.10786   0.00000  Uiso   1.00
H310   H     0.95638   0.55905   0.11580   0.00000  Uiso   1.00
H311   H     0.58019   0.65351   0.23050   0.00000  Uiso   1.00
H312   H     0.96305   0.83323   0.07026   0.00000  Uiso   1.00
H313   H     0.00852   0.45690   0.08701   0.00000  Uiso   1.00
O314   O     0.36266   0.64774   0.23373   0.00000  Uiso   1.00
O315   O     0.86496   0.88352   0.02350   0.00000  Uiso   1.00
O316   O     0.92461   0.38978   0.04547   0.00000  Uiso   1.00
N317   N     0.39294   0.64153   0.18030   0.00000  Uiso   1.00
N318   N     0.75087   0.80956   0.03049   0.00000  Uiso   1.00
N319   N     0.79340   0.45773   0.04614   0.00000  Uiso   1.00
N320   N     0.53627   0.64964   0.21081   0.00000  Uiso   1.00
N321   N     0.89421   0.81768   0.06100   0.00000  Uiso   1.00
N322   N     0.93673   0.46585   0.07665   0.00000  Uiso   1.00
C323   C     0.36839   0.79084   0.08304   0.00000  Uiso   1.00
C324   C     0.39944   0.78810   0.11736   0.00000  Uiso   1.00
C325   C     0.50535   0.79052   0.12922   0.00000  Uiso   1.00
C326   C     0.51653   0.78732   0.16130   0.00000  Uiso   1.00
C327   C     0.57867   0.78386   0.21162   0.00000  Uiso   1.00
C328   C     0.30241   0.74030   0.07634   0.00000  Uiso   1.00
C329   C     0.32674   0.70254   0.05371   0.00000  Uiso   1.00
C330   C     0.25623   0.65911   0.05125   0.00000  Uiso   1.00
C331   C     0.16768   0.58146   0.03787   0.00000  Uiso   1.00
C332   C     0.28786   0.83725   0.08001   0.00000  Uiso   1.00
C333   C     0.29993   0.88101   0.06046   0.00000  Uiso   1.00
C334   C     0.21715   0.91920   0.06108   0.00000  Uiso   1.00
C335   C     0.10601   0.99210   0.05340   0.00000  Uiso   1.00
C336   C     0.19990   0.78083   0.11891   0.00000  Uiso   1.00
C337   C     0.30792   0.78266   0.13684   0.00000  Uiso   1.00
C338   C     0.31894   0.77945   0.16891   0.00000  Uiso   1.00
C339   C     0.42485   0.78188   0.18082   0.00000  Uiso   1.00
C340   C     0.21090   0.73486   0.09582   0.00000  Uiso   1.00
C341   C     0.14033   0.69147   0.09339   0.00000  Uiso   1.00
C342   C     0.16455   0.65366   0.07077   0.00000  Uiso   1.00
C343   C     0.19634   0.83182   0.09949   0.00000  Uiso   1.00
C344   C     0.11352   0.86994   0.10014   0.00000  Uiso   1.00
C345   C     0.12547   0.91376   0.08060   0.00000  Uiso   1.00
H346   H     0.43963   0.79507   0.06787   0.00000  Uiso   1.00
H347   H     0.57615   0.79473   0.11414   0.00000  Uiso   1.00
H348   H     0.39756   0.70676   0.03863   0.00000  Uiso   1.00
H349   H     0.37076   0.88521   0.04538   0.00000  Uiso   1.00
H350   H     0.68716   0.79193   0.17402   0.00000  Uiso   1.00
H351   H     0.31056   0.60647   0.01481   0.00000  Uiso   1.00
H352   H     0.25404   0.98275   0.02904   0.00000  Uiso   1.00
H353   H     0.12865   0.77660   0.13408   0.00000  Uiso   1.00
H354   H     0.24811   0.77524   0.18398   0.00000  Uiso   1.00
H355   H     0.06951   0.68728   0.10847   0.00000  Uiso   1.00
H356   H     0.04272   0.86572   0.11522   0.00000  Uiso   1.00
H357   H     0.42090   0.77612   0.23070   0.00000  Uiso   1.00
H358   H     0.04430   0.59065   0.07149   0.00000  Uiso   1.00
H359   H     0.98779   0.96694   0.08573   0.00000  Uiso   1.00
O360   O     0.63823   0.78345   0.23399   0.00000  Uiso   1.00
O361   O     0.14413   0.54013   0.02511   0.00000  Uiso   1.00
O362   O     0.06999   0.03381   0.04379   0.00000  Uiso   1.00
N363   N     0.60810   0.78841   0.18051   0.00000  Uiso   1.00
N364   N     0.25601   0.61500   0.03167   0.00000  Uiso   1.00
N365   N     0.20316   0.96679   0.04497   0.00000  Uiso   1.00
N366   N     0.46483   0.77990   0.21101   0.00000  Uiso   1.00
N367   N     0.11274   0.60649   0.06217   0.00000  Uiso   1.00
N368   N     0.05989   0.95828   0.07547   0.00000  Uiso   1.00
C369   C     0.86690   0.13554   0.08297   0.00000  Uiso   1.00
C370   C     0.89806   0.13916   0.11725   0.00000  Uiso   1.00
C371   C     0.00410   0.13770   0.12908   0.00000  Uiso   1.00
C372   C     0.01536   0.14161   0.16112   0.00000  Uiso   1.00
C373   C     0.07768   0.14648   0.21139   0.00000  Uiso   1.00
C374   C     0.79942   0.18548   0.07596   0.00000  Uiso   1.00
C375   C     0.82252   0.22296   0.05307   0.00000  Uiso   1.00
C376   C     0.75074   0.26585   0.05037   0.00000  Uiso   1.00
C377   C     0.65986   0.34261   0.03652   0.00000  Uiso   1.00
C378   C     0.78771   0.08851   0.08028   0.00000  Uiso   1.00
C379   C     0.80094   0.04446   0.06101   0.00000  Uiso   1.00
C380   C     0.71929   0.00572   0.06193   0.00000  Uiso   1.00
C381   C     0.61024   0.93192   0.05479   0.00000  Uiso   1.00
C382   C     0.69834   0.14508   0.11885   0.00000  Uiso   1.00
C383   C     0.80650   0.14435   0.13674   0.00000  Uiso   1.00
C384   C     0.81761   0.14826   0.16878   0.00000  Uiso   1.00
C385   C     0.92365   0.14680   0.18065   0.00000  Uiso   1.00
C386   C     0.70787   0.19067   0.09545   0.00000  Uiso   1.00
C387   C     0.63603   0.23352   0.09278   0.00000  Uiso   1.00
C388   C     0.65902   0.27105   0.06989   0.00000  Uiso   1.00
C389   C     0.69615   0.09370   0.09977   0.00000  Uiso   1.00
C390   C     0.61446   0.05502   0.10072   0.00000  Uiso   1.00
C391   C     0.62757   0.01092   0.08146   0.00000  Uiso   1.00
H392   H     0.93817   0.13150   0.06779   0.00000  Uiso   1.00
H393   H     0.07493   0.13369   0.11398   0.00000  Uiso   1.00
H394   H     0.89337   0.21893   0.03799   0.00000  Uiso   1.00
H395   H     0.87180   0.04046   0.04594   0.00000  Uiso   1.00
H396   H     0.18617   0.13842   0.17379   0.00000  Uiso   1.00
H397   H     0.80332   0.31814   0.01355   0.00000  Uiso   1.00
H398   H     0.75785   0.94181   0.03030   0.00000  Uiso   1.00
H399   H     0.62706   0.14912   0.13403   0.00000  Uiso   1.00
H400   H     0.74674   0.15227   0.18385   0.00000  Uiso   1.00
H401   H     0.56518   0.23752   0.10786   0.00000  Uiso   1.00
H402   H     0.54362   0.05905   0.11580   0.00000  Uiso   1.00
H403   H     0.91981   0.15351   0.23050   0.00000  Uiso   1.00
H404   H     0.53695   0.33323   0.07026   0.00000  Uiso   1.00
H405   H     0.49148   0.95690   0.08701   0.00000  Uiso   1.00
O406   O     0.13734   0.14774   0.23373   0.00000  Uiso   1.00
O407   O     0.63504   0.38352   0.02350   0.00000  Uiso   1.00
O408   O     0.57539   0.88978   0.04547   0.00000  Uiso   1.00
N409   N     0.10706   0.14153   0.18030   0.00000  Uiso   1.00
N410   N     0.74913   0.30956   0.03049   0.00000  Uiso   1.00
N411   N     0.70660   0.95773   0.04614   0.00000  Uiso   1.00
N412   N     0.96373   0.14964   0.21081   0.00000  Uiso   1.00
N413   N     0.60579   0.31768   0.06100   0.00000  Uiso   1.00
N414   N     0.56327   0.96585   0.07665   0.00000  Uiso   1.00
C415   C     0.13161   0.29084   0.08304   0.00000  Uiso   1.00
C416   C     0.10056   0.28810   0.11736   0.00000  Uiso   1.00
C417   C     0.99465   0.29052   0.12922   0.00000  Uiso   1.00
C418   C     0.98347   0.28732   0.16130   0.00000  Uiso   1.00
C419   C     0.92133   0.28386   0.21162   0.00000  Uiso   1.00
C420   C     0.19759   0.24030   0.07634   0.00000  Uiso   1.00
C421   C     0.17326   0.20254   0.05371   0.00000  Uiso   1.00
C422   C     0.24377   0.15911   0.05125   0.00000  Uiso   1.00
C423   C     0.33232   0.08146   0.03787   0.00000  Uiso   1.00
C424   C     0.21214   0.33725   0.08001   0.00000  Uiso   1.00
C425   C     0.20007   0.38101   0.06046   0.00000  Uiso   1.00
C426   C     0.28285   0.41920   0.06108   0.00000  Uiso   1.00
C427   C     0.39399   0.49210   0.05340   0.00000  Uiso   1.00
C428   C     0.30010   0.28083   0.11891   0.00000  Uiso   1.00
C429   C     0.19208   0.28266   0.13684   0.00000  Uiso   1.00
C430   C     0.18106   0.27945   0.16891   0.00000  Uiso   1.00
C431   C     0.07515   0.28188   0.18082   0.00000  Uiso   1.00
C432   C     0.28910   0.23486   0.09582   0.00000  Uiso   1.00
C433   C     0.35967   0.19147   0.09339   0.00000  Uiso   1.00
C434   C     0.33545   0.15366   0.07077   0.00000  Uiso   1.00
C435   C     0.30366   0.33182   0.09949   0.00000  Uiso   1.00
C436   C     0.38648   0.36994   0.10014   0.00000  Uiso   1.00
C437   C     0.37453   0.41376   0.08060   0.00000  Uiso   1.00
H438   H     0.06037   0.29507   0.06787   0.00000  Uiso   1.00
H439   H     0.92385   0.29473   0.11414   0.00000  Uiso   1.00
H440   H     0.10244   0.20676   0.03863   0.00000  Uiso   1.00
H441   H     0.12924   0.38521   0.04538   0.00000  Uiso   1.00
H442   H     0.81284   0.29193   0.17402   0.00000  Uiso   1.00
H443   H     0.18944   0.10647   0.01481   0.00000  Uiso   1.00
H444   H     0.24596   0.48275   0.02904   0.00000  Uiso   1.00
H445   H     0.37135   0.27660   0.13408   0.00000  Uiso   1.00
H446   H     0.25189   0.27524   0.18398   0.00000  Uiso   1.00
H447   H     0.43049   0.18728   0.10847   0.00000  Uiso   1.00
H448   H     0.45728   0.36572   0.11522   0.00000  Uiso   1.00
H449   H     0.07910   0.27612   0.23070   0.00000  Uiso   1.00
H450   H     0.45570   0.09065   0.07149   0.00000  Uiso   1.00
H451   H     0.51221   0.46694   0.08573   0.00000  Uiso   1.00
O452   O     0.86177   0.28345   0.23399   0.00000  Uiso   1.00
O453   O     0.35587   0.04013   0.02511   0.00000  Uiso   1.00
O454   O     0.43001   0.53381   0.04379   0.00000  Uiso   1.00
N455   N     0.89190   0.28841   0.18051   0.00000  Uiso   1.00
N456   N     0.24399   0.11500   0.03167   0.00000  Uiso   1.00
N457   N     0.29684   0.46679   0.04497   0.00000  Uiso   1.00
N458   N     0.03517   0.27990   0.21101   0.00000  Uiso   1.00
N459   N     0.38726   0.10649   0.06217   0.00000  Uiso   1.00
N460   N     0.44011   0.45828   0.07547   0.00000  Uiso   1.00
C461   C     0.63310   0.36446   0.58297   0.00000  Uiso   1.00
C462   C     0.60194   0.36084   0.61725   0.00000  Uiso   1.00
C463   C     0.49590   0.36230   0.62908   0.00000  Uiso   1.00
C464   C     0.48464   0.35839   0.66112   0.00000  Uiso   1.00
C465   C     0.42232   0.35352   0.71139   0.00000  Uiso   1.00
C466   C     0.70058   0.31452   0.57596   0.00000  Uiso   1.00
C467   C     0.67748   0.27704   0.55307   0.00000  Uiso   1.00
C468   C     0.74926   0.23415   0.55037   0.00000  Uiso   1.00
C469   C     0.84014   0.15739   0.53652   0.00000  Uiso   1.00
C470   C     0.71229   0.41149   0.58028   0.00000  Uiso   1.00
C471   C     0.69906   0.45554   0.56101   0.00000  Uiso   1.00
C472   C     0.78071   0.49428   0.56193   0.00000  Uiso   1.00
C473   C     0.88976   0.56808   0.55479   0.00000  Uiso   1.00
C474   C     0.80166   0.35492   0.61885   0.00000  Uiso   1.00
C475   C     0.69350   0.35565   0.63674   0.00000  Uiso   1.00
C476   C     0.68239   0.35174   0.66878   0.00000  Uiso   1.00
C477   C     0.57635   0.35320   0.68065   0.00000  Uiso   1.00
C478   C     0.79213   0.30933   0.59545   0.00000  Uiso   1.00
C479   C     0.86397   0.26648   0.59278   0.00000  Uiso   1.00
C480   C     0.84098   0.22895   0.56989   0.00000  Uiso   1.00
C481   C     0.80385   0.40630   0.59977   0.00000  Uiso   1.00
C482   C     0.88554   0.44498   0.60072   0.00000  Uiso   1.00
C483   C     0.87243   0.48908   0.58146   0.00000  Uiso   1.00
H484   H     0.56183   0.36850   0.56779   0.00000  Uiso   1.00
H485   H     0.42507   0.36631   0.61398   0.00000  Uiso   1.00
H486   H     0.60663   0.28107   0.53799   0.00000  Uiso   1.00
H487   H     0.62820   0.45954   0.54594   0.00000  Uiso   1.00
H488   H     0.31383   0.36158   0.67379   0.00000  Uiso   1.00
H489   H     0.69668   0.18186   0.51355   0.00000  Uiso   1.00
H490   H     0.74215   0.55819   0.53030   0.00000  Uiso   1.00
H491   H     0.87294   0.35088   0.63403   0.00000  Uiso   1.00
H492   H     0.75326   0.34773   0.68385   0.00000  Uiso   1.00
H493   H     0.93482   0.26248   0.60786   0.00000  Uiso   1.00
H494   H     0.95638   0.44095   0.61580   0.00000  Uiso   1.00
H495   H     0.58019   0.34649   0.73050   0.00000  Uiso   1.00
H496   H     0.96305   0.16677   0.57026   0.00000  Uiso   1.00
H497   H     0.00852   0.54310   0.58701   0.00000  Uiso   1.00
O498   O     0.36266   0.35226   0.73373   0.00000  Uiso   1.00
O499   O     0.86496   0.11648   0.52350   0.00000  Uiso   1.00
O500   O     0.92461   0.61022   0.54547   0.00000  Uiso   1.00
N501   N     0.39294   0.35847   0.68030   0.00000  Uiso   1.00
N502   N     0.75087   0.19044   0.53049   0.00000  Uiso   1.00
N503   N     0.79340   0.54227   0.54614   0.00000  Uiso   1.00
N504   N     0.53627   0.35036   0.71081   0.00000  Uiso   1.00
N505   N     0.89421   0.18232   0.56100   0.00000  Uiso   1.00
N506   N     0.93673   0.53415   0.57665   0.00000  Uiso   1.00
C507   C     0.36839   0.20916   0.58304   0.00000  Uiso   1.00
C508   C     0.39944   0.21190   0.61736   0.00000  Uiso   1.00
C509   C     0.50535   0.20948   0.62922   0.00000  Uiso   1.00
C510   C     0.51653   0.21268   0.66130   0.00000  Uiso   1.00
C511   C     0.57867   0.21614   0.71162   0.00000  Uiso   1.00
C512   C     0.30241   0.25970   0.57634   0.00000  Uiso   1.00
C513   C     0.32674   0.29746   0.55371   0.00000  Uiso   1.00
C514   C     0.25623   0.34089   0.55125   0.00000  Uiso   1.00
C515   C     0.16768   0.41854   0.53787   0.00000  Uiso   1.00
C516   C     0.28786   0.16275   0.58001   0.00000  Uiso   1.00
C517   C     0.29993   0.11899   0.56046   0.00000  Uiso   1.00
C518   C     0.21715   0.08080   0.56108   0.00000  Uiso   1.00
C519   C     0.10601   0.00790   0.55340   0.00000  Uiso   1.00
C520   C     0.19990   0.21917   0.61891   0.00000  Uiso   1.00
C521   C     0.30792   0.21734   0.63684   0.00000  Uiso   1.00
C522   C     0.31894   0.22055   0.66891   0.00000  Uiso   1.00
C523   C     0.42485   0.21812   0.68082   0.00000  Uiso   1.00
C524   C     0.21090   0.26514   0.59582   0.00000  Uiso   1.00
C525   C     0.14033   0.30853   0.59339   0.00000  Uiso   1.00
C526   C     0.16455   0.34634   0.57077   0.00000  Uiso   1.00
C527   C     0.19634   0.16818   0.59949   0.00000  Uiso   1.00
C528   C     0.11352   0.13006   0.60014   0.00000  Uiso   1.00
C529   C     0.12547   0.08624   0.58060   0.00000  Uiso   1.00
H530   H     0.43963   0.20493   0.56787   0.00000  Uiso   1.00
H531   H     0.57615   0.20527   0.61414   0.00000  Uiso   1.00
H532   H     0.39756   0.29324   0.53863   0.00000  Uiso   1.00
H533   H     0.37076   0.11479   0.54538   0.00000  Uiso   1.00
H534   H     0.68716   0.20807   0.67402   0.00000  Uiso   1.00
H535   H     0.31056   0.39353   0.51481   0.00000  Uiso   1.00
H536   H     0.25404   0.01725   0.52904   0.00000  Uiso   1.00
H537   H     0.12865   0.22340   0.63408   0.00000  Uiso   1.00
H538   H     0.24811   0.22476   0.68398   0.00000  Uiso   1.00
H539   H     0.06951   0.31272   0.60847   0.00000  Uiso   1.00
H540   H     0.04272   0.13428   0.61522   0.00000  Uiso   1.00
H541   H     0.42090   0.22388   0.73070   0.00000  Uiso   1.00
H542   H     0.04430   0.40935   0.57149   0.00000  Uiso   1.00
H543   H     0.98779   0.03306   0.58573   0.00000  Uiso   1.00
O544   O     0.63823   0.21655   0.73399   0.00000  Uiso   1.00
O545   O     0.14413   0.45987   0.52511   0.00000  Uiso   1.00
O546   O     0.06999   0.96619   0.54379   0.00000  Uiso   1.00
N547   N     0.60810   0.21159   0.68051   0.00000  Uiso   1.00
N548   N     0.25601   0.38500   0.53167   0.00000  Uiso   1.00
N549   N     0.20316   0.03321   0.54497   0.00000  Uiso   1.00
N550   N     0.46483   0.22010   0.71101   0.00000  Uiso   1.00
N551   N     0.11274   0.39351   0.56217   0.00000  Uiso   1.00
N552   N     0.05989   0.04172   0.57547   0.00000  Uiso   1.00
C553   C     0.13310   0.13554   0.41703   0.00000  Uiso   1.00
C554   C     0.10194   0.13916   0.38275   0.00000  Uiso   1.00
C555   C     0.99590   0.13770   0.37092   0.00000  Uiso   1.00
C556   C     0.98464   0.14161   0.33888   0.00000  Uiso   1.00
C557   C     0.92232   0.14648   0.28861   0.00000  Uiso   1.00
C558   C     0.20058   0.18548   0.42404   0.00000  Uiso   1.00
C559   C     0.17748   0.22296   0.44693   0.00000  Uiso   1.00
C560   C     0.24926   0.26585   0.44963   0.00000  Uiso   1.00
C561   C     0.34014   0.34261   0.46348   0.00000  Uiso   1.00
C562   C     0.21229   0.08851   0.41972   0.00000  Uiso   1.00
C563   C     0.19906   0.04446   0.43899   0.00000  Uiso   1.00
C564   C     0.28071   0.00572   0.43807   0.00000  Uiso   1.00
C565   C     0.38976   0.93192   0.44521   0.00000  Uiso   1.00
C566   C     0.30166   0.14508   0.38115   0.00000  Uiso   1.00
C567   C     0.19350   0.14435   0.36326   0.00000  Uiso   1.00
C568   C     0.18239   0.14826   0.33122   0.00000  Uiso   1.00
C569   C     0.07635   0.14680   0.31935   0.00000  Uiso   1.00
C570   C     0.29213   0.19067   0.40455   0.00000  Uiso   1.00
C571   C     0.36397   0.23352   0.40722   0.00000  Uiso   1.00
C572   C     0.34098   0.27105   0.43011   0.00000  Uiso   1.00
C573   C     0.30385   0.09370   0.40023   0.00000  Uiso   1.00
C574   C     0.38554   0.05502   0.39928   0.00000  Uiso   1.00
C575   C     0.37243   0.01092   0.41854   0.00000  Uiso   1.00
H576   H     0.06183   0.13150   0.43221   0.00000  Uiso   1.00
H577   H     0.92507   0.13369   0.38602   0.00000  Uiso   1.00
H578   H     0.10663   0.21893   0.46201   0.00000  Uiso   1.00
H579   H     0.12820   0.04046   0.45406   0.00000  Uiso   1.00
H580   H     0.81383   0.13842   0.32621   0.00000  Uiso   1.00
H581   H     0.19668   0.31814   0.48645   0.00000  Uiso   1.00
H582   H     0.24215   0.94181   0.46970   0.00000  Uiso   1.00
H583   H     0.37294   0.14912   0.36597   0.00000  Uiso   1.00
H584   H     0.25326   0.15227   0.31615   0.00000  Uiso   1.00
H585   H     0.43482   0.23752   0.39214   0.00000  Uiso   1.00
H586   H     0.45638   0.05905   0.38420   0.00000  Uiso   1.00
H587   H     0.08019   0.15351   0.26950   0.00000  Uiso   1.00
H588   H     0.46305   0.33323   0.42974   0.00000  Uiso   1.00
H589   H     0.50852   0.95690   0.41299   0.00000  Uiso   1.00
O590   O     0.86266   0.14774   0.26627   0.00000  Uiso   1.00
O591   O     0.36496   0.38352   0.47650   0.00000  Uiso   1.00
O592   O     0.42461   0.88978   0.45453   0.00000  Uiso   1.00
N593   N     0.89294   0.14153   0.31970   0.00000  Uiso   1.00
N594   N     0.25087   0.30956   0.46951   0.00000  Uiso   1.00
N595   N     0.29340   0.95773   0.45386   0.00000  Uiso   1.00
N596   N     0.03627   0.14964   0.28919   0.00000  Uiso   1.00
N597   N     0.39421   0.31768   0.43900   0.00000  Uiso   1.00
N598   N     0.43673   0.96585   0.42335   0.00000  Uiso   1.00
C599   C     0.86839   0.29084   0.41696   0.00000  Uiso   1.00
C600   C     0.89944   0.28810   0.38264   0.00000  Uiso   1.00
C601   C     0.00535   0.29052   0.37078   0.00000  Uiso   1.00
C602   C     0.01653   0.28732   0.33870   0.00000  Uiso   1.00
C603   C     0.07867   0.28386   0.28838   0.00000  Uiso   1.00
C604   C     0.80241   0.24030   0.42366   0.00000  Uiso   1.00
C605   C     0.82674   0.20254   0.44629   0.00000  Uiso   1.00
C606   C     0.75623   0.15911   0.44875   0.00000  Uiso   1.00
C607   C     0.66768   0.08146   0.46213   0.00000  Uiso   1.00
C608   C     0.78786   0.33725   0.41999   0.00000  Uiso   1.00
C609   C     0.79993   0.38101   0.43954   0.00000  Uiso   1.00
C610   C     0.71715   0.41920   0.43892   0.00000  Uiso   1.00
C611   C     0.60601   0.49210   0.44660   0.00000  Uiso   1.00
C612   C     0.69990   0.28083   0.38109   0.00000  Uiso   1.00
C613   C     0.80792   0.28266   0.36316   0.00000  Uiso   1.00
C614   C     0.81894   0.27945   0.33109   0.00000  Uiso   1.00
C615   C     0.92485   0.28188   0.31918   0.00000  Uiso   1.00
C616   C     0.71090   0.23486   0.40418   0.00000  Uiso   1.00
C617   C     0.64033   0.19147   0.40661   0.00000  Uiso   1.00
C618   C     0.66455   0.15366   0.42923   0.00000  Uiso   1.00
C619   C     0.69634   0.33182   0.40051   0.00000  Uiso   1.00
C620   C     0.61352   0.36994   0.39986   0.00000  Uiso   1.00
C621   C     0.62547   0.41376   0.41940   0.00000  Uiso   1.00
H622   H     0.93963   0.29507   0.43213   0.00000  Uiso   1.00
H623   H     0.07615   0.29473   0.38586   0.00000  Uiso   1.00
H624   H     0.89756   0.20676   0.46137   0.00000  Uiso   1.00
H625   H     0.87076   0.38521   0.45462   0.00000  Uiso   1.00
H626   H     0.18716   0.29193   0.32598   0.00000  Uiso   1.00
H627   H     0.81056   0.10647   0.48519   0.00000  Uiso   1.00
H628   H     0.75404   0.48275   0.47096   0.00000  Uiso   1.00
H629   H     0.62865   0.27660   0.36592   0.00000  Uiso   1.00
H630   H     0.74811   0.27524   0.31602   0.00000  Uiso   1.00
H631   H     0.56951   0.18728   0.39153   0.00000  Uiso   1.00
H632   H     0.54272   0.36572   0.38478   0.00000  Uiso   1.00
H633   H     0.92090   0.27612   0.26930   0.00000  Uiso   1.00
H634   H     0.54430   0.09065   0.42851   0.00000  Uiso   1.00
H635   H     0.48779   0.46694   0.41427   0.00000  Uiso   1.00
O636   O     0.13823   0.28345   0.26601   0.00000  Uiso   1.00
O637   O     0.64413   0.04013   0.47489   0.00000  Uiso   1.00
O638   O     0.56999   0.53381   0.45621   0.00000  Uiso   1.00
N639   N     0.10810   0.28841   0.31949   0.00000  Uiso   1.00
N640   N     0.75601   0.11500   0.46833   0.00000  Uiso   1.00
N641   N     0.70316   0.46679   0.45503   0.00000  Uiso   1.00
N642   N     0.96483   0.27990   0.28899   0.00000  Uiso   1.00
N643   N     0.61274   0.10649   0.43783   0.00000  Uiso   1.00
N644   N     0.55989   0.45828   0.42453   0.00000  Uiso   1.00
C645   C     0.36690   0.36446   0.91703   0.00000  Uiso   1.00
C646   C     0.39806   0.36084   0.88275   0.00000  Uiso   1.00
C647   C     0.50410   0.36230   0.87092   0.00000  Uiso   1.00
C648   C     0.51536   0.35839   0.83888   0.00000  Uiso   1.00
C649   C     0.57768   0.35352   0.78861   0.00000  Uiso   1.00
C650   C     0.29942   0.31452   0.92404   0.00000  Uiso   1.00
C651   C     0.32252   0.27704   0.94693   0.00000  Uiso   1.00
C652   C     0.25074   0.23415   0.94963   0.00000  Uiso   1.00
C653   C     0.15986   0.15739   0.96348   0.00000  Uiso   1.00
C654   C     0.28771   0.41149   0.91972   0.00000  Uiso   1.00
C655   C     0.30094   0.45554   0.93899   0.00000  Uiso   1.00
C656   C     0.21929   0.49428   0.93807   0.00000  Uiso   1.00
C657   C     0.11024   0.56808   0.94521   0.00000  Uiso   1.00
C658   C     0.19834   0.35492   0.88115   0.00000  Uiso   1.00
C659   C     0.30650   0.35565   0.86326   0.00000  Uiso   1.00
C660   C     0.31761   0.35174   0.83122   0.00000  Uiso   1.00
C661   C     0.42365   0.35320   0.81935   0.00000  Uiso   1.00
C662   C     0.20787   0.30933   0.90455   0.00000  Uiso   1.00
C663   C     0.13603   0.26648   0.90722   0.00000  Uiso   1.00
C664   C     0.15902   0.22895   0.93011   0.00000  Uiso   1.00
C665   C     0.19615   0.40630   0.90023   0.00000  Uiso   1.00
C666   C     0.11446   0.44498   0.89928   0.00000  Uiso   1.00
C667   C     0.12757   0.48908   0.91854   0.00000  Uiso   1.00
H668   H     0.43817   0.36850   0.93221   0.00000  Uiso   1.00
H669   H     0.57493   0.36631   0.88602   0.00000  Uiso   1.00
H670   H     0.39337   0.28107   0.96201   0.00000  Uiso   1.00
H671   H     0.37180   0.45954   0.95406   0.00000  Uiso   1.00
H672   H     0.68617   0.36158   0.82621   0.00000  Uiso   1.00
H673   H     0.30332   0.18186   0.98645   0.00000  Uiso   1.00
H674   H     0.25785   0.55819   0.96970   0.00000  Uiso   1.00
H675   H     0.12706   0.35088   0.86597   0.00000  Uiso   1.00
H676   H     0.24674   0.34773   0.81615   0.00000  Uiso   1.00
H677   H     0.06518   0.26248   0.89214   0.00000  Uiso   1.00
H678   H     0.04362   0.44095   0.88420   0.00000  Uiso   1.00
H679   H     0.41981   0.34649   0.76950   0.00000  Uiso   1.00
H680   H     0.03695   0.16677   0.92974   0.00000  Uiso   1.00
H681   H     0.99148   0.54310   0.91299   0.00000  Uiso   1.00
O682   O     0.63734   0.35226   0.76627   0.00000  Uiso   1.00
O683   O     0.13504   0.11648   0.97650   0.00000  Uiso   1.00
O684   O     0.07539   0.61022   0.95453   0.00000  Uiso   1.00
N685   N     0.60706   0.35847   0.81970   0.00000  Uiso   1.00
N686   N     0.24913   0.19044   0.96951   0.00000  Uiso   1.00
N687   N     0.20660   0.54227   0.95386   0.00000  Uiso   1.00
N688   N     0.46373   0.35036   0.78919   0.00000  Uiso   1.00
N689   N     0.10579   0.18232   0.93900   0.00000  Uiso   1.00
N690   N     0.06327   0.53415   0.92335   0.00000  Uiso   1.00
C691   C     0.63161   0.20916   0.91696   0.00000  Uiso   1.00
C692   C     0.60056   0.21190   0.88264   0.00000  Uiso   1.00
C693   C     0.49465   0.20948   0.87078   0.00000  Uiso   1.00
C694   C     0.48347   0.21268   0.83870   0.00000  Uiso   1.00
C695   C     0.42133   0.21614   0.78838   0.00000  Uiso   1.00
C696   C     0.69759   0.25970   0.92366   0.00000  Uiso   1.00
C697   C     0.67326   0.29746   0.94629   0.00000  Uiso   1.00
C698   C     0.74377   0.34089   0.94875   0.00000  Uiso   1.00
C699   C     0.83232   0.41854   0.96213   0.00000  Uiso   1.00
C700   C     0.71214   0.16275   0.91999   0.00000  Uiso   1.00
C701   C     0.70007   0.11899   0.93954   0.00000  Uiso   1.00
C702   C     0.78285   0.08080   0.93892   0.00000  Uiso   1.00
C703   C     0.89399   0.00790   0.94660   0.00000  Uiso   1.00
C704   C     0.80010   0.21917   0.88109   0.00000  Uiso   1.00
C705   C     0.69208   0.21734   0.86316   0.00000  Uiso   1.00
C706   C     0.68106   0.22055   0.83109   0.00000  Uiso   1.00
C707   C     0.57515   0.21812   0.81918   0.00000  Uiso   1.00
C708   C     0.78910   0.26514   0.90418   0.00000  Uiso   1.00
C709   C     0.85967   0.30853   0.90661   0.00000  Uiso   1.00
C710   C     0.83545   0.34634   0.92923   0.00000  Uiso   1.00
C711   C     0.80366   0.16818   0.90051   0.00000  Uiso   1.00
C712   C     0.88648   0.13006   0.89986   0.00000  Uiso   1.00
C713   C     0.87453   0.08624   0.91940   0.00000  Uiso   1.00
H714   H     0.56037   0.20493   0.93213   0.00000  Uiso   1.00
H715   H     0.42385   0.20527   0.88586   0.00000  Uiso   1.00
H716   H     0.60244   0.29324   0.96137   0.00000  Uiso   1.00
H717   H     0.62924   0.11479   0.95462   0.00000  Uiso   1.00
H718   H     0.31284   0.20807   0.82598   0.00000  Uiso   1.00
H719   H     0.68944   0.39353   0.98519   0.00000  Uiso   1.00
H720   H     0.74596   0.01725   0.97096   0.00000  Uiso   1.00
H721   H     0.87135   0.22340   0.86592   0.00000  Uiso   1.00
H722   H     0.75189   0.22476   0.81602   0.00000  Uiso   1.00
H723   H     0.93049   0.31272   0.89153   0.00000  Uiso   1.00
H724   H     0.95728   0.13428   0.88478   0.00000  Uiso   1.00
H725   H     0.57910   0.22388   0.76930   0.00000  Uiso   1.00
H726   H     0.95570   0.40935   0.92851   0.00000  Uiso   1.00
H727   H     0.01221   0.03306   0.91427   0.00000  Uiso   1.00
O728   O     0.36177   0.21655   0.76601   0.00000  Uiso   1.00
O729   O     0.85587   0.45987   0.97489   0.00000  Uiso   1.00
O730   O     0.93001   0.96619   0.95621   0.00000  Uiso   1.00
N731   N     0.39190   0.21159   0.81949   0.00000  Uiso   1.00
N732   N     0.74399   0.38500   0.96833   0.00000  Uiso   1.00
N733   N     0.79684   0.03321   0.95503   0.00000  Uiso   1.00
N734   N     0.53517   0.22010   0.78899   0.00000  Uiso   1.00
N735   N     0.88726   0.39351   0.93783   0.00000  Uiso   1.00
N736   N     0.94011   0.04172   0.92453   0.00000  Uiso   1.00
