data_job_04619
_audit_creation_date              2018-12-19
_audit_creation_method            'Materials Studio'
_symmetry_space_group_name_H-M    'P1'
_symmetry_Int_Tables_number       1
_symmetry_cell_setting            triclinic
loop_
_symmetry_equiv_pos_as_xyz
  x,y,z
_cell_length_a                    25.1452
_cell_length_b                    25.1452
_cell_length_c                    12.8991
_cell_angle_alpha                 90.0000
_cell_angle_beta                  90.0000
_cell_angle_gamma                 90.0000
loop_
_atom_site_label
_atom_site_type_symbol
_atom_site_fract_x
_atom_site_fract_y
_atom_site_fract_z
_atom_site_U_iso_or_equiv
_atom_site_adp_type
_atom_site_occupancy
C1     C     0.08143   0.71201   0.64823   0.00000  Uiso   1.00
C2     C     0.08798   0.66270   0.71587   0.00000  Uiso   1.00
C3     C     0.05370   0.64681   0.79429   0.00000  Uiso   1.00
C4     C     0.06669   0.60052   0.84720   0.00000  Uiso   1.00
C5     C     0.06994   0.52843   0.95602   0.00000  Uiso   1.00
C6     C     0.13246   0.74408   0.66121   0.00000  Uiso   1.00
C7     C     0.13558   0.79661   0.69366   0.00000  Uiso   1.00
C8     C     0.18601   0.81882   0.70055   0.00000  Uiso   1.00
C9     C     0.25832   0.87309   0.72443   0.00000  Uiso   1.00
C10    C     0.08141   0.69227   0.53646   0.00000  Uiso   1.00
C11    C     0.04161   0.70125   0.46400   0.00000  Uiso   1.00
C12    C     0.04906   0.67984   0.36584   0.00000  Uiso   1.00
C13    C     0.04210   0.65366   0.19603   0.00000  Uiso   1.00
C14    C     0.16544   0.65805   0.60275   0.00000  Uiso   1.00
C15    C     0.13361   0.63340   0.69116   0.00000  Uiso   1.00
C16    C     0.14665   0.58711   0.74397   0.00000  Uiso   1.00
C17    C     0.11240   0.57115   0.82245   0.00000  Uiso   1.00
C18    C     0.17809   0.71478   0.63651   0.00000  Uiso   1.00
C19    C     0.22853   0.73692   0.64334   0.00000  Uiso   1.00
C20    C     0.23173   0.78946   0.67580   0.00000  Uiso   1.00
C21    C     0.12704   0.66296   0.51175   0.00000  Uiso   1.00
C22    C     0.13456   0.64154   0.41368   0.00000  Uiso   1.00
C23    C     0.09477   0.65048   0.34109   0.00000  Uiso   1.00
H24    H     0.04590   0.73483   0.66747   0.00000  Uiso   1.00
H25    H     0.01840   0.66951   0.81339   0.00000  Uiso   1.00
H26    H     0.10026   0.81929   0.71277   0.00000  Uiso   1.00
H27    H     0.00630   0.72393   0.48315   0.00000  Uiso   1.00
H28    H     0.00803   0.58417   0.96431   0.00000  Uiso   1.00
H29    H     0.18066   0.89999   0.75210   0.00000  Uiso   1.00
H30    H     0.98252   0.69892   0.26790   0.00000  Uiso   1.00
H31    H     0.20097   0.63524   0.58351   0.00000  Uiso   1.00
H32    H     0.18197   0.56444   0.72483   0.00000  Uiso   1.00
H33    H     0.26383   0.71422   0.62421   0.00000  Uiso   1.00
H34    H     0.16987   0.61887   0.39459   0.00000  Uiso   1.00
H35    H     0.14080   0.49889   0.89243   0.00000  Uiso   1.00
H36    H     0.31342   0.81472   0.68022   0.00000  Uiso   1.00
H37    H     0.11528   0.61364   0.19602   0.00000  Uiso   1.00
O38    O     0.05913   0.49677   0.02287   0.00000  Uiso   1.00
O39    O     0.28560   0.91112   0.74444   0.00000  Uiso   1.00
O40    O     0.02565   0.64731   0.10919   0.00000  Uiso   1.00
N41    N     0.04188   0.57381   0.92798   0.00000  Uiso   1.00
N42    N     0.20327   0.86908   0.72960   0.00000  Uiso   1.00
N43    N     0.01804   0.68111   0.27690   0.00000  Uiso   1.00
N44    N     0.11332   0.52792   0.88931   0.00000  Uiso   1.00
N45    N     0.27471   0.82320   0.69092   0.00000  Uiso   1.00
N46    N     0.08947   0.63522   0.23823   0.00000  Uiso   1.00
C47    C     0.58143   0.21201   0.14823   0.00000  Uiso   1.00
C48    C     0.58798   0.16270   0.21587   0.00000  Uiso   1.00
C49    C     0.55370   0.14681   0.29429   0.00000  Uiso   1.00
C50    C     0.56669   0.10052   0.34720   0.00000  Uiso   1.00
C51    C     0.56994   0.02843   0.45602   0.00000  Uiso   1.00
C52    C     0.63246   0.24408   0.16121   0.00000  Uiso   1.00
C53    C     0.63558   0.29661   0.19366   0.00000  Uiso   1.00
C54    C     0.68601   0.31882   0.20055   0.00000  Uiso   1.00
C55    C     0.75832   0.37309   0.22443   0.00000  Uiso   1.00
C56    C     0.58141   0.19227   0.03646   0.00000  Uiso   1.00
C57    C     0.54161   0.20125   0.96400   0.00000  Uiso   1.00
C58    C     0.54906   0.17984   0.86584   0.00000  Uiso   1.00
C59    C     0.54210   0.15366   0.69603   0.00000  Uiso   1.00
C60    C     0.66544   0.15805   0.10275   0.00000  Uiso   1.00
C61    C     0.63361   0.13340   0.19116   0.00000  Uiso   1.00
C62    C     0.64665   0.08711   0.24397   0.00000  Uiso   1.00
C63    C     0.61240   0.07115   0.32245   0.00000  Uiso   1.00
C64    C     0.67809   0.21478   0.13651   0.00000  Uiso   1.00
C65    C     0.72853   0.23692   0.14334   0.00000  Uiso   1.00
C66    C     0.73173   0.28946   0.17580   0.00000  Uiso   1.00
C67    C     0.62704   0.16296   0.01175   0.00000  Uiso   1.00
C68    C     0.63456   0.14154   0.91368   0.00000  Uiso   1.00
C69    C     0.59477   0.15048   0.84109   0.00000  Uiso   1.00
H70    H     0.54590   0.23483   0.16747   0.00000  Uiso   1.00
H71    H     0.51840   0.16951   0.31339   0.00000  Uiso   1.00
H72    H     0.60026   0.31929   0.21277   0.00000  Uiso   1.00
H73    H     0.50630   0.22393   0.98315   0.00000  Uiso   1.00
H74    H     0.50803   0.08417   0.46431   0.00000  Uiso   1.00
H75    H     0.68066   0.39999   0.25210   0.00000  Uiso   1.00
H76    H     0.48252   0.19892   0.76790   0.00000  Uiso   1.00
H77    H     0.70097   0.13524   0.08351   0.00000  Uiso   1.00
H78    H     0.68197   0.06444   0.22483   0.00000  Uiso   1.00
H79    H     0.76383   0.21422   0.12421   0.00000  Uiso   1.00
H80    H     0.66987   0.11887   0.89459   0.00000  Uiso   1.00
H81    H     0.64080   0.99889   0.39243   0.00000  Uiso   1.00
H82    H     0.81342   0.31472   0.18022   0.00000  Uiso   1.00
H83    H     0.61528   0.11364   0.69602   0.00000  Uiso   1.00
O84    O     0.55913   0.99677   0.52287   0.00000  Uiso   1.00
O85    O     0.78560   0.41112   0.24444   0.00000  Uiso   1.00
O86    O     0.52565   0.14731   0.60919   0.00000  Uiso   1.00
N87    N     0.54188   0.07381   0.42798   0.00000  Uiso   1.00
N88    N     0.70327   0.36908   0.22960   0.00000  Uiso   1.00
N89    N     0.51804   0.18111   0.77690   0.00000  Uiso   1.00
N90    N     0.61332   0.02792   0.38931   0.00000  Uiso   1.00
N91    N     0.77471   0.32320   0.19092   0.00000  Uiso   1.00
N92    N     0.58947   0.13522   0.73823   0.00000  Uiso   1.00
C93    C     0.41857   0.78799   0.14823   0.00000  Uiso   1.00
C94    C     0.41202   0.83730   0.21587   0.00000  Uiso   1.00
C95    C     0.44630   0.85319   0.29429   0.00000  Uiso   1.00
C96    C     0.43331   0.89948   0.34720   0.00000  Uiso   1.00
C97    C     0.43006   0.97157   0.45602   0.00000  Uiso   1.00
C98    C     0.36754   0.75592   0.16121   0.00000  Uiso   1.00
C99    C     0.36442   0.70339   0.19366   0.00000  Uiso   1.00
C100   C     0.31399   0.68118   0.20055   0.00000  Uiso   1.00
C101   C     0.24168   0.62691   0.22443   0.00000  Uiso   1.00
C102   C     0.41859   0.80773   0.03646   0.00000  Uiso   1.00
C103   C     0.45839   0.79875   0.96400   0.00000  Uiso   1.00
C104   C     0.45094   0.82016   0.86584   0.00000  Uiso   1.00
C105   C     0.45790   0.84634   0.69603   0.00000  Uiso   1.00
C106   C     0.33456   0.84195   0.10275   0.00000  Uiso   1.00
C107   C     0.36639   0.86660   0.19116   0.00000  Uiso   1.00
C108   C     0.35335   0.91289   0.24397   0.00000  Uiso   1.00
C109   C     0.38760   0.92885   0.32245   0.00000  Uiso   1.00
C110   C     0.32191   0.78522   0.13651   0.00000  Uiso   1.00
C111   C     0.27147   0.76308   0.14334   0.00000  Uiso   1.00
C112   C     0.26827   0.71054   0.17580   0.00000  Uiso   1.00
C113   C     0.37296   0.83704   0.01175   0.00000  Uiso   1.00
C114   C     0.36544   0.85846   0.91368   0.00000  Uiso   1.00
C115   C     0.40523   0.84952   0.84109   0.00000  Uiso   1.00
H116   H     0.45410   0.76517   0.16747   0.00000  Uiso   1.00
H117   H     0.48160   0.83049   0.31339   0.00000  Uiso   1.00
H118   H     0.39974   0.68071   0.21277   0.00000  Uiso   1.00
H119   H     0.49370   0.77607   0.98315   0.00000  Uiso   1.00
H120   H     0.49197   0.91583   0.46431   0.00000  Uiso   1.00
H121   H     0.31934   0.60001   0.25210   0.00000  Uiso   1.00
H122   H     0.51748   0.80108   0.76790   0.00000  Uiso   1.00
H123   H     0.29903   0.86476   0.08351   0.00000  Uiso   1.00
H124   H     0.31803   0.93556   0.22483   0.00000  Uiso   1.00
H125   H     0.23617   0.78578   0.12421   0.00000  Uiso   1.00
H126   H     0.33013   0.88113   0.89459   0.00000  Uiso   1.00
H127   H     0.35920   0.00111   0.39243   0.00000  Uiso   1.00
H128   H     0.18658   0.68528   0.18022   0.00000  Uiso   1.00
H129   H     0.38472   0.88636   0.69602   0.00000  Uiso   1.00
O130   O     0.44087   0.00323   0.52287   0.00000  Uiso   1.00
O131   O     0.21440   0.58888   0.24444   0.00000  Uiso   1.00
O132   O     0.47435   0.85269   0.60919   0.00000  Uiso   1.00
N133   N     0.45812   0.92619   0.42798   0.00000  Uiso   1.00
N134   N     0.29673   0.63092   0.22960   0.00000  Uiso   1.00
N135   N     0.48196   0.81889   0.77690   0.00000  Uiso   1.00
N136   N     0.38668   0.97208   0.38931   0.00000  Uiso   1.00
N137   N     0.22529   0.67680   0.19092   0.00000  Uiso   1.00
N138   N     0.41053   0.86478   0.73823   0.00000  Uiso   1.00
C139   C     0.91857   0.28799   0.64823   0.00000  Uiso   1.00
C140   C     0.91202   0.33730   0.71587   0.00000  Uiso   1.00
C141   C     0.94630   0.35319   0.79429   0.00000  Uiso   1.00
C142   C     0.93331   0.39948   0.84720   0.00000  Uiso   1.00
C143   C     0.93006   0.47157   0.95602   0.00000  Uiso   1.00
C144   C     0.86754   0.25592   0.66121   0.00000  Uiso   1.00
C145   C     0.86442   0.20339   0.69366   0.00000  Uiso   1.00
C146   C     0.81399   0.18118   0.70055   0.00000  Uiso   1.00
C147   C     0.74168   0.12691   0.72443   0.00000  Uiso   1.00
C148   C     0.91859   0.30773   0.53646   0.00000  Uiso   1.00
C149   C     0.95839   0.29875   0.46400   0.00000  Uiso   1.00
C150   C     0.95094   0.32016   0.36584   0.00000  Uiso   1.00
C151   C     0.95790   0.34634   0.19603   0.00000  Uiso   1.00
C152   C     0.83456   0.34195   0.60275   0.00000  Uiso   1.00
C153   C     0.86639   0.36660   0.69116   0.00000  Uiso   1.00
C154   C     0.85335   0.41289   0.74397   0.00000  Uiso   1.00
C155   C     0.88760   0.42885   0.82245   0.00000  Uiso   1.00
C156   C     0.82191   0.28522   0.63651   0.00000  Uiso   1.00
C157   C     0.77147   0.26308   0.64334   0.00000  Uiso   1.00
C158   C     0.76827   0.21054   0.67580   0.00000  Uiso   1.00
C159   C     0.87296   0.33704   0.51175   0.00000  Uiso   1.00
C160   C     0.86544   0.35846   0.41368   0.00000  Uiso   1.00
C161   C     0.90523   0.34952   0.34109   0.00000  Uiso   1.00
H162   H     0.95410   0.26517   0.66747   0.00000  Uiso   1.00
H163   H     0.98160   0.33049   0.81339   0.00000  Uiso   1.00
H164   H     0.89974   0.18071   0.71277   0.00000  Uiso   1.00
H165   H     0.99370   0.27607   0.48315   0.00000  Uiso   1.00
H166   H     0.99197   0.41583   0.96431   0.00000  Uiso   1.00
H167   H     0.81934   0.10001   0.75210   0.00000  Uiso   1.00
H168   H     0.01748   0.30108   0.26790   0.00000  Uiso   1.00
H169   H     0.79903   0.36476   0.58351   0.00000  Uiso   1.00
H170   H     0.81803   0.43556   0.72483   0.00000  Uiso   1.00
H171   H     0.73617   0.28578   0.62421   0.00000  Uiso   1.00
H172   H     0.83013   0.38113   0.39459   0.00000  Uiso   1.00
H173   H     0.85920   0.50111   0.89243   0.00000  Uiso   1.00
H174   H     0.68658   0.18528   0.68022   0.00000  Uiso   1.00
H175   H     0.88472   0.38636   0.19602   0.00000  Uiso   1.00
O176   O     0.94087   0.50323   0.02287   0.00000  Uiso   1.00
O177   O     0.71440   0.08888   0.74444   0.00000  Uiso   1.00
O178   O     0.97435   0.35269   0.10919   0.00000  Uiso   1.00
N179   N     0.95812   0.42619   0.92798   0.00000  Uiso   1.00
N180   N     0.79673   0.13092   0.72960   0.00000  Uiso   1.00
N181   N     0.98196   0.31889   0.27690   0.00000  Uiso   1.00
N182   N     0.88668   0.47208   0.88931   0.00000  Uiso   1.00
N183   N     0.72529   0.17680   0.69092   0.00000  Uiso   1.00
N184   N     0.91053   0.36478   0.23823   0.00000  Uiso   1.00
C185   C     0.28799   0.58143   0.89823   0.00000  Uiso   1.00
C186   C     0.33730   0.58798   0.96587   0.00000  Uiso   1.00
C187   C     0.35319   0.55370   0.04429   0.00000  Uiso   1.00
C188   C     0.39948   0.56669   0.09720   0.00000  Uiso   1.00
C189   C     0.47157   0.56994   0.20602   0.00000  Uiso   1.00
C190   C     0.25592   0.63246   0.91121   0.00000  Uiso   1.00
C191   C     0.20339   0.63558   0.94366   0.00000  Uiso   1.00
C192   C     0.18118   0.68601   0.95055   0.00000  Uiso   1.00
C193   C     0.12691   0.75832   0.97443   0.00000  Uiso   1.00
C194   C     0.30773   0.58141   0.78646   0.00000  Uiso   1.00
C195   C     0.29875   0.54161   0.71400   0.00000  Uiso   1.00
C196   C     0.32016   0.54906   0.61584   0.00000  Uiso   1.00
C197   C     0.34634   0.54210   0.44603   0.00000  Uiso   1.00
C198   C     0.34195   0.66544   0.85275   0.00000  Uiso   1.00
C199   C     0.36660   0.63361   0.94116   0.00000  Uiso   1.00
C200   C     0.41289   0.64665   0.99397   0.00000  Uiso   1.00
C201   C     0.42885   0.61240   0.07245   0.00000  Uiso   1.00
C202   C     0.28522   0.67809   0.88651   0.00000  Uiso   1.00
C203   C     0.26308   0.72853   0.89334   0.00000  Uiso   1.00
C204   C     0.21054   0.73173   0.92580   0.00000  Uiso   1.00
C205   C     0.33704   0.62704   0.76175   0.00000  Uiso   1.00
C206   C     0.35846   0.63456   0.66368   0.00000  Uiso   1.00
C207   C     0.34952   0.59477   0.59109   0.00000  Uiso   1.00
H208   H     0.26517   0.54590   0.91747   0.00000  Uiso   1.00
H209   H     0.33049   0.51840   0.06339   0.00000  Uiso   1.00
H210   H     0.18071   0.60026   0.96277   0.00000  Uiso   1.00
H211   H     0.27607   0.50630   0.73315   0.00000  Uiso   1.00
H212   H     0.41583   0.50803   0.21431   0.00000  Uiso   1.00
H213   H     0.10001   0.68066   0.00210   0.00000  Uiso   1.00
H214   H     0.30108   0.48252   0.51790   0.00000  Uiso   1.00
H215   H     0.36476   0.70097   0.83351   0.00000  Uiso   1.00
H216   H     0.43556   0.68197   0.97483   0.00000  Uiso   1.00
H217   H     0.28578   0.76383   0.87421   0.00000  Uiso   1.00
H218   H     0.38113   0.66987   0.64459   0.00000  Uiso   1.00
H219   H     0.50111   0.64080   0.14243   0.00000  Uiso   1.00
H220   H     0.18528   0.81342   0.93022   0.00000  Uiso   1.00
H221   H     0.38636   0.61528   0.44602   0.00000  Uiso   1.00
O222   O     0.50323   0.55913   0.27287   0.00000  Uiso   1.00
O223   O     0.08888   0.78560   0.99444   0.00000  Uiso   1.00
O224   O     0.35269   0.52565   0.35919   0.00000  Uiso   1.00
N225   N     0.42619   0.54188   0.17798   0.00000  Uiso   1.00
N226   N     0.13092   0.70327   0.97960   0.00000  Uiso   1.00
N227   N     0.31889   0.51804   0.52690   0.00000  Uiso   1.00
N228   N     0.47208   0.61332   0.13931   0.00000  Uiso   1.00
N229   N     0.17680   0.77471   0.94092   0.00000  Uiso   1.00
N230   N     0.36478   0.58947   0.48823   0.00000  Uiso   1.00
C231   C     0.78799   0.08143   0.39823   0.00000  Uiso   1.00
C232   C     0.83730   0.08798   0.46587   0.00000  Uiso   1.00
C233   C     0.85319   0.05370   0.54429   0.00000  Uiso   1.00
C234   C     0.89948   0.06669   0.59720   0.00000  Uiso   1.00
C235   C     0.97157   0.06994   0.70602   0.00000  Uiso   1.00
C236   C     0.75592   0.13246   0.41121   0.00000  Uiso   1.00
C237   C     0.70339   0.13558   0.44366   0.00000  Uiso   1.00
C238   C     0.68118   0.18601   0.45055   0.00000  Uiso   1.00
C239   C     0.62691   0.25832   0.47443   0.00000  Uiso   1.00
C240   C     0.80773   0.08141   0.28646   0.00000  Uiso   1.00
C241   C     0.79875   0.04161   0.21400   0.00000  Uiso   1.00
C242   C     0.82016   0.04906   0.11584   0.00000  Uiso   1.00
C243   C     0.84634   0.04210   0.94603   0.00000  Uiso   1.00
C244   C     0.84195   0.16544   0.35275   0.00000  Uiso   1.00
C245   C     0.86660   0.13361   0.44116   0.00000  Uiso   1.00
C246   C     0.91289   0.14665   0.49397   0.00000  Uiso   1.00
C247   C     0.92885   0.11240   0.57245   0.00000  Uiso   1.00
C248   C     0.78522   0.17809   0.38651   0.00000  Uiso   1.00
C249   C     0.76308   0.22853   0.39334   0.00000  Uiso   1.00
C250   C     0.71054   0.23173   0.42580   0.00000  Uiso   1.00
C251   C     0.83704   0.12704   0.26175   0.00000  Uiso   1.00
C252   C     0.85846   0.13456   0.16368   0.00000  Uiso   1.00
C253   C     0.84952   0.09477   0.09109   0.00000  Uiso   1.00
H254   H     0.76517   0.04590   0.41747   0.00000  Uiso   1.00
H255   H     0.83049   0.01840   0.56339   0.00000  Uiso   1.00
H256   H     0.68071   0.10026   0.46277   0.00000  Uiso   1.00
H257   H     0.77607   0.00630   0.23315   0.00000  Uiso   1.00
H258   H     0.91583   0.00803   0.71431   0.00000  Uiso   1.00
H259   H     0.60001   0.18066   0.50210   0.00000  Uiso   1.00
H260   H     0.80108   0.98252   0.01790   0.00000  Uiso   1.00
H261   H     0.86476   0.20097   0.33351   0.00000  Uiso   1.00
H262   H     0.93556   0.18197   0.47483   0.00000  Uiso   1.00
H263   H     0.78578   0.26383   0.37421   0.00000  Uiso   1.00
H264   H     0.88113   0.16987   0.14459   0.00000  Uiso   1.00
H265   H     0.00111   0.14080   0.64243   0.00000  Uiso   1.00
H266   H     0.68528   0.31342   0.43022   0.00000  Uiso   1.00
H267   H     0.88636   0.11528   0.94602   0.00000  Uiso   1.00
O268   O     0.00323   0.05913   0.77287   0.00000  Uiso   1.00
O269   O     0.58888   0.28560   0.49444   0.00000  Uiso   1.00
O270   O     0.85269   0.02565   0.85919   0.00000  Uiso   1.00
N271   N     0.92619   0.04188   0.67798   0.00000  Uiso   1.00
N272   N     0.63092   0.20327   0.47960   0.00000  Uiso   1.00
N273   N     0.81889   0.01804   0.02690   0.00000  Uiso   1.00
N274   N     0.97208   0.11332   0.63931   0.00000  Uiso   1.00
N275   N     0.67680   0.27471   0.44092   0.00000  Uiso   1.00
N276   N     0.86478   0.08947   0.98823   0.00000  Uiso   1.00
C277   C     0.21201   0.91857   0.39823   0.00000  Uiso   1.00
C278   C     0.16270   0.91202   0.46587   0.00000  Uiso   1.00
C279   C     0.14681   0.94630   0.54429   0.00000  Uiso   1.00
C280   C     0.10052   0.93331   0.59720   0.00000  Uiso   1.00
C281   C     0.02843   0.93006   0.70602   0.00000  Uiso   1.00
C282   C     0.24408   0.86754   0.41121   0.00000  Uiso   1.00
C283   C     0.29661   0.86442   0.44366   0.00000  Uiso   1.00
C284   C     0.31882   0.81399   0.45055   0.00000  Uiso   1.00
C285   C     0.37309   0.74168   0.47443   0.00000  Uiso   1.00
C286   C     0.19227   0.91859   0.28646   0.00000  Uiso   1.00
C287   C     0.20125   0.95839   0.21400   0.00000  Uiso   1.00
C288   C     0.17984   0.95094   0.11584   0.00000  Uiso   1.00
C289   C     0.15366   0.95790   0.94603   0.00000  Uiso   1.00
C290   C     0.15805   0.83456   0.35275   0.00000  Uiso   1.00
C291   C     0.13340   0.86639   0.44116   0.00000  Uiso   1.00
C292   C     0.08711   0.85335   0.49397   0.00000  Uiso   1.00
C293   C     0.07115   0.88760   0.57245   0.00000  Uiso   1.00
C294   C     0.21478   0.82191   0.38651   0.00000  Uiso   1.00
C295   C     0.23692   0.77147   0.39334   0.00000  Uiso   1.00
C296   C     0.28946   0.76827   0.42580   0.00000  Uiso   1.00
C297   C     0.16296   0.87296   0.26175   0.00000  Uiso   1.00
C298   C     0.14154   0.86544   0.16368   0.00000  Uiso   1.00
C299   C     0.15048   0.90523   0.09109   0.00000  Uiso   1.00
H300   H     0.23483   0.95410   0.41747   0.00000  Uiso   1.00
H301   H     0.16951   0.98160   0.56339   0.00000  Uiso   1.00
H302   H     0.31929   0.89974   0.46277   0.00000  Uiso   1.00
H303   H     0.22393   0.99370   0.23315   0.00000  Uiso   1.00
H304   H     0.08417   0.99197   0.71431   0.00000  Uiso   1.00
H305   H     0.39999   0.81934   0.50210   0.00000  Uiso   1.00
H306   H     0.19892   0.01748   0.01790   0.00000  Uiso   1.00
H307   H     0.13524   0.79903   0.33351   0.00000  Uiso   1.00
H308   H     0.06444   0.81803   0.47483   0.00000  Uiso   1.00
H309   H     0.21422   0.73617   0.37421   0.00000  Uiso   1.00
H310   H     0.11887   0.83013   0.14459   0.00000  Uiso   1.00
H311   H     0.99889   0.85920   0.64243   0.00000  Uiso   1.00
H312   H     0.31472   0.68658   0.43022   0.00000  Uiso   1.00
H313   H     0.11364   0.88472   0.94602   0.00000  Uiso   1.00
O314   O     0.99677   0.94087   0.77287   0.00000  Uiso   1.00
O315   O     0.41112   0.71440   0.49444   0.00000  Uiso   1.00
O316   O     0.14731   0.97435   0.85919   0.00000  Uiso   1.00
N317   N     0.07381   0.95812   0.67798   0.00000  Uiso   1.00
N318   N     0.36908   0.79673   0.47960   0.00000  Uiso   1.00
N319   N     0.18111   0.98196   0.02690   0.00000  Uiso   1.00
N320   N     0.02792   0.88668   0.63931   0.00000  Uiso   1.00
N321   N     0.32320   0.72529   0.44092   0.00000  Uiso   1.00
N322   N     0.13522   0.91053   0.98823   0.00000  Uiso   1.00
C323   C     0.71201   0.41857   0.89823   0.00000  Uiso   1.00
C324   C     0.66270   0.41202   0.96587   0.00000  Uiso   1.00
C325   C     0.64681   0.44630   0.04429   0.00000  Uiso   1.00
C326   C     0.60052   0.43331   0.09720   0.00000  Uiso   1.00
C327   C     0.52843   0.43006   0.20602   0.00000  Uiso   1.00
C328   C     0.74408   0.36754   0.91121   0.00000  Uiso   1.00
C329   C     0.79661   0.36442   0.94366   0.00000  Uiso   1.00
C330   C     0.81882   0.31399   0.95055   0.00000  Uiso   1.00
C331   C     0.87309   0.24168   0.97443   0.00000  Uiso   1.00
C332   C     0.69227   0.41859   0.78646   0.00000  Uiso   1.00
C333   C     0.70125   0.45839   0.71400   0.00000  Uiso   1.00
C334   C     0.67984   0.45094   0.61584   0.00000  Uiso   1.00
C335   C     0.65366   0.45790   0.44603   0.00000  Uiso   1.00
C336   C     0.65805   0.33456   0.85275   0.00000  Uiso   1.00
C337   C     0.63340   0.36639   0.94116   0.00000  Uiso   1.00
C338   C     0.58711   0.35335   0.99397   0.00000  Uiso   1.00
C339   C     0.57115   0.38760   0.07245   0.00000  Uiso   1.00
C340   C     0.71478   0.32191   0.88651   0.00000  Uiso   1.00
C341   C     0.73692   0.27147   0.89334   0.00000  Uiso   1.00
C342   C     0.78946   0.26827   0.92580   0.00000  Uiso   1.00
C343   C     0.66296   0.37296   0.76175   0.00000  Uiso   1.00
C344   C     0.64154   0.36544   0.66368   0.00000  Uiso   1.00
C345   C     0.65048   0.40523   0.59109   0.00000  Uiso   1.00
H346   H     0.73483   0.45410   0.91747   0.00000  Uiso   1.00
H347   H     0.66951   0.48160   0.06339   0.00000  Uiso   1.00
H348   H     0.81929   0.39974   0.96277   0.00000  Uiso   1.00
H349   H     0.72393   0.49370   0.73315   0.00000  Uiso   1.00
H350   H     0.58417   0.49197   0.21431   0.00000  Uiso   1.00
H351   H     0.89999   0.31934   0.00210   0.00000  Uiso   1.00
H352   H     0.69892   0.51748   0.51790   0.00000  Uiso   1.00
H353   H     0.63524   0.29903   0.83351   0.00000  Uiso   1.00
H354   H     0.56444   0.31803   0.97483   0.00000  Uiso   1.00
H355   H     0.71422   0.23617   0.87421   0.00000  Uiso   1.00
H356   H     0.61887   0.33013   0.64459   0.00000  Uiso   1.00
H357   H     0.49889   0.35920   0.14243   0.00000  Uiso   1.00
H358   H     0.81472   0.18658   0.93022   0.00000  Uiso   1.00
H359   H     0.61364   0.38472   0.44602   0.00000  Uiso   1.00
O360   O     0.49677   0.44087   0.27287   0.00000  Uiso   1.00
O361   O     0.91112   0.21440   0.99444   0.00000  Uiso   1.00
O362   O     0.64731   0.47435   0.35919   0.00000  Uiso   1.00
N363   N     0.57381   0.45812   0.17798   0.00000  Uiso   1.00
N364   N     0.86908   0.29673   0.97960   0.00000  Uiso   1.00
N365   N     0.68111   0.48196   0.52690   0.00000  Uiso   1.00
N366   N     0.52792   0.38668   0.13931   0.00000  Uiso   1.00
N367   N     0.82320   0.22529   0.94092   0.00000  Uiso   1.00
N368   N     0.63522   0.41053   0.48823   0.00000  Uiso   1.00
C369   C     0.91857   0.78799   0.60177   0.00000  Uiso   1.00
C370   C     0.91202   0.83730   0.53413   0.00000  Uiso   1.00
C371   C     0.94630   0.85319   0.45571   0.00000  Uiso   1.00
C372   C     0.93331   0.89948   0.40280   0.00000  Uiso   1.00
C373   C     0.93006   0.97157   0.29398   0.00000  Uiso   1.00
C374   C     0.86754   0.75592   0.58879   0.00000  Uiso   1.00
C375   C     0.86442   0.70339   0.55634   0.00000  Uiso   1.00
C376   C     0.81399   0.68118   0.54945   0.00000  Uiso   1.00
C377   C     0.74168   0.62691   0.52557   0.00000  Uiso   1.00
C378   C     0.91859   0.80773   0.71354   0.00000  Uiso   1.00
C379   C     0.95839   0.79875   0.78600   0.00000  Uiso   1.00
C380   C     0.95094   0.82016   0.88416   0.00000  Uiso   1.00
C381   C     0.95790   0.84634   0.05397   0.00000  Uiso   1.00
C382   C     0.83456   0.84195   0.64725   0.00000  Uiso   1.00
C383   C     0.86639   0.86660   0.55884   0.00000  Uiso   1.00
C384   C     0.85335   0.91289   0.50603   0.00000  Uiso   1.00
C385   C     0.88760   0.92885   0.42755   0.00000  Uiso   1.00
C386   C     0.82191   0.78522   0.61349   0.00000  Uiso   1.00
C387   C     0.77147   0.76308   0.60666   0.00000  Uiso   1.00
C388   C     0.76827   0.71054   0.57420   0.00000  Uiso   1.00
C389   C     0.87296   0.83704   0.73825   0.00000  Uiso   1.00
C390   C     0.86544   0.85846   0.83632   0.00000  Uiso   1.00
C391   C     0.90523   0.84952   0.90891   0.00000  Uiso   1.00
H392   H     0.95410   0.76517   0.58253   0.00000  Uiso   1.00
H393   H     0.98160   0.83049   0.43661   0.00000  Uiso   1.00
H394   H     0.89974   0.68071   0.53723   0.00000  Uiso   1.00
H395   H     0.99370   0.77607   0.76685   0.00000  Uiso   1.00
H396   H     0.99197   0.91583   0.28569   0.00000  Uiso   1.00
H397   H     0.81934   0.60001   0.49790   0.00000  Uiso   1.00
H398   H     0.01748   0.80108   0.98210   0.00000  Uiso   1.00
H399   H     0.79903   0.86476   0.66649   0.00000  Uiso   1.00
H400   H     0.81803   0.93556   0.52517   0.00000  Uiso   1.00
H401   H     0.73617   0.78578   0.62579   0.00000  Uiso   1.00
H402   H     0.83013   0.88113   0.85541   0.00000  Uiso   1.00
H403   H     0.85920   0.00111   0.35757   0.00000  Uiso   1.00
H404   H     0.68658   0.68528   0.56978   0.00000  Uiso   1.00
H405   H     0.88472   0.88636   0.05398   0.00000  Uiso   1.00
O406   O     0.94087   0.00323   0.22713   0.00000  Uiso   1.00
O407   O     0.71440   0.58888   0.50556   0.00000  Uiso   1.00
O408   O     0.97435   0.85269   0.14081   0.00000  Uiso   1.00
N409   N     0.95812   0.92619   0.32202   0.00000  Uiso   1.00
N410   N     0.79673   0.63092   0.52040   0.00000  Uiso   1.00
N411   N     0.98196   0.81889   0.97310   0.00000  Uiso   1.00
N412   N     0.88668   0.97208   0.36069   0.00000  Uiso   1.00
N413   N     0.72529   0.67680   0.55908   0.00000  Uiso   1.00
N414   N     0.91053   0.86478   0.01177   0.00000  Uiso   1.00
C415   C     0.41857   0.28799   0.10177   0.00000  Uiso   1.00
C416   C     0.41202   0.33730   0.03413   0.00000  Uiso   1.00
C417   C     0.44630   0.35319   0.95571   0.00000  Uiso   1.00
C418   C     0.43331   0.39948   0.90280   0.00000  Uiso   1.00
C419   C     0.43006   0.47157   0.79398   0.00000  Uiso   1.00
C420   C     0.36754   0.25592   0.08879   0.00000  Uiso   1.00
C421   C     0.36442   0.20339   0.05634   0.00000  Uiso   1.00
C422   C     0.31399   0.18118   0.04945   0.00000  Uiso   1.00
C423   C     0.24168   0.12691   0.02557   0.00000  Uiso   1.00
C424   C     0.41859   0.30773   0.21354   0.00000  Uiso   1.00
C425   C     0.45839   0.29875   0.28600   0.00000  Uiso   1.00
C426   C     0.45094   0.32016   0.38416   0.00000  Uiso   1.00
C427   C     0.45790   0.34634   0.55397   0.00000  Uiso   1.00
C428   C     0.33456   0.34195   0.14725   0.00000  Uiso   1.00
C429   C     0.36639   0.36660   0.05884   0.00000  Uiso   1.00
C430   C     0.35335   0.41289   0.00603   0.00000  Uiso   1.00
C431   C     0.38760   0.42885   0.92755   0.00000  Uiso   1.00
C432   C     0.32191   0.28522   0.11349   0.00000  Uiso   1.00
C433   C     0.27147   0.26308   0.10666   0.00000  Uiso   1.00
C434   C     0.26827   0.21054   0.07420   0.00000  Uiso   1.00
C435   C     0.37296   0.33704   0.23825   0.00000  Uiso   1.00
C436   C     0.36544   0.35846   0.33632   0.00000  Uiso   1.00
C437   C     0.40523   0.34952   0.40891   0.00000  Uiso   1.00
H438   H     0.45410   0.26517   0.08253   0.00000  Uiso   1.00
H439   H     0.48160   0.33049   0.93661   0.00000  Uiso   1.00
H440   H     0.39974   0.18071   0.03723   0.00000  Uiso   1.00
H441   H     0.49370   0.27607   0.26685   0.00000  Uiso   1.00
H442   H     0.49197   0.41583   0.78569   0.00000  Uiso   1.00
H443   H     0.31934   0.10001   0.99790   0.00000  Uiso   1.00
H444   H     0.51748   0.30108   0.48210   0.00000  Uiso   1.00
H445   H     0.29903   0.36476   0.16649   0.00000  Uiso   1.00
H446   H     0.31803   0.43556   0.02517   0.00000  Uiso   1.00
H447   H     0.23617   0.28578   0.12579   0.00000  Uiso   1.00
H448   H     0.33013   0.38113   0.35541   0.00000  Uiso   1.00
H449   H     0.35920   0.50111   0.85757   0.00000  Uiso   1.00
H450   H     0.18658   0.18528   0.06978   0.00000  Uiso   1.00
H451   H     0.38472   0.38636   0.55398   0.00000  Uiso   1.00
O452   O     0.44087   0.50323   0.72713   0.00000  Uiso   1.00
O453   O     0.21440   0.08888   0.00556   0.00000  Uiso   1.00
O454   O     0.47435   0.35269   0.64081   0.00000  Uiso   1.00
N455   N     0.45812   0.42619   0.82202   0.00000  Uiso   1.00
N456   N     0.29673   0.13092   0.02040   0.00000  Uiso   1.00
N457   N     0.48196   0.31889   0.47310   0.00000  Uiso   1.00
N458   N     0.38668   0.47208   0.86069   0.00000  Uiso   1.00
N459   N     0.22529   0.17680   0.05908   0.00000  Uiso   1.00
N460   N     0.41053   0.36478   0.51177   0.00000  Uiso   1.00
C461   C     0.58143   0.71201   0.10177   0.00000  Uiso   1.00
C462   C     0.58798   0.66270   0.03413   0.00000  Uiso   1.00
C463   C     0.55370   0.64681   0.95571   0.00000  Uiso   1.00
C464   C     0.56669   0.60052   0.90280   0.00000  Uiso   1.00
C465   C     0.56994   0.52843   0.79398   0.00000  Uiso   1.00
C466   C     0.63246   0.74408   0.08879   0.00000  Uiso   1.00
C467   C     0.63558   0.79661   0.05634   0.00000  Uiso   1.00
C468   C     0.68601   0.81882   0.04945   0.00000  Uiso   1.00
C469   C     0.75832   0.87309   0.02557   0.00000  Uiso   1.00
C470   C     0.58141   0.69227   0.21354   0.00000  Uiso   1.00
C471   C     0.54161   0.70125   0.28600   0.00000  Uiso   1.00
C472   C     0.54906   0.67984   0.38416   0.00000  Uiso   1.00
C473   C     0.54210   0.65366   0.55397   0.00000  Uiso   1.00
C474   C     0.66544   0.65805   0.14725   0.00000  Uiso   1.00
C475   C     0.63361   0.63340   0.05884   0.00000  Uiso   1.00
C476   C     0.64665   0.58711   0.00603   0.00000  Uiso   1.00
C477   C     0.61240   0.57115   0.92755   0.00000  Uiso   1.00
C478   C     0.67809   0.71478   0.11349   0.00000  Uiso   1.00
C479   C     0.72853   0.73692   0.10666   0.00000  Uiso   1.00
C480   C     0.73173   0.78946   0.07420   0.00000  Uiso   1.00
C481   C     0.62704   0.66296   0.23825   0.00000  Uiso   1.00
C482   C     0.63456   0.64154   0.33632   0.00000  Uiso   1.00
C483   C     0.59477   0.65048   0.40891   0.00000  Uiso   1.00
H484   H     0.54590   0.73483   0.08253   0.00000  Uiso   1.00
H485   H     0.51840   0.66951   0.93661   0.00000  Uiso   1.00
H486   H     0.60026   0.81929   0.03723   0.00000  Uiso   1.00
H487   H     0.50630   0.72393   0.26685   0.00000  Uiso   1.00
H488   H     0.50803   0.58417   0.78569   0.00000  Uiso   1.00
H489   H     0.68066   0.89999   0.99790   0.00000  Uiso   1.00
H490   H     0.48252   0.69892   0.48210   0.00000  Uiso   1.00
H491   H     0.70097   0.63524   0.16649   0.00000  Uiso   1.00
H492   H     0.68197   0.56444   0.02517   0.00000  Uiso   1.00
H493   H     0.76383   0.71422   0.12579   0.00000  Uiso   1.00
H494   H     0.66987   0.61887   0.35541   0.00000  Uiso   1.00
H495   H     0.64080   0.49889   0.85757   0.00000  Uiso   1.00
H496   H     0.81342   0.81472   0.06978   0.00000  Uiso   1.00
H497   H     0.61528   0.61364   0.55398   0.00000  Uiso   1.00
O498   O     0.55913   0.49677   0.72713   0.00000  Uiso   1.00
O499   O     0.78560   0.91112   0.00556   0.00000  Uiso   1.00
O500   O     0.52565   0.64731   0.64081   0.00000  Uiso   1.00
N501   N     0.54188   0.57381   0.82202   0.00000  Uiso   1.00
N502   N     0.70327   0.86908   0.02040   0.00000  Uiso   1.00
N503   N     0.51804   0.68111   0.47310   0.00000  Uiso   1.00
N504   N     0.61332   0.52792   0.86069   0.00000  Uiso   1.00
N505   N     0.77471   0.82320   0.05908   0.00000  Uiso   1.00
N506   N     0.58947   0.63522   0.51177   0.00000  Uiso   1.00
C507   C     0.08143   0.21201   0.60177   0.00000  Uiso   1.00
C508   C     0.08798   0.16270   0.53413   0.00000  Uiso   1.00
C509   C     0.05370   0.14681   0.45571   0.00000  Uiso   1.00
C510   C     0.06669   0.10052   0.40280   0.00000  Uiso   1.00
C511   C     0.06994   0.02843   0.29398   0.00000  Uiso   1.00
C512   C     0.13246   0.24408   0.58879   0.00000  Uiso   1.00
C513   C     0.13558   0.29661   0.55634   0.00000  Uiso   1.00
C514   C     0.18601   0.31882   0.54945   0.00000  Uiso   1.00
C515   C     0.25832   0.37309   0.52557   0.00000  Uiso   1.00
C516   C     0.08141   0.19227   0.71354   0.00000  Uiso   1.00
C517   C     0.04161   0.20125   0.78600   0.00000  Uiso   1.00
C518   C     0.04906   0.17984   0.88416   0.00000  Uiso   1.00
C519   C     0.04210   0.15366   0.05397   0.00000  Uiso   1.00
C520   C     0.16544   0.15805   0.64725   0.00000  Uiso   1.00
C521   C     0.13361   0.13340   0.55884   0.00000  Uiso   1.00
C522   C     0.14665   0.08711   0.50603   0.00000  Uiso   1.00
C523   C     0.11240   0.07115   0.42755   0.00000  Uiso   1.00
C524   C     0.17809   0.21478   0.61349   0.00000  Uiso   1.00
C525   C     0.22853   0.23692   0.60666   0.00000  Uiso   1.00
C526   C     0.23173   0.28946   0.57420   0.00000  Uiso   1.00
C527   C     0.12704   0.16296   0.73825   0.00000  Uiso   1.00
C528   C     0.13456   0.14154   0.83632   0.00000  Uiso   1.00
C529   C     0.09477   0.15048   0.90891   0.00000  Uiso   1.00
H530   H     0.04590   0.23483   0.58253   0.00000  Uiso   1.00
H531   H     0.01840   0.16951   0.43661   0.00000  Uiso   1.00
H532   H     0.10026   0.31929   0.53723   0.00000  Uiso   1.00
H533   H     0.00630   0.22393   0.76685   0.00000  Uiso   1.00
H534   H     0.00803   0.08417   0.28569   0.00000  Uiso   1.00
H535   H     0.18066   0.39999   0.49790   0.00000  Uiso   1.00
H536   H     0.98252   0.19892   0.98210   0.00000  Uiso   1.00
H537   H     0.20097   0.13524   0.66649   0.00000  Uiso   1.00
H538   H     0.18197   0.06444   0.52517   0.00000  Uiso   1.00
H539   H     0.26383   0.21422   0.62579   0.00000  Uiso   1.00
H540   H     0.16987   0.11887   0.85541   0.00000  Uiso   1.00
H541   H     0.14080   0.99889   0.35757   0.00000  Uiso   1.00
H542   H     0.31342   0.31472   0.56978   0.00000  Uiso   1.00
H543   H     0.11528   0.11364   0.05398   0.00000  Uiso   1.00
O544   O     0.05913   0.99677   0.22713   0.00000  Uiso   1.00
O545   O     0.28560   0.41112   0.50556   0.00000  Uiso   1.00
O546   O     0.02565   0.14731   0.14081   0.00000  Uiso   1.00
N547   N     0.04188   0.07381   0.32202   0.00000  Uiso   1.00
N548   N     0.20327   0.36908   0.52040   0.00000  Uiso   1.00
N549   N     0.01804   0.18111   0.97310   0.00000  Uiso   1.00
N550   N     0.11332   0.02792   0.36069   0.00000  Uiso   1.00
N551   N     0.27471   0.32320   0.55908   0.00000  Uiso   1.00
N552   N     0.08947   0.13522   0.01177   0.00000  Uiso   1.00
C553   C     0.71201   0.91857   0.35177   0.00000  Uiso   1.00
C554   C     0.66270   0.91202   0.28413   0.00000  Uiso   1.00
C555   C     0.64681   0.94630   0.20571   0.00000  Uiso   1.00
C556   C     0.60052   0.93331   0.15280   0.00000  Uiso   1.00
C557   C     0.52843   0.93006   0.04398   0.00000  Uiso   1.00
C558   C     0.74408   0.86754   0.33879   0.00000  Uiso   1.00
C559   C     0.79661   0.86442   0.30634   0.00000  Uiso   1.00
C560   C     0.81882   0.81399   0.29945   0.00000  Uiso   1.00
C561   C     0.87309   0.74168   0.27557   0.00000  Uiso   1.00
C562   C     0.69227   0.91859   0.46354   0.00000  Uiso   1.00
C563   C     0.70125   0.95839   0.53600   0.00000  Uiso   1.00
C564   C     0.67984   0.95094   0.63416   0.00000  Uiso   1.00
C565   C     0.65366   0.95790   0.80397   0.00000  Uiso   1.00
C566   C     0.65805   0.83456   0.39725   0.00000  Uiso   1.00
C567   C     0.63340   0.86639   0.30884   0.00000  Uiso   1.00
C568   C     0.58711   0.85335   0.25603   0.00000  Uiso   1.00
C569   C     0.57115   0.88760   0.17755   0.00000  Uiso   1.00
C570   C     0.71478   0.82191   0.36349   0.00000  Uiso   1.00
C571   C     0.73692   0.77147   0.35666   0.00000  Uiso   1.00
C572   C     0.78946   0.76827   0.32420   0.00000  Uiso   1.00
C573   C     0.66296   0.87296   0.48825   0.00000  Uiso   1.00
C574   C     0.64154   0.86544   0.58632   0.00000  Uiso   1.00
C575   C     0.65048   0.90523   0.65891   0.00000  Uiso   1.00
H576   H     0.73483   0.95410   0.33253   0.00000  Uiso   1.00
H577   H     0.66951   0.98160   0.18661   0.00000  Uiso   1.00
H578   H     0.81929   0.89974   0.28723   0.00000  Uiso   1.00
H579   H     0.72393   0.99370   0.51685   0.00000  Uiso   1.00
H580   H     0.58417   0.99197   0.03569   0.00000  Uiso   1.00
H581   H     0.89999   0.81934   0.24790   0.00000  Uiso   1.00
H582   H     0.69892   0.01748   0.73210   0.00000  Uiso   1.00
H583   H     0.63524   0.79903   0.41649   0.00000  Uiso   1.00
H584   H     0.56444   0.81803   0.27517   0.00000  Uiso   1.00
H585   H     0.71422   0.73617   0.37579   0.00000  Uiso   1.00
H586   H     0.61887   0.83013   0.60541   0.00000  Uiso   1.00
H587   H     0.49889   0.85920   0.10757   0.00000  Uiso   1.00
H588   H     0.81472   0.68658   0.31978   0.00000  Uiso   1.00
H589   H     0.61364   0.88472   0.80398   0.00000  Uiso   1.00
O590   O     0.49677   0.94087   0.97713   0.00000  Uiso   1.00
O591   O     0.91112   0.71440   0.25556   0.00000  Uiso   1.00
O592   O     0.64731   0.97435   0.89081   0.00000  Uiso   1.00
N593   N     0.57381   0.95812   0.07202   0.00000  Uiso   1.00
N594   N     0.86908   0.79673   0.27040   0.00000  Uiso   1.00
N595   N     0.68111   0.98196   0.72310   0.00000  Uiso   1.00
N596   N     0.52792   0.88668   0.11069   0.00000  Uiso   1.00
N597   N     0.82320   0.72529   0.30908   0.00000  Uiso   1.00
N598   N     0.63522   0.91053   0.76177   0.00000  Uiso   1.00
C599   C     0.21201   0.41857   0.85177   0.00000  Uiso   1.00
C600   C     0.16270   0.41202   0.78413   0.00000  Uiso   1.00
C601   C     0.14681   0.44630   0.70571   0.00000  Uiso   1.00
C602   C     0.10052   0.43331   0.65280   0.00000  Uiso   1.00
C603   C     0.02843   0.43006   0.54398   0.00000  Uiso   1.00
C604   C     0.24408   0.36754   0.83879   0.00000  Uiso   1.00
C605   C     0.29661   0.36442   0.80634   0.00000  Uiso   1.00
C606   C     0.31882   0.31399   0.79945   0.00000  Uiso   1.00
C607   C     0.37309   0.24168   0.77557   0.00000  Uiso   1.00
C608   C     0.19227   0.41859   0.96354   0.00000  Uiso   1.00
C609   C     0.20125   0.45839   0.03600   0.00000  Uiso   1.00
C610   C     0.17984   0.45094   0.13416   0.00000  Uiso   1.00
C611   C     0.15366   0.45790   0.30397   0.00000  Uiso   1.00
C612   C     0.15805   0.33456   0.89725   0.00000  Uiso   1.00
C613   C     0.13340   0.36639   0.80884   0.00000  Uiso   1.00
C614   C     0.08711   0.35335   0.75603   0.00000  Uiso   1.00
C615   C     0.07115   0.38760   0.67755   0.00000  Uiso   1.00
C616   C     0.21478   0.32191   0.86349   0.00000  Uiso   1.00
C617   C     0.23692   0.27147   0.85666   0.00000  Uiso   1.00
C618   C     0.28946   0.26827   0.82420   0.00000  Uiso   1.00
C619   C     0.16296   0.37296   0.98825   0.00000  Uiso   1.00
C620   C     0.14154   0.36544   0.08632   0.00000  Uiso   1.00
C621   C     0.15048   0.40523   0.15891   0.00000  Uiso   1.00
H622   H     0.23483   0.45410   0.83253   0.00000  Uiso   1.00
H623   H     0.16951   0.48160   0.68661   0.00000  Uiso   1.00
H624   H     0.31929   0.39974   0.78723   0.00000  Uiso   1.00
H625   H     0.22393   0.49370   0.01685   0.00000  Uiso   1.00
H626   H     0.08417   0.49197   0.53569   0.00000  Uiso   1.00
H627   H     0.39999   0.31934   0.74790   0.00000  Uiso   1.00
H628   H     0.19892   0.51748   0.23210   0.00000  Uiso   1.00
H629   H     0.13524   0.29903   0.91649   0.00000  Uiso   1.00
H630   H     0.06444   0.31803   0.77517   0.00000  Uiso   1.00
H631   H     0.21422   0.23617   0.87579   0.00000  Uiso   1.00
H632   H     0.11887   0.33013   0.10541   0.00000  Uiso   1.00
H633   H     0.99889   0.35920   0.60757   0.00000  Uiso   1.00
H634   H     0.31472   0.18658   0.81978   0.00000  Uiso   1.00
H635   H     0.11364   0.38472   0.30398   0.00000  Uiso   1.00
O636   O     0.99677   0.44087   0.47713   0.00000  Uiso   1.00
O637   O     0.41112   0.21440   0.75556   0.00000  Uiso   1.00
O638   O     0.14731   0.47435   0.39081   0.00000  Uiso   1.00
N639   N     0.07381   0.45812   0.57202   0.00000  Uiso   1.00
N640   N     0.36908   0.29673   0.77040   0.00000  Uiso   1.00
N641   N     0.18111   0.48196   0.22310   0.00000  Uiso   1.00
N642   N     0.02792   0.38668   0.61069   0.00000  Uiso   1.00
N643   N     0.32320   0.22529   0.80908   0.00000  Uiso   1.00
N644   N     0.13522   0.41053   0.26177   0.00000  Uiso   1.00
C645   C     0.78799   0.58143   0.85177   0.00000  Uiso   1.00
C646   C     0.83730   0.58798   0.78413   0.00000  Uiso   1.00
C647   C     0.85319   0.55370   0.70571   0.00000  Uiso   1.00
C648   C     0.89948   0.56669   0.65280   0.00000  Uiso   1.00
C649   C     0.97157   0.56994   0.54398   0.00000  Uiso   1.00
C650   C     0.75592   0.63246   0.83879   0.00000  Uiso   1.00
C651   C     0.70339   0.63558   0.80634   0.00000  Uiso   1.00
C652   C     0.68118   0.68601   0.79945   0.00000  Uiso   1.00
C653   C     0.62691   0.75832   0.77557   0.00000  Uiso   1.00
C654   C     0.80773   0.58141   0.96354   0.00000  Uiso   1.00
C655   C     0.79875   0.54161   0.03600   0.00000  Uiso   1.00
C656   C     0.82016   0.54906   0.13416   0.00000  Uiso   1.00
C657   C     0.84634   0.54210   0.30397   0.00000  Uiso   1.00
C658   C     0.84195   0.66544   0.89725   0.00000  Uiso   1.00
C659   C     0.86660   0.63361   0.80884   0.00000  Uiso   1.00
C660   C     0.91289   0.64665   0.75603   0.00000  Uiso   1.00
C661   C     0.92885   0.61240   0.67755   0.00000  Uiso   1.00
C662   C     0.78522   0.67809   0.86349   0.00000  Uiso   1.00
C663   C     0.76308   0.72853   0.85666   0.00000  Uiso   1.00
C664   C     0.71054   0.73173   0.82420   0.00000  Uiso   1.00
C665   C     0.83704   0.62704   0.98825   0.00000  Uiso   1.00
C666   C     0.85846   0.63456   0.08632   0.00000  Uiso   1.00
C667   C     0.84952   0.59477   0.15891   0.00000  Uiso   1.00
H668   H     0.76517   0.54590   0.83253   0.00000  Uiso   1.00
H669   H     0.83049   0.51840   0.68661   0.00000  Uiso   1.00
H670   H     0.68071   0.60026   0.78723   0.00000  Uiso   1.00
H671   H     0.77607   0.50630   0.01685   0.00000  Uiso   1.00
H672   H     0.91583   0.50803   0.53569   0.00000  Uiso   1.00
H673   H     0.60001   0.68066   0.74790   0.00000  Uiso   1.00
H674   H     0.80108   0.48252   0.23210   0.00000  Uiso   1.00
H675   H     0.86476   0.70097   0.91649   0.00000  Uiso   1.00
H676   H     0.93556   0.68197   0.77517   0.00000  Uiso   1.00
H677   H     0.78578   0.76383   0.87579   0.00000  Uiso   1.00
H678   H     0.88113   0.66987   0.10541   0.00000  Uiso   1.00
H679   H     0.00111   0.64080   0.60757   0.00000  Uiso   1.00
H680   H     0.68528   0.81342   0.81978   0.00000  Uiso   1.00
H681   H     0.88636   0.61528   0.30398   0.00000  Uiso   1.00
O682   O     0.00323   0.55913   0.47713   0.00000  Uiso   1.00
O683   O     0.58888   0.78560   0.75556   0.00000  Uiso   1.00
O684   O     0.85269   0.52565   0.39081   0.00000  Uiso   1.00
N685   N     0.92619   0.54188   0.57202   0.00000  Uiso   1.00
N686   N     0.63092   0.70327   0.77040   0.00000  Uiso   1.00
N687   N     0.81889   0.51804   0.22310   0.00000  Uiso   1.00
N688   N     0.97208   0.61332   0.61069   0.00000  Uiso   1.00
N689   N     0.67680   0.77471   0.80908   0.00000  Uiso   1.00
N690   N     0.86478   0.58947   0.26177   0.00000  Uiso   1.00
C691   C     0.28799   0.08143   0.35177   0.00000  Uiso   1.00
C692   C     0.33730   0.08798   0.28413   0.00000  Uiso   1.00
C693   C     0.35319   0.05370   0.20571   0.00000  Uiso   1.00
C694   C     0.39948   0.06669   0.15280   0.00000  Uiso   1.00
C695   C     0.47157   0.06994   0.04398   0.00000  Uiso   1.00
C696   C     0.25592   0.13246   0.33879   0.00000  Uiso   1.00
C697   C     0.20339   0.13558   0.30634   0.00000  Uiso   1.00
C698   C     0.18118   0.18601   0.29945   0.00000  Uiso   1.00
C699   C     0.12691   0.25832   0.27557   0.00000  Uiso   1.00
C700   C     0.30773   0.08141   0.46354   0.00000  Uiso   1.00
C701   C     0.29875   0.04161   0.53600   0.00000  Uiso   1.00
C702   C     0.32016   0.04906   0.63416   0.00000  Uiso   1.00
C703   C     0.34634   0.04210   0.80397   0.00000  Uiso   1.00
C704   C     0.34195   0.16544   0.39725   0.00000  Uiso   1.00
C705   C     0.36660   0.13361   0.30884   0.00000  Uiso   1.00
C706   C     0.41289   0.14665   0.25603   0.00000  Uiso   1.00
C707   C     0.42885   0.11240   0.17755   0.00000  Uiso   1.00
C708   C     0.28522   0.17809   0.36349   0.00000  Uiso   1.00
C709   C     0.26308   0.22853   0.35666   0.00000  Uiso   1.00
C710   C     0.21054   0.23173   0.32420   0.00000  Uiso   1.00
C711   C     0.33704   0.12704   0.48825   0.00000  Uiso   1.00
C712   C     0.35846   0.13456   0.58632   0.00000  Uiso   1.00
C713   C     0.34952   0.09477   0.65891   0.00000  Uiso   1.00
H714   H     0.26517   0.04590   0.33253   0.00000  Uiso   1.00
H715   H     0.33049   0.01840   0.18661   0.00000  Uiso   1.00
H716   H     0.18071   0.10026   0.28723   0.00000  Uiso   1.00
H717   H     0.27607   0.00630   0.51685   0.00000  Uiso   1.00
H718   H     0.41583   0.00803   0.03569   0.00000  Uiso   1.00
H719   H     0.10001   0.18066   0.24790   0.00000  Uiso   1.00
H720   H     0.30108   0.98252   0.73210   0.00000  Uiso   1.00
H721   H     0.36476   0.20097   0.41649   0.00000  Uiso   1.00
H722   H     0.43556   0.18197   0.27517   0.00000  Uiso   1.00
H723   H     0.28578   0.26383   0.37579   0.00000  Uiso   1.00
H724   H     0.38113   0.16987   0.60541   0.00000  Uiso   1.00
H725   H     0.50111   0.14080   0.10757   0.00000  Uiso   1.00
H726   H     0.18528   0.31342   0.31978   0.00000  Uiso   1.00
H727   H     0.38636   0.11528   0.80398   0.00000  Uiso   1.00
O728   O     0.50323   0.05913   0.97713   0.00000  Uiso   1.00
O729   O     0.08888   0.28560   0.25556   0.00000  Uiso   1.00
O730   O     0.35269   0.02565   0.89081   0.00000  Uiso   1.00
N731   N     0.42619   0.04188   0.07202   0.00000  Uiso   1.00
N732   N     0.13092   0.20327   0.27040   0.00000  Uiso   1.00
N733   N     0.31889   0.01804   0.72310   0.00000  Uiso   1.00
N734   N     0.47208   0.11332   0.11069   0.00000  Uiso   1.00
N735   N     0.17680   0.27471   0.30908   0.00000  Uiso   1.00
N736   N     0.36478   0.08947   0.76177   0.00000  Uiso   1.00
