data_job_05332
_audit_creation_date              2018-12-19
_audit_creation_method            'Materials Studio'
_symmetry_space_group_name_H-M    'P1'
_symmetry_Int_Tables_number       1
_symmetry_cell_setting            triclinic
loop_
_symmetry_equiv_pos_as_xyz
  x,y,z
_cell_length_a                    29.3032
_cell_length_b                    29.3032
_cell_length_c                    12.5602
_cell_angle_alpha                 90.0000
_cell_angle_beta                  90.0000
_cell_angle_gamma                 90.0000
loop_
_atom_site_label
_atom_site_type_symbol
_atom_site_fract_x
_atom_site_fract_y
_atom_site_fract_z
_atom_site_U_iso_or_equiv
_atom_site_adp_type
_atom_site_occupancy
C1     C     0.05752   0.64136   0.82375   0.00000  Uiso   1.00
C2     C     0.02045   0.64859   0.90728   0.00000  Uiso   1.00
C3     C     0.01656   0.62508   0.00276   0.00000  Uiso   1.00
C4     C     0.98023   0.63671   0.06833   0.00000  Uiso   1.00
C5     C     0.92742   0.64277   0.20241   0.00000  Uiso   1.00
C6     C     0.03268   0.63051   0.72011   0.00000  Uiso   1.00
C7     C     0.03908   0.59180   0.65822   0.00000  Uiso   1.00
C8     C     0.01305   0.58822   0.56623   0.00000  Uiso   1.00
C9     C     0.97924   0.56622   0.40969   0.00000  Uiso   1.00
C10    C     0.07996   0.68778   0.80732   0.00000  Uiso   1.00
C11    C     0.12612   0.69721   0.81872   0.00000  Uiso   1.00
C12    C     0.13990   0.74184   0.80012   0.00000  Uiso   1.00
C13    C     0.17951   0.80875   0.77898   0.00000  Uiso   1.00
C14    C     0.99993   0.70383   0.77042   0.00000  Uiso   1.00
C15    C     0.98917   0.68252   0.87830   0.00000  Uiso   1.00
C16    C     0.95284   0.69420   0.94375   0.00000  Uiso   1.00
C17    C     0.94890   0.67071   0.03932   0.00000  Uiso   1.00
C18    C     0.00140   0.66444   0.69114   0.00000  Uiso   1.00
C19    C     0.97536   0.66092   0.59922   0.00000  Uiso   1.00
C20    C     0.98171   0.62221   0.53721   0.00000  Uiso   1.00
C21    C     0.04868   0.72171   0.77835   0.00000  Uiso   1.00
C22    C     0.06240   0.76633   0.75972   0.00000  Uiso   1.00
C23    C     0.10856   0.77583   0.77110   0.00000  Uiso   1.00
H24    H     0.08187   0.61494   0.84630   0.00000  Uiso   1.00
H25    H     0.04077   0.59882   0.02514   0.00000  Uiso   1.00
H26    H     0.06329   0.56555   0.68066   0.00000  Uiso   1.00
H27    H     0.15031   0.67095   0.84114   0.00000  Uiso   1.00
H28    H     0.98140   0.59590   0.21063   0.00000  Uiso   1.00
H29    H     0.02889   0.52576   0.48424   0.00000  Uiso   1.00
H30    H     0.21239   0.74800   0.82264   0.00000  Uiso   1.00
H31    H     0.97558   0.73025   0.74786   0.00000  Uiso   1.00
H32    H     0.92864   0.72045   0.92131   0.00000  Uiso   1.00
H33    H     0.95116   0.68718   0.57682   0.00000  Uiso   1.00
H34    H     0.03818   0.79258   0.73730   0.00000  Uiso   1.00
H35    H     0.89039   0.69462   0.12636   0.00000  Uiso   1.00
H36    H     0.93788   0.62448   0.39996   0.00000  Uiso   1.00
H37    H     0.12138   0.84673   0.73837   0.00000  Uiso   1.00
O38    O     0.90692   0.63673   0.28435   0.00000  Uiso   1.00
O39    O     0.96924   0.54471   0.33135   0.00000  Uiso   1.00
O40    O     0.20999   0.83629   0.77533   0.00000  Uiso   1.00
N41    N     0.96642   0.62049   0.16700   0.00000  Uiso   1.00
N42    N     0.01082   0.55490   0.48788   0.00000  Uiso   1.00
N43    N     0.18239   0.76268   0.80423   0.00000  Uiso   1.00
N44    N     0.91745   0.67361   0.12166   0.00000  Uiso   1.00
N45    N     0.96185   0.60802   0.44254   0.00000  Uiso   1.00
N46    N     0.13341   0.81580   0.75888   0.00000  Uiso   1.00
C47    C     0.55752   0.14136   0.32375   0.00000  Uiso   1.00
C48    C     0.52045   0.14859   0.40728   0.00000  Uiso   1.00
C49    C     0.51656   0.12508   0.50276   0.00000  Uiso   1.00
C50    C     0.48023   0.13671   0.56833   0.00000  Uiso   1.00
C51    C     0.42742   0.14277   0.70241   0.00000  Uiso   1.00
C52    C     0.53268   0.13051   0.22011   0.00000  Uiso   1.00
C53    C     0.53908   0.09180   0.15822   0.00000  Uiso   1.00
C54    C     0.51305   0.08822   0.06623   0.00000  Uiso   1.00
C55    C     0.47924   0.06622   0.90969   0.00000  Uiso   1.00
C56    C     0.57996   0.18778   0.30732   0.00000  Uiso   1.00
C57    C     0.62612   0.19721   0.31872   0.00000  Uiso   1.00
C58    C     0.63990   0.24184   0.30012   0.00000  Uiso   1.00
C59    C     0.67951   0.30875   0.27898   0.00000  Uiso   1.00
C60    C     0.49993   0.20383   0.27042   0.00000  Uiso   1.00
C61    C     0.48917   0.18252   0.37830   0.00000  Uiso   1.00
C62    C     0.45284   0.19420   0.44375   0.00000  Uiso   1.00
C63    C     0.44890   0.17071   0.53932   0.00000  Uiso   1.00
C64    C     0.50140   0.16444   0.19114   0.00000  Uiso   1.00
C65    C     0.47536   0.16092   0.09922   0.00000  Uiso   1.00
C66    C     0.48171   0.12221   0.03721   0.00000  Uiso   1.00
C67    C     0.54868   0.22171   0.27835   0.00000  Uiso   1.00
C68    C     0.56240   0.26633   0.25972   0.00000  Uiso   1.00
C69    C     0.60856   0.27583   0.27110   0.00000  Uiso   1.00
H70    H     0.58187   0.11494   0.34630   0.00000  Uiso   1.00
H71    H     0.54077   0.09882   0.52514   0.00000  Uiso   1.00
H72    H     0.56329   0.06555   0.18066   0.00000  Uiso   1.00
H73    H     0.65031   0.17095   0.34114   0.00000  Uiso   1.00
H74    H     0.48140   0.09590   0.71063   0.00000  Uiso   1.00
H75    H     0.52889   0.02576   0.98424   0.00000  Uiso   1.00
H76    H     0.71239   0.24800   0.32264   0.00000  Uiso   1.00
H77    H     0.47558   0.23025   0.24786   0.00000  Uiso   1.00
H78    H     0.42864   0.22045   0.42131   0.00000  Uiso   1.00
H79    H     0.45116   0.18718   0.07682   0.00000  Uiso   1.00
H80    H     0.53818   0.29258   0.23730   0.00000  Uiso   1.00
H81    H     0.39039   0.19462   0.62636   0.00000  Uiso   1.00
H82    H     0.43788   0.12448   0.89996   0.00000  Uiso   1.00
H83    H     0.62138   0.34673   0.23837   0.00000  Uiso   1.00
O84    O     0.40692   0.13673   0.78435   0.00000  Uiso   1.00
O85    O     0.46924   0.04471   0.83135   0.00000  Uiso   1.00
O86    O     0.70999   0.33629   0.27533   0.00000  Uiso   1.00
N87    N     0.46642   0.12049   0.66700   0.00000  Uiso   1.00
N88    N     0.51082   0.05490   0.98788   0.00000  Uiso   1.00
N89    N     0.68239   0.26268   0.30423   0.00000  Uiso   1.00
N90    N     0.41745   0.17361   0.62166   0.00000  Uiso   1.00
N91    N     0.46185   0.10802   0.94254   0.00000  Uiso   1.00
N92    N     0.63341   0.31580   0.25888   0.00000  Uiso   1.00
C93    C     0.94248   0.35864   0.82375   0.00000  Uiso   1.00
C94    C     0.97955   0.35141   0.90728   0.00000  Uiso   1.00
C95    C     0.98344   0.37492   0.00276   0.00000  Uiso   1.00
C96    C     0.01977   0.36329   0.06833   0.00000  Uiso   1.00
C97    C     0.07258   0.35723   0.20241   0.00000  Uiso   1.00
C98    C     0.96732   0.36949   0.72011   0.00000  Uiso   1.00
C99    C     0.96092   0.40820   0.65822   0.00000  Uiso   1.00
C100   C     0.98695   0.41178   0.56623   0.00000  Uiso   1.00
C101   C     0.02076   0.43378   0.40969   0.00000  Uiso   1.00
C102   C     0.92004   0.31222   0.80732   0.00000  Uiso   1.00
C103   C     0.87388   0.30279   0.81872   0.00000  Uiso   1.00
C104   C     0.86010   0.25816   0.80012   0.00000  Uiso   1.00
C105   C     0.82049   0.19125   0.77898   0.00000  Uiso   1.00
C106   C     0.00007   0.29617   0.77042   0.00000  Uiso   1.00
C107   C     0.01083   0.31748   0.87830   0.00000  Uiso   1.00
C108   C     0.04716   0.30580   0.94375   0.00000  Uiso   1.00
C109   C     0.05110   0.32929   0.03932   0.00000  Uiso   1.00
C110   C     0.99860   0.33556   0.69114   0.00000  Uiso   1.00
C111   C     0.02464   0.33908   0.59922   0.00000  Uiso   1.00
C112   C     0.01829   0.37779   0.53721   0.00000  Uiso   1.00
C113   C     0.95132   0.27829   0.77835   0.00000  Uiso   1.00
C114   C     0.93760   0.23367   0.75972   0.00000  Uiso   1.00
C115   C     0.89144   0.22417   0.77110   0.00000  Uiso   1.00
H116   H     0.91813   0.38506   0.84630   0.00000  Uiso   1.00
H117   H     0.95923   0.40118   0.02514   0.00000  Uiso   1.00
H118   H     0.93671   0.43445   0.68066   0.00000  Uiso   1.00
H119   H     0.84969   0.32905   0.84114   0.00000  Uiso   1.00
H120   H     0.01860   0.40410   0.21063   0.00000  Uiso   1.00
H121   H     0.97111   0.47424   0.48424   0.00000  Uiso   1.00
H122   H     0.78761   0.25200   0.82264   0.00000  Uiso   1.00
H123   H     0.02442   0.26975   0.74786   0.00000  Uiso   1.00
H124   H     0.07136   0.27955   0.92131   0.00000  Uiso   1.00
H125   H     0.04884   0.31282   0.57682   0.00000  Uiso   1.00
H126   H     0.96182   0.20742   0.73730   0.00000  Uiso   1.00
H127   H     0.10961   0.30538   0.12636   0.00000  Uiso   1.00
H128   H     0.06212   0.37552   0.39996   0.00000  Uiso   1.00
H129   H     0.87862   0.15327   0.73837   0.00000  Uiso   1.00
O130   O     0.09308   0.36327   0.28435   0.00000  Uiso   1.00
O131   O     0.03076   0.45529   0.33135   0.00000  Uiso   1.00
O132   O     0.79001   0.16371   0.77533   0.00000  Uiso   1.00
N133   N     0.03358   0.37951   0.16700   0.00000  Uiso   1.00
N134   N     0.98918   0.44510   0.48788   0.00000  Uiso   1.00
N135   N     0.81761   0.23732   0.80423   0.00000  Uiso   1.00
N136   N     0.08255   0.32639   0.12166   0.00000  Uiso   1.00
N137   N     0.03815   0.39198   0.44254   0.00000  Uiso   1.00
N138   N     0.86659   0.18420   0.75888   0.00000  Uiso   1.00
C139   C     0.44248   0.85864   0.32375   0.00000  Uiso   1.00
C140   C     0.47955   0.85141   0.40728   0.00000  Uiso   1.00
C141   C     0.48344   0.87492   0.50276   0.00000  Uiso   1.00
C142   C     0.51977   0.86329   0.56833   0.00000  Uiso   1.00
C143   C     0.57258   0.85723   0.70241   0.00000  Uiso   1.00
C144   C     0.46732   0.86949   0.22011   0.00000  Uiso   1.00
C145   C     0.46092   0.90820   0.15822   0.00000  Uiso   1.00
C146   C     0.48695   0.91178   0.06623   0.00000  Uiso   1.00
C147   C     0.52076   0.93378   0.90969   0.00000  Uiso   1.00
C148   C     0.42004   0.81222   0.30732   0.00000  Uiso   1.00
C149   C     0.37388   0.80279   0.31872   0.00000  Uiso   1.00
C150   C     0.36010   0.75816   0.30012   0.00000  Uiso   1.00
C151   C     0.32049   0.69125   0.27898   0.00000  Uiso   1.00
C152   C     0.50007   0.79617   0.27042   0.00000  Uiso   1.00
C153   C     0.51083   0.81748   0.37830   0.00000  Uiso   1.00
C154   C     0.54716   0.80580   0.44375   0.00000  Uiso   1.00
C155   C     0.55110   0.82929   0.53932   0.00000  Uiso   1.00
C156   C     0.49860   0.83556   0.19114   0.00000  Uiso   1.00
C157   C     0.52464   0.83908   0.09922   0.00000  Uiso   1.00
C158   C     0.51829   0.87779   0.03721   0.00000  Uiso   1.00
C159   C     0.45132   0.77829   0.27835   0.00000  Uiso   1.00
C160   C     0.43760   0.73367   0.25972   0.00000  Uiso   1.00
C161   C     0.39144   0.72417   0.27110   0.00000  Uiso   1.00
H162   H     0.41813   0.88506   0.34630   0.00000  Uiso   1.00
H163   H     0.45923   0.90118   0.52514   0.00000  Uiso   1.00
H164   H     0.43671   0.93445   0.18066   0.00000  Uiso   1.00
H165   H     0.34969   0.82905   0.34114   0.00000  Uiso   1.00
H166   H     0.51860   0.90410   0.71063   0.00000  Uiso   1.00
H167   H     0.47111   0.97424   0.98424   0.00000  Uiso   1.00
H168   H     0.28761   0.75200   0.32264   0.00000  Uiso   1.00
H169   H     0.52442   0.76975   0.24786   0.00000  Uiso   1.00
H170   H     0.57136   0.77955   0.42131   0.00000  Uiso   1.00
H171   H     0.54884   0.81282   0.07682   0.00000  Uiso   1.00
H172   H     0.46182   0.70742   0.23730   0.00000  Uiso   1.00
H173   H     0.60961   0.80538   0.62636   0.00000  Uiso   1.00
H174   H     0.56212   0.87552   0.89996   0.00000  Uiso   1.00
H175   H     0.37862   0.65327   0.23837   0.00000  Uiso   1.00
O176   O     0.59308   0.86327   0.78435   0.00000  Uiso   1.00
O177   O     0.53076   0.95529   0.83135   0.00000  Uiso   1.00
O178   O     0.29001   0.66371   0.27533   0.00000  Uiso   1.00
N179   N     0.53358   0.87951   0.66700   0.00000  Uiso   1.00
N180   N     0.48918   0.94510   0.98788   0.00000  Uiso   1.00
N181   N     0.31761   0.73732   0.30423   0.00000  Uiso   1.00
N182   N     0.58255   0.82639   0.62166   0.00000  Uiso   1.00
N183   N     0.53815   0.89198   0.94254   0.00000  Uiso   1.00
N184   N     0.36659   0.68420   0.25888   0.00000  Uiso   1.00
C185   C     0.64136   0.94248   0.17625   0.00000  Uiso   1.00
C186   C     0.64859   0.97955   0.09272   0.00000  Uiso   1.00
C187   C     0.62508   0.98344   0.99724   0.00000  Uiso   1.00
C188   C     0.63671   0.01977   0.93167   0.00000  Uiso   1.00
C189   C     0.64277   0.07258   0.79759   0.00000  Uiso   1.00
C190   C     0.63051   0.96732   0.27989   0.00000  Uiso   1.00
C191   C     0.59180   0.96092   0.34178   0.00000  Uiso   1.00
C192   C     0.58822   0.98695   0.43377   0.00000  Uiso   1.00
C193   C     0.56622   0.02076   0.59031   0.00000  Uiso   1.00
C194   C     0.68778   0.92004   0.19268   0.00000  Uiso   1.00
C195   C     0.69721   0.87388   0.18128   0.00000  Uiso   1.00
C196   C     0.74184   0.86010   0.19988   0.00000  Uiso   1.00
C197   C     0.80875   0.82049   0.22102   0.00000  Uiso   1.00
C198   C     0.70383   0.00007   0.22958   0.00000  Uiso   1.00
C199   C     0.68252   0.01083   0.12170   0.00000  Uiso   1.00
C200   C     0.69420   0.04716   0.05625   0.00000  Uiso   1.00
C201   C     0.67071   0.05110   0.96068   0.00000  Uiso   1.00
C202   C     0.66444   0.99860   0.30886   0.00000  Uiso   1.00
C203   C     0.66092   0.02464   0.40078   0.00000  Uiso   1.00
C204   C     0.62221   0.01829   0.46279   0.00000  Uiso   1.00
C205   C     0.72171   0.95132   0.22165   0.00000  Uiso   1.00
C206   C     0.76633   0.93760   0.24028   0.00000  Uiso   1.00
C207   C     0.77583   0.89144   0.22890   0.00000  Uiso   1.00
H208   H     0.61494   0.91813   0.15370   0.00000  Uiso   1.00
H209   H     0.59882   0.95923   0.97486   0.00000  Uiso   1.00
H210   H     0.56555   0.93671   0.31934   0.00000  Uiso   1.00
H211   H     0.67095   0.84969   0.15886   0.00000  Uiso   1.00
H212   H     0.59590   0.01860   0.78937   0.00000  Uiso   1.00
H213   H     0.52576   0.97111   0.51576   0.00000  Uiso   1.00
H214   H     0.74800   0.78761   0.17736   0.00000  Uiso   1.00
H215   H     0.73025   0.02442   0.25214   0.00000  Uiso   1.00
H216   H     0.72045   0.07136   0.07869   0.00000  Uiso   1.00
H217   H     0.68718   0.04884   0.42318   0.00000  Uiso   1.00
H218   H     0.79258   0.96182   0.26270   0.00000  Uiso   1.00
H219   H     0.69462   0.10961   0.87364   0.00000  Uiso   1.00
H220   H     0.62448   0.06212   0.60004   0.00000  Uiso   1.00
H221   H     0.84673   0.87862   0.26163   0.00000  Uiso   1.00
O222   O     0.63673   0.09308   0.71565   0.00000  Uiso   1.00
O223   O     0.54471   0.03076   0.66865   0.00000  Uiso   1.00
O224   O     0.83629   0.79001   0.22467   0.00000  Uiso   1.00
N225   N     0.62049   0.03358   0.83300   0.00000  Uiso   1.00
N226   N     0.55490   0.98918   0.51212   0.00000  Uiso   1.00
N227   N     0.76268   0.81761   0.19577   0.00000  Uiso   1.00
N228   N     0.67361   0.08255   0.87834   0.00000  Uiso   1.00
N229   N     0.60802   0.03815   0.55746   0.00000  Uiso   1.00
N230   N     0.81580   0.86659   0.24112   0.00000  Uiso   1.00
C231   C     0.14136   0.44248   0.67625   0.00000  Uiso   1.00
C232   C     0.14859   0.47955   0.59272   0.00000  Uiso   1.00
C233   C     0.12508   0.48344   0.49724   0.00000  Uiso   1.00
C234   C     0.13671   0.51977   0.43167   0.00000  Uiso   1.00
C235   C     0.14277   0.57258   0.29759   0.00000  Uiso   1.00
C236   C     0.13051   0.46732   0.77989   0.00000  Uiso   1.00
C237   C     0.09180   0.46092   0.84178   0.00000  Uiso   1.00
C238   C     0.08822   0.48695   0.93377   0.00000  Uiso   1.00
C239   C     0.06622   0.52076   0.09031   0.00000  Uiso   1.00
C240   C     0.18778   0.42004   0.69268   0.00000  Uiso   1.00
C241   C     0.19721   0.37388   0.68128   0.00000  Uiso   1.00
C242   C     0.24184   0.36010   0.69988   0.00000  Uiso   1.00
C243   C     0.30875   0.32049   0.72102   0.00000  Uiso   1.00
C244   C     0.20383   0.50007   0.72958   0.00000  Uiso   1.00
C245   C     0.18252   0.51083   0.62170   0.00000  Uiso   1.00
C246   C     0.19420   0.54716   0.55625   0.00000  Uiso   1.00
C247   C     0.17071   0.55110   0.46068   0.00000  Uiso   1.00
C248   C     0.16444   0.49860   0.80886   0.00000  Uiso   1.00
C249   C     0.16092   0.52464   0.90078   0.00000  Uiso   1.00
C250   C     0.12221   0.51829   0.96279   0.00000  Uiso   1.00
C251   C     0.22171   0.45132   0.72165   0.00000  Uiso   1.00
C252   C     0.26633   0.43760   0.74028   0.00000  Uiso   1.00
C253   C     0.27583   0.39144   0.72890   0.00000  Uiso   1.00
H254   H     0.11494   0.41813   0.65370   0.00000  Uiso   1.00
H255   H     0.09882   0.45923   0.47486   0.00000  Uiso   1.00
H256   H     0.06555   0.43671   0.81934   0.00000  Uiso   1.00
H257   H     0.17095   0.34969   0.65886   0.00000  Uiso   1.00
H258   H     0.09590   0.51860   0.28937   0.00000  Uiso   1.00
H259   H     0.02576   0.47111   0.01576   0.00000  Uiso   1.00
H260   H     0.24800   0.28761   0.67736   0.00000  Uiso   1.00
H261   H     0.23025   0.52442   0.75214   0.00000  Uiso   1.00
H262   H     0.22045   0.57136   0.57869   0.00000  Uiso   1.00
H263   H     0.18718   0.54884   0.92318   0.00000  Uiso   1.00
H264   H     0.29258   0.46182   0.76270   0.00000  Uiso   1.00
H265   H     0.19462   0.60961   0.37364   0.00000  Uiso   1.00
H266   H     0.12448   0.56212   0.10004   0.00000  Uiso   1.00
H267   H     0.34673   0.37862   0.76163   0.00000  Uiso   1.00
O268   O     0.13673   0.59308   0.21565   0.00000  Uiso   1.00
O269   O     0.04471   0.53076   0.16865   0.00000  Uiso   1.00
O270   O     0.33629   0.29001   0.72467   0.00000  Uiso   1.00
N271   N     0.12049   0.53358   0.33300   0.00000  Uiso   1.00
N272   N     0.05490   0.48918   0.01212   0.00000  Uiso   1.00
N273   N     0.26268   0.31761   0.69577   0.00000  Uiso   1.00
N274   N     0.17361   0.58255   0.37834   0.00000  Uiso   1.00
N275   N     0.10802   0.53815   0.05746   0.00000  Uiso   1.00
N276   N     0.31580   0.36659   0.74112   0.00000  Uiso   1.00
C277   C     0.35864   0.05752   0.17625   0.00000  Uiso   1.00
C278   C     0.35141   0.02045   0.09272   0.00000  Uiso   1.00
C279   C     0.37492   0.01656   0.99724   0.00000  Uiso   1.00
C280   C     0.36329   0.98023   0.93167   0.00000  Uiso   1.00
C281   C     0.35723   0.92742   0.79759   0.00000  Uiso   1.00
C282   C     0.36949   0.03268   0.27989   0.00000  Uiso   1.00
C283   C     0.40820   0.03908   0.34178   0.00000  Uiso   1.00
C284   C     0.41178   0.01305   0.43377   0.00000  Uiso   1.00
C285   C     0.43378   0.97924   0.59031   0.00000  Uiso   1.00
C286   C     0.31222   0.07996   0.19268   0.00000  Uiso   1.00
C287   C     0.30279   0.12612   0.18128   0.00000  Uiso   1.00
C288   C     0.25816   0.13990   0.19988   0.00000  Uiso   1.00
C289   C     0.19125   0.17951   0.22102   0.00000  Uiso   1.00
C290   C     0.29617   0.99993   0.22958   0.00000  Uiso   1.00
C291   C     0.31748   0.98917   0.12170   0.00000  Uiso   1.00
C292   C     0.30580   0.95284   0.05625   0.00000  Uiso   1.00
C293   C     0.32929   0.94890   0.96068   0.00000  Uiso   1.00
C294   C     0.33556   0.00140   0.30886   0.00000  Uiso   1.00
C295   C     0.33908   0.97536   0.40078   0.00000  Uiso   1.00
C296   C     0.37779   0.98171   0.46279   0.00000  Uiso   1.00
C297   C     0.27829   0.04868   0.22165   0.00000  Uiso   1.00
C298   C     0.23367   0.06240   0.24028   0.00000  Uiso   1.00
C299   C     0.22417   0.10856   0.22890   0.00000  Uiso   1.00
H300   H     0.38506   0.08187   0.15370   0.00000  Uiso   1.00
H301   H     0.40118   0.04077   0.97486   0.00000  Uiso   1.00
H302   H     0.43445   0.06329   0.31934   0.00000  Uiso   1.00
H303   H     0.32905   0.15031   0.15886   0.00000  Uiso   1.00
H304   H     0.40410   0.98140   0.78937   0.00000  Uiso   1.00
H305   H     0.47424   0.02889   0.51576   0.00000  Uiso   1.00
H306   H     0.25200   0.21239   0.17736   0.00000  Uiso   1.00
H307   H     0.26975   0.97558   0.25214   0.00000  Uiso   1.00
H308   H     0.27955   0.92864   0.07869   0.00000  Uiso   1.00
H309   H     0.31282   0.95116   0.42318   0.00000  Uiso   1.00
H310   H     0.20742   0.03818   0.26270   0.00000  Uiso   1.00
H311   H     0.30538   0.89039   0.87364   0.00000  Uiso   1.00
H312   H     0.37552   0.93788   0.60004   0.00000  Uiso   1.00
H313   H     0.15327   0.12138   0.26163   0.00000  Uiso   1.00
O314   O     0.36327   0.90692   0.71565   0.00000  Uiso   1.00
O315   O     0.45529   0.96924   0.66865   0.00000  Uiso   1.00
O316   O     0.16371   0.20999   0.22467   0.00000  Uiso   1.00
N317   N     0.37951   0.96642   0.83300   0.00000  Uiso   1.00
N318   N     0.44510   0.01082   0.51212   0.00000  Uiso   1.00
N319   N     0.23732   0.18239   0.19577   0.00000  Uiso   1.00
N320   N     0.32639   0.91745   0.87834   0.00000  Uiso   1.00
N321   N     0.39198   0.96185   0.55746   0.00000  Uiso   1.00
N322   N     0.18420   0.13341   0.24112   0.00000  Uiso   1.00
C323   C     0.85864   0.55752   0.67625   0.00000  Uiso   1.00
C324   C     0.85141   0.52045   0.59272   0.00000  Uiso   1.00
C325   C     0.87492   0.51656   0.49724   0.00000  Uiso   1.00
C326   C     0.86329   0.48023   0.43167   0.00000  Uiso   1.00
C327   C     0.85723   0.42742   0.29759   0.00000  Uiso   1.00
C328   C     0.86949   0.53268   0.77989   0.00000  Uiso   1.00
C329   C     0.90820   0.53908   0.84178   0.00000  Uiso   1.00
C330   C     0.91178   0.51305   0.93377   0.00000  Uiso   1.00
C331   C     0.93378   0.47924   0.09031   0.00000  Uiso   1.00
C332   C     0.81222   0.57996   0.69268   0.00000  Uiso   1.00
C333   C     0.80279   0.62612   0.68128   0.00000  Uiso   1.00
C334   C     0.75816   0.63990   0.69988   0.00000  Uiso   1.00
C335   C     0.69125   0.67951   0.72102   0.00000  Uiso   1.00
C336   C     0.79617   0.49993   0.72958   0.00000  Uiso   1.00
C337   C     0.81748   0.48917   0.62170   0.00000  Uiso   1.00
C338   C     0.80580   0.45284   0.55625   0.00000  Uiso   1.00
C339   C     0.82929   0.44890   0.46068   0.00000  Uiso   1.00
C340   C     0.83556   0.50140   0.80886   0.00000  Uiso   1.00
C341   C     0.83908   0.47536   0.90078   0.00000  Uiso   1.00
C342   C     0.87779   0.48171   0.96279   0.00000  Uiso   1.00
C343   C     0.77829   0.54868   0.72165   0.00000  Uiso   1.00
C344   C     0.73367   0.56240   0.74028   0.00000  Uiso   1.00
C345   C     0.72417   0.60856   0.72890   0.00000  Uiso   1.00
H346   H     0.88506   0.58187   0.65370   0.00000  Uiso   1.00
H347   H     0.90118   0.54077   0.47486   0.00000  Uiso   1.00
H348   H     0.93445   0.56329   0.81934   0.00000  Uiso   1.00
H349   H     0.82905   0.65031   0.65886   0.00000  Uiso   1.00
H350   H     0.90410   0.48140   0.28937   0.00000  Uiso   1.00
H351   H     0.97424   0.52889   0.01576   0.00000  Uiso   1.00
H352   H     0.75200   0.71239   0.67736   0.00000  Uiso   1.00
H353   H     0.76975   0.47558   0.75214   0.00000  Uiso   1.00
H354   H     0.77955   0.42864   0.57869   0.00000  Uiso   1.00
H355   H     0.81282   0.45116   0.92318   0.00000  Uiso   1.00
H356   H     0.70742   0.53818   0.76270   0.00000  Uiso   1.00
H357   H     0.80538   0.39039   0.37364   0.00000  Uiso   1.00
H358   H     0.87552   0.43788   0.10004   0.00000  Uiso   1.00
H359   H     0.65327   0.62138   0.76163   0.00000  Uiso   1.00
O360   O     0.86327   0.40692   0.21565   0.00000  Uiso   1.00
O361   O     0.95529   0.46924   0.16865   0.00000  Uiso   1.00
O362   O     0.66371   0.70999   0.72467   0.00000  Uiso   1.00
N363   N     0.87951   0.46642   0.33300   0.00000  Uiso   1.00
N364   N     0.94510   0.51082   0.01212   0.00000  Uiso   1.00
N365   N     0.73732   0.68239   0.69577   0.00000  Uiso   1.00
N366   N     0.82639   0.41745   0.37834   0.00000  Uiso   1.00
N367   N     0.89198   0.46185   0.05746   0.00000  Uiso   1.00
N368   N     0.68420   0.63341   0.74112   0.00000  Uiso   1.00
C369   C     0.44248   0.64136   0.92625   0.00000  Uiso   1.00
C370   C     0.47955   0.64859   0.84272   0.00000  Uiso   1.00
C371   C     0.48344   0.62508   0.74724   0.00000  Uiso   1.00
C372   C     0.51977   0.63671   0.68167   0.00000  Uiso   1.00
C373   C     0.57258   0.64277   0.54759   0.00000  Uiso   1.00
C374   C     0.46732   0.63051   0.02989   0.00000  Uiso   1.00
C375   C     0.46092   0.59180   0.09178   0.00000  Uiso   1.00
C376   C     0.48695   0.58822   0.18377   0.00000  Uiso   1.00
C377   C     0.52076   0.56622   0.34031   0.00000  Uiso   1.00
C378   C     0.42004   0.68778   0.94268   0.00000  Uiso   1.00
C379   C     0.37388   0.69721   0.93128   0.00000  Uiso   1.00
C380   C     0.36010   0.74184   0.94988   0.00000  Uiso   1.00
C381   C     0.32049   0.80875   0.97102   0.00000  Uiso   1.00
C382   C     0.50007   0.70383   0.97958   0.00000  Uiso   1.00
C383   C     0.51083   0.68252   0.87170   0.00000  Uiso   1.00
C384   C     0.54716   0.69420   0.80625   0.00000  Uiso   1.00
C385   C     0.55110   0.67071   0.71068   0.00000  Uiso   1.00
C386   C     0.49860   0.66444   0.05886   0.00000  Uiso   1.00
C387   C     0.52464   0.66092   0.15078   0.00000  Uiso   1.00
C388   C     0.51829   0.62221   0.21279   0.00000  Uiso   1.00
C389   C     0.45132   0.72171   0.97165   0.00000  Uiso   1.00
C390   C     0.43760   0.76633   0.99028   0.00000  Uiso   1.00
C391   C     0.39144   0.77583   0.97890   0.00000  Uiso   1.00
H392   H     0.41813   0.61494   0.90370   0.00000  Uiso   1.00
H393   H     0.45923   0.59882   0.72486   0.00000  Uiso   1.00
H394   H     0.43671   0.56555   0.06934   0.00000  Uiso   1.00
H395   H     0.34969   0.67095   0.90886   0.00000  Uiso   1.00
H396   H     0.51860   0.59590   0.53937   0.00000  Uiso   1.00
H397   H     0.47111   0.52576   0.26576   0.00000  Uiso   1.00
H398   H     0.28761   0.74800   0.92736   0.00000  Uiso   1.00
H399   H     0.52442   0.73025   0.00214   0.00000  Uiso   1.00
H400   H     0.57136   0.72045   0.82869   0.00000  Uiso   1.00
H401   H     0.54884   0.68718   0.17318   0.00000  Uiso   1.00
H402   H     0.46182   0.79258   0.01270   0.00000  Uiso   1.00
H403   H     0.60961   0.69462   0.62364   0.00000  Uiso   1.00
H404   H     0.56212   0.62448   0.35004   0.00000  Uiso   1.00
H405   H     0.37862   0.84673   0.01163   0.00000  Uiso   1.00
O406   O     0.59308   0.63673   0.46565   0.00000  Uiso   1.00
O407   O     0.53076   0.54471   0.41865   0.00000  Uiso   1.00
O408   O     0.29001   0.83629   0.97467   0.00000  Uiso   1.00
N409   N     0.53358   0.62049   0.58300   0.00000  Uiso   1.00
N410   N     0.48918   0.55490   0.26212   0.00000  Uiso   1.00
N411   N     0.31761   0.76268   0.94577   0.00000  Uiso   1.00
N412   N     0.58255   0.67361   0.62834   0.00000  Uiso   1.00
N413   N     0.53815   0.60802   0.30746   0.00000  Uiso   1.00
N414   N     0.36659   0.81580   0.99112   0.00000  Uiso   1.00
C415   C     0.94248   0.14136   0.42625   0.00000  Uiso   1.00
C416   C     0.97955   0.14859   0.34272   0.00000  Uiso   1.00
C417   C     0.98344   0.12508   0.24724   0.00000  Uiso   1.00
C418   C     0.01977   0.13671   0.18167   0.00000  Uiso   1.00
C419   C     0.07258   0.14277   0.04759   0.00000  Uiso   1.00
C420   C     0.96732   0.13051   0.52989   0.00000  Uiso   1.00
C421   C     0.96092   0.09180   0.59178   0.00000  Uiso   1.00
C422   C     0.98695   0.08822   0.68377   0.00000  Uiso   1.00
C423   C     0.02076   0.06622   0.84031   0.00000  Uiso   1.00
C424   C     0.92004   0.18778   0.44268   0.00000  Uiso   1.00
C425   C     0.87388   0.19721   0.43128   0.00000  Uiso   1.00
C426   C     0.86010   0.24184   0.44988   0.00000  Uiso   1.00
C427   C     0.82049   0.30875   0.47102   0.00000  Uiso   1.00
C428   C     0.00007   0.20383   0.47958   0.00000  Uiso   1.00
C429   C     0.01083   0.18252   0.37170   0.00000  Uiso   1.00
C430   C     0.04716   0.19420   0.30625   0.00000  Uiso   1.00
C431   C     0.05110   0.17071   0.21068   0.00000  Uiso   1.00
C432   C     0.99860   0.16444   0.55886   0.00000  Uiso   1.00
C433   C     0.02464   0.16092   0.65078   0.00000  Uiso   1.00
C434   C     0.01829   0.12221   0.71279   0.00000  Uiso   1.00
C435   C     0.95132   0.22171   0.47165   0.00000  Uiso   1.00
C436   C     0.93760   0.26633   0.49028   0.00000  Uiso   1.00
C437   C     0.89144   0.27583   0.47890   0.00000  Uiso   1.00
H438   H     0.91813   0.11494   0.40370   0.00000  Uiso   1.00
H439   H     0.95923   0.09882   0.22486   0.00000  Uiso   1.00
H440   H     0.93671   0.06555   0.56934   0.00000  Uiso   1.00
H441   H     0.84969   0.17095   0.40886   0.00000  Uiso   1.00
H442   H     0.01860   0.09590   0.03937   0.00000  Uiso   1.00
H443   H     0.97111   0.02576   0.76576   0.00000  Uiso   1.00
H444   H     0.78761   0.24800   0.42736   0.00000  Uiso   1.00
H445   H     0.02442   0.23025   0.50214   0.00000  Uiso   1.00
H446   H     0.07136   0.22045   0.32869   0.00000  Uiso   1.00
H447   H     0.04884   0.18718   0.67318   0.00000  Uiso   1.00
H448   H     0.96182   0.29258   0.51270   0.00000  Uiso   1.00
H449   H     0.10961   0.19462   0.12364   0.00000  Uiso   1.00
H450   H     0.06212   0.12448   0.85004   0.00000  Uiso   1.00
H451   H     0.87862   0.34673   0.51163   0.00000  Uiso   1.00
O452   O     0.09308   0.13673   0.96565   0.00000  Uiso   1.00
O453   O     0.03076   0.04471   0.91865   0.00000  Uiso   1.00
O454   O     0.79001   0.33629   0.47467   0.00000  Uiso   1.00
N455   N     0.03358   0.12049   0.08300   0.00000  Uiso   1.00
N456   N     0.98918   0.05490   0.76212   0.00000  Uiso   1.00
N457   N     0.81761   0.26268   0.44577   0.00000  Uiso   1.00
N458   N     0.08255   0.17361   0.12834   0.00000  Uiso   1.00
N459   N     0.03815   0.10802   0.80746   0.00000  Uiso   1.00
N460   N     0.86659   0.31580   0.49112   0.00000  Uiso   1.00
C461   C     0.55752   0.35864   0.92625   0.00000  Uiso   1.00
C462   C     0.52045   0.35141   0.84272   0.00000  Uiso   1.00
C463   C     0.51656   0.37492   0.74724   0.00000  Uiso   1.00
C464   C     0.48023   0.36329   0.68167   0.00000  Uiso   1.00
C465   C     0.42742   0.35723   0.54759   0.00000  Uiso   1.00
C466   C     0.53268   0.36949   0.02989   0.00000  Uiso   1.00
C467   C     0.53908   0.40820   0.09178   0.00000  Uiso   1.00
C468   C     0.51305   0.41178   0.18377   0.00000  Uiso   1.00
C469   C     0.47924   0.43378   0.34031   0.00000  Uiso   1.00
C470   C     0.57996   0.31222   0.94268   0.00000  Uiso   1.00
C471   C     0.62612   0.30279   0.93128   0.00000  Uiso   1.00
C472   C     0.63990   0.25816   0.94988   0.00000  Uiso   1.00
C473   C     0.67951   0.19125   0.97102   0.00000  Uiso   1.00
C474   C     0.49993   0.29617   0.97958   0.00000  Uiso   1.00
C475   C     0.48917   0.31748   0.87170   0.00000  Uiso   1.00
C476   C     0.45284   0.30580   0.80625   0.00000  Uiso   1.00
C477   C     0.44890   0.32929   0.71068   0.00000  Uiso   1.00
C478   C     0.50140   0.33556   0.05886   0.00000  Uiso   1.00
C479   C     0.47536   0.33908   0.15078   0.00000  Uiso   1.00
C480   C     0.48171   0.37779   0.21279   0.00000  Uiso   1.00
C481   C     0.54868   0.27829   0.97165   0.00000  Uiso   1.00
C482   C     0.56240   0.23367   0.99028   0.00000  Uiso   1.00
C483   C     0.60856   0.22417   0.97890   0.00000  Uiso   1.00
H484   H     0.58187   0.38506   0.90370   0.00000  Uiso   1.00
H485   H     0.54077   0.40118   0.72486   0.00000  Uiso   1.00
H486   H     0.56329   0.43445   0.06934   0.00000  Uiso   1.00
H487   H     0.65031   0.32905   0.90886   0.00000  Uiso   1.00
H488   H     0.48140   0.40410   0.53937   0.00000  Uiso   1.00
H489   H     0.52889   0.47424   0.26576   0.00000  Uiso   1.00
H490   H     0.71239   0.25200   0.92736   0.00000  Uiso   1.00
H491   H     0.47558   0.26975   0.00214   0.00000  Uiso   1.00
H492   H     0.42864   0.27955   0.82869   0.00000  Uiso   1.00
H493   H     0.45116   0.31282   0.17318   0.00000  Uiso   1.00
H494   H     0.53818   0.20742   0.01270   0.00000  Uiso   1.00
H495   H     0.39039   0.30538   0.62364   0.00000  Uiso   1.00
H496   H     0.43788   0.37552   0.35004   0.00000  Uiso   1.00
H497   H     0.62138   0.15327   0.01163   0.00000  Uiso   1.00
O498   O     0.40692   0.36327   0.46565   0.00000  Uiso   1.00
O499   O     0.46924   0.45529   0.41865   0.00000  Uiso   1.00
O500   O     0.70999   0.16371   0.97467   0.00000  Uiso   1.00
N501   N     0.46642   0.37951   0.58300   0.00000  Uiso   1.00
N502   N     0.51082   0.44510   0.26212   0.00000  Uiso   1.00
N503   N     0.68239   0.23732   0.94577   0.00000  Uiso   1.00
N504   N     0.41745   0.32639   0.62834   0.00000  Uiso   1.00
N505   N     0.46185   0.39198   0.30746   0.00000  Uiso   1.00
N506   N     0.63341   0.18420   0.99112   0.00000  Uiso   1.00
C507   C     0.05752   0.85864   0.42625   0.00000  Uiso   1.00
C508   C     0.02045   0.85141   0.34272   0.00000  Uiso   1.00
C509   C     0.01656   0.87492   0.24724   0.00000  Uiso   1.00
C510   C     0.98023   0.86329   0.18167   0.00000  Uiso   1.00
C511   C     0.92742   0.85723   0.04759   0.00000  Uiso   1.00
C512   C     0.03268   0.86949   0.52989   0.00000  Uiso   1.00
C513   C     0.03908   0.90820   0.59178   0.00000  Uiso   1.00
C514   C     0.01305   0.91178   0.68377   0.00000  Uiso   1.00
C515   C     0.97924   0.93378   0.84031   0.00000  Uiso   1.00
C516   C     0.07996   0.81222   0.44268   0.00000  Uiso   1.00
C517   C     0.12612   0.80279   0.43128   0.00000  Uiso   1.00
C518   C     0.13990   0.75816   0.44988   0.00000  Uiso   1.00
C519   C     0.17951   0.69125   0.47102   0.00000  Uiso   1.00
C520   C     0.99993   0.79617   0.47958   0.00000  Uiso   1.00
C521   C     0.98917   0.81748   0.37170   0.00000  Uiso   1.00
C522   C     0.95284   0.80580   0.30625   0.00000  Uiso   1.00
C523   C     0.94890   0.82929   0.21068   0.00000  Uiso   1.00
C524   C     0.00140   0.83556   0.55886   0.00000  Uiso   1.00
C525   C     0.97536   0.83908   0.65078   0.00000  Uiso   1.00
C526   C     0.98171   0.87779   0.71279   0.00000  Uiso   1.00
C527   C     0.04868   0.77829   0.47165   0.00000  Uiso   1.00
C528   C     0.06240   0.73367   0.49028   0.00000  Uiso   1.00
C529   C     0.10856   0.72417   0.47890   0.00000  Uiso   1.00
H530   H     0.08187   0.88506   0.40370   0.00000  Uiso   1.00
H531   H     0.04077   0.90118   0.22486   0.00000  Uiso   1.00
H532   H     0.06329   0.93445   0.56934   0.00000  Uiso   1.00
H533   H     0.15031   0.82905   0.40886   0.00000  Uiso   1.00
H534   H     0.98140   0.90410   0.03937   0.00000  Uiso   1.00
H535   H     0.02889   0.97424   0.76576   0.00000  Uiso   1.00
H536   H     0.21239   0.75200   0.42736   0.00000  Uiso   1.00
H537   H     0.97558   0.76975   0.50214   0.00000  Uiso   1.00
H538   H     0.92864   0.77955   0.32869   0.00000  Uiso   1.00
H539   H     0.95116   0.81282   0.67318   0.00000  Uiso   1.00
H540   H     0.03818   0.70742   0.51270   0.00000  Uiso   1.00
H541   H     0.89039   0.80538   0.12364   0.00000  Uiso   1.00
H542   H     0.93788   0.87552   0.85004   0.00000  Uiso   1.00
H543   H     0.12138   0.65327   0.51163   0.00000  Uiso   1.00
O544   O     0.90692   0.86327   0.96565   0.00000  Uiso   1.00
O545   O     0.96924   0.95529   0.91865   0.00000  Uiso   1.00
O546   O     0.20999   0.66371   0.47467   0.00000  Uiso   1.00
N547   N     0.96642   0.87951   0.08300   0.00000  Uiso   1.00
N548   N     0.01082   0.94510   0.76212   0.00000  Uiso   1.00
N549   N     0.18239   0.73732   0.44577   0.00000  Uiso   1.00
N550   N     0.91745   0.82639   0.12834   0.00000  Uiso   1.00
N551   N     0.96185   0.89198   0.80746   0.00000  Uiso   1.00
N552   N     0.13341   0.68420   0.49112   0.00000  Uiso   1.00
C553   C     0.85864   0.94248   0.57375   0.00000  Uiso   1.00
C554   C     0.85141   0.97955   0.65728   0.00000  Uiso   1.00
C555   C     0.87492   0.98344   0.75276   0.00000  Uiso   1.00
C556   C     0.86329   0.01977   0.81833   0.00000  Uiso   1.00
C557   C     0.85723   0.07258   0.95241   0.00000  Uiso   1.00
C558   C     0.86949   0.96732   0.47011   0.00000  Uiso   1.00
C559   C     0.90820   0.96092   0.40822   0.00000  Uiso   1.00
C560   C     0.91178   0.98695   0.31623   0.00000  Uiso   1.00
C561   C     0.93378   0.02076   0.15969   0.00000  Uiso   1.00
C562   C     0.81222   0.92004   0.55732   0.00000  Uiso   1.00
C563   C     0.80279   0.87388   0.56872   0.00000  Uiso   1.00
C564   C     0.75816   0.86010   0.55012   0.00000  Uiso   1.00
C565   C     0.69125   0.82049   0.52898   0.00000  Uiso   1.00
C566   C     0.79617   0.00007   0.52042   0.00000  Uiso   1.00
C567   C     0.81748   0.01083   0.62830   0.00000  Uiso   1.00
C568   C     0.80580   0.04716   0.69375   0.00000  Uiso   1.00
C569   C     0.82929   0.05110   0.78932   0.00000  Uiso   1.00
C570   C     0.83556   0.99860   0.44114   0.00000  Uiso   1.00
C571   C     0.83908   0.02464   0.34922   0.00000  Uiso   1.00
C572   C     0.87779   0.01829   0.28721   0.00000  Uiso   1.00
C573   C     0.77829   0.95132   0.52835   0.00000  Uiso   1.00
C574   C     0.73367   0.93760   0.50972   0.00000  Uiso   1.00
C575   C     0.72417   0.89144   0.52110   0.00000  Uiso   1.00
H576   H     0.88506   0.91813   0.59630   0.00000  Uiso   1.00
H577   H     0.90118   0.95923   0.77514   0.00000  Uiso   1.00
H578   H     0.93445   0.93671   0.43066   0.00000  Uiso   1.00
H579   H     0.82905   0.84969   0.59114   0.00000  Uiso   1.00
H580   H     0.90410   0.01860   0.96063   0.00000  Uiso   1.00
H581   H     0.97424   0.97111   0.23424   0.00000  Uiso   1.00
H582   H     0.75200   0.78761   0.57264   0.00000  Uiso   1.00
H583   H     0.76975   0.02442   0.49786   0.00000  Uiso   1.00
H584   H     0.77955   0.07136   0.67131   0.00000  Uiso   1.00
H585   H     0.81282   0.04884   0.32682   0.00000  Uiso   1.00
H586   H     0.70742   0.96182   0.48730   0.00000  Uiso   1.00
H587   H     0.80538   0.10961   0.87636   0.00000  Uiso   1.00
H588   H     0.87552   0.06212   0.14996   0.00000  Uiso   1.00
H589   H     0.65327   0.87862   0.48837   0.00000  Uiso   1.00
O590   O     0.86327   0.09308   0.03435   0.00000  Uiso   1.00
O591   O     0.95529   0.03076   0.08135   0.00000  Uiso   1.00
O592   O     0.66371   0.79001   0.52533   0.00000  Uiso   1.00
N593   N     0.87951   0.03358   0.91700   0.00000  Uiso   1.00
N594   N     0.94510   0.98918   0.23788   0.00000  Uiso   1.00
N595   N     0.73732   0.81761   0.55423   0.00000  Uiso   1.00
N596   N     0.82639   0.08255   0.87166   0.00000  Uiso   1.00
N597   N     0.89198   0.03815   0.19254   0.00000  Uiso   1.00
N598   N     0.68420   0.86659   0.50888   0.00000  Uiso   1.00
C599   C     0.35864   0.44248   0.07375   0.00000  Uiso   1.00
C600   C     0.35141   0.47955   0.15728   0.00000  Uiso   1.00
C601   C     0.37492   0.48344   0.25276   0.00000  Uiso   1.00
C602   C     0.36329   0.51977   0.31833   0.00000  Uiso   1.00
C603   C     0.35723   0.57258   0.45241   0.00000  Uiso   1.00
C604   C     0.36949   0.46732   0.97011   0.00000  Uiso   1.00
C605   C     0.40820   0.46092   0.90822   0.00000  Uiso   1.00
C606   C     0.41178   0.48695   0.81623   0.00000  Uiso   1.00
C607   C     0.43378   0.52076   0.65969   0.00000  Uiso   1.00
C608   C     0.31222   0.42004   0.05732   0.00000  Uiso   1.00
C609   C     0.30279   0.37388   0.06872   0.00000  Uiso   1.00
C610   C     0.25816   0.36010   0.05012   0.00000  Uiso   1.00
C611   C     0.19125   0.32049   0.02898   0.00000  Uiso   1.00
C612   C     0.29617   0.50007   0.02042   0.00000  Uiso   1.00
C613   C     0.31748   0.51083   0.12830   0.00000  Uiso   1.00
C614   C     0.30580   0.54716   0.19375   0.00000  Uiso   1.00
C615   C     0.32929   0.55110   0.28932   0.00000  Uiso   1.00
C616   C     0.33556   0.49860   0.94114   0.00000  Uiso   1.00
C617   C     0.33908   0.52464   0.84922   0.00000  Uiso   1.00
C618   C     0.37779   0.51829   0.78721   0.00000  Uiso   1.00
C619   C     0.27829   0.45132   0.02835   0.00000  Uiso   1.00
C620   C     0.23367   0.43760   0.00972   0.00000  Uiso   1.00
C621   C     0.22417   0.39144   0.02110   0.00000  Uiso   1.00
H622   H     0.38506   0.41813   0.09630   0.00000  Uiso   1.00
H623   H     0.40118   0.45923   0.27514   0.00000  Uiso   1.00
H624   H     0.43445   0.43671   0.93066   0.00000  Uiso   1.00
H625   H     0.32905   0.34969   0.09114   0.00000  Uiso   1.00
H626   H     0.40410   0.51860   0.46063   0.00000  Uiso   1.00
H627   H     0.47424   0.47111   0.73424   0.00000  Uiso   1.00
H628   H     0.25200   0.28761   0.07264   0.00000  Uiso   1.00
H629   H     0.26975   0.52442   0.99786   0.00000  Uiso   1.00
H630   H     0.27955   0.57136   0.17131   0.00000  Uiso   1.00
H631   H     0.31282   0.54884   0.82682   0.00000  Uiso   1.00
H632   H     0.20742   0.46182   0.98730   0.00000  Uiso   1.00
H633   H     0.30538   0.60961   0.37636   0.00000  Uiso   1.00
H634   H     0.37552   0.56212   0.64996   0.00000  Uiso   1.00
H635   H     0.15327   0.37862   0.98837   0.00000  Uiso   1.00
O636   O     0.36327   0.59308   0.53435   0.00000  Uiso   1.00
O637   O     0.45529   0.53076   0.58135   0.00000  Uiso   1.00
O638   O     0.16371   0.29001   0.02533   0.00000  Uiso   1.00
N639   N     0.37951   0.53358   0.41700   0.00000  Uiso   1.00
N640   N     0.44510   0.48918   0.73788   0.00000  Uiso   1.00
N641   N     0.23732   0.31761   0.05423   0.00000  Uiso   1.00
N642   N     0.32639   0.58255   0.37166   0.00000  Uiso   1.00
N643   N     0.39198   0.53815   0.69254   0.00000  Uiso   1.00
N644   N     0.18420   0.36659   0.00888   0.00000  Uiso   1.00
C645   C     0.14136   0.05752   0.57375   0.00000  Uiso   1.00
C646   C     0.14859   0.02045   0.65728   0.00000  Uiso   1.00
C647   C     0.12508   0.01656   0.75276   0.00000  Uiso   1.00
C648   C     0.13671   0.98023   0.81833   0.00000  Uiso   1.00
C649   C     0.14277   0.92742   0.95241   0.00000  Uiso   1.00
C650   C     0.13051   0.03268   0.47011   0.00000  Uiso   1.00
C651   C     0.09180   0.03908   0.40822   0.00000  Uiso   1.00
C652   C     0.08822   0.01305   0.31623   0.00000  Uiso   1.00
C653   C     0.06622   0.97924   0.15969   0.00000  Uiso   1.00
C654   C     0.18778   0.07996   0.55732   0.00000  Uiso   1.00
C655   C     0.19721   0.12612   0.56872   0.00000  Uiso   1.00
C656   C     0.24184   0.13990   0.55012   0.00000  Uiso   1.00
C657   C     0.30875   0.17951   0.52898   0.00000  Uiso   1.00
C658   C     0.20383   0.99993   0.52042   0.00000  Uiso   1.00
C659   C     0.18252   0.98917   0.62830   0.00000  Uiso   1.00
C660   C     0.19420   0.95284   0.69375   0.00000  Uiso   1.00
C661   C     0.17071   0.94890   0.78932   0.00000  Uiso   1.00
C662   C     0.16444   0.00140   0.44114   0.00000  Uiso   1.00
C663   C     0.16092   0.97536   0.34922   0.00000  Uiso   1.00
C664   C     0.12221   0.98171   0.28721   0.00000  Uiso   1.00
C665   C     0.22171   0.04868   0.52835   0.00000  Uiso   1.00
C666   C     0.26633   0.06240   0.50972   0.00000  Uiso   1.00
C667   C     0.27583   0.10856   0.52110   0.00000  Uiso   1.00
H668   H     0.11494   0.08187   0.59630   0.00000  Uiso   1.00
H669   H     0.09882   0.04077   0.77514   0.00000  Uiso   1.00
H670   H     0.06555   0.06329   0.43066   0.00000  Uiso   1.00
H671   H     0.17095   0.15031   0.59114   0.00000  Uiso   1.00
H672   H     0.09590   0.98140   0.96063   0.00000  Uiso   1.00
H673   H     0.02576   0.02889   0.23424   0.00000  Uiso   1.00
H674   H     0.24800   0.21239   0.57264   0.00000  Uiso   1.00
H675   H     0.23025   0.97558   0.49786   0.00000  Uiso   1.00
H676   H     0.22045   0.92864   0.67131   0.00000  Uiso   1.00
H677   H     0.18718   0.95116   0.32682   0.00000  Uiso   1.00
H678   H     0.29258   0.03818   0.48730   0.00000  Uiso   1.00
H679   H     0.19462   0.89039   0.87636   0.00000  Uiso   1.00
H680   H     0.12448   0.93788   0.14996   0.00000  Uiso   1.00
H681   H     0.34673   0.12138   0.48837   0.00000  Uiso   1.00
O682   O     0.13673   0.90692   0.03435   0.00000  Uiso   1.00
O683   O     0.04471   0.96924   0.08135   0.00000  Uiso   1.00
O684   O     0.33629   0.20999   0.52533   0.00000  Uiso   1.00
N685   N     0.12049   0.96642   0.91700   0.00000  Uiso   1.00
N686   N     0.05490   0.01082   0.23788   0.00000  Uiso   1.00
N687   N     0.26268   0.18239   0.55423   0.00000  Uiso   1.00
N688   N     0.17361   0.91745   0.87166   0.00000  Uiso   1.00
N689   N     0.10802   0.96185   0.19254   0.00000  Uiso   1.00
N690   N     0.31580   0.13341   0.50888   0.00000  Uiso   1.00
C691   C     0.64136   0.55752   0.07375   0.00000  Uiso   1.00
C692   C     0.64859   0.52045   0.15728   0.00000  Uiso   1.00
C693   C     0.62508   0.51656   0.25276   0.00000  Uiso   1.00
C694   C     0.63671   0.48023   0.31833   0.00000  Uiso   1.00
C695   C     0.64277   0.42742   0.45241   0.00000  Uiso   1.00
C696   C     0.63051   0.53268   0.97011   0.00000  Uiso   1.00
C697   C     0.59180   0.53908   0.90822   0.00000  Uiso   1.00
C698   C     0.58822   0.51305   0.81623   0.00000  Uiso   1.00
C699   C     0.56622   0.47924   0.65969   0.00000  Uiso   1.00
C700   C     0.68778   0.57996   0.05732   0.00000  Uiso   1.00
C701   C     0.69721   0.62612   0.06872   0.00000  Uiso   1.00
C702   C     0.74184   0.63990   0.05012   0.00000  Uiso   1.00
C703   C     0.80875   0.67951   0.02898   0.00000  Uiso   1.00
C704   C     0.70383   0.49993   0.02042   0.00000  Uiso   1.00
C705   C     0.68252   0.48917   0.12830   0.00000  Uiso   1.00
C706   C     0.69420   0.45284   0.19375   0.00000  Uiso   1.00
C707   C     0.67071   0.44890   0.28932   0.00000  Uiso   1.00
C708   C     0.66444   0.50140   0.94114   0.00000  Uiso   1.00
C709   C     0.66092   0.47536   0.84922   0.00000  Uiso   1.00
C710   C     0.62221   0.48171   0.78721   0.00000  Uiso   1.00
C711   C     0.72171   0.54868   0.02835   0.00000  Uiso   1.00
C712   C     0.76633   0.56240   0.00972   0.00000  Uiso   1.00
C713   C     0.77583   0.60856   0.02110   0.00000  Uiso   1.00
H714   H     0.61494   0.58187   0.09630   0.00000  Uiso   1.00
H715   H     0.59882   0.54077   0.27514   0.00000  Uiso   1.00
H716   H     0.56555   0.56329   0.93066   0.00000  Uiso   1.00
H717   H     0.67095   0.65031   0.09114   0.00000  Uiso   1.00
H718   H     0.59590   0.48140   0.46063   0.00000  Uiso   1.00
H719   H     0.52576   0.52889   0.73424   0.00000  Uiso   1.00
H720   H     0.74800   0.71239   0.07264   0.00000  Uiso   1.00
H721   H     0.73025   0.47558   0.99786   0.00000  Uiso   1.00
H722   H     0.72045   0.42864   0.17131   0.00000  Uiso   1.00
H723   H     0.68718   0.45116   0.82682   0.00000  Uiso   1.00
H724   H     0.79258   0.53818   0.98730   0.00000  Uiso   1.00
H725   H     0.69462   0.39039   0.37636   0.00000  Uiso   1.00
H726   H     0.62448   0.43788   0.64996   0.00000  Uiso   1.00
H727   H     0.84673   0.62138   0.98837   0.00000  Uiso   1.00
O728   O     0.63673   0.40692   0.53435   0.00000  Uiso   1.00
O729   O     0.54471   0.46924   0.58135   0.00000  Uiso   1.00
O730   O     0.83629   0.70999   0.02533   0.00000  Uiso   1.00
N731   N     0.62049   0.46642   0.41700   0.00000  Uiso   1.00
N732   N     0.55490   0.51082   0.73788   0.00000  Uiso   1.00
N733   N     0.76268   0.68239   0.05423   0.00000  Uiso   1.00
N734   N     0.67361   0.41745   0.37166   0.00000  Uiso   1.00
N735   N     0.60802   0.46185   0.69254   0.00000  Uiso   1.00
N736   N     0.81580   0.63341   0.00888   0.00000  Uiso   1.00
