data_job_05289
_audit_creation_date              2018-12-19
_audit_creation_method            'Materials Studio'
_symmetry_space_group_name_H-M    'P1'
_symmetry_Int_Tables_number       1
_symmetry_cell_setting            triclinic
loop_
_symmetry_equiv_pos_as_xyz
  x,y,z
_cell_length_a                    20.4911
_cell_length_b                    14.2684
_cell_length_c                    48.2738
_cell_angle_alpha                 90.0000
_cell_angle_beta                  89.9716
_cell_angle_gamma                 90.0000
loop_
_atom_site_label
_atom_site_type_symbol
_atom_site_fract_x
_atom_site_fract_y
_atom_site_fract_z
_atom_site_U_iso_or_equiv
_atom_site_adp_type
_atom_site_occupancy
C1     C     0.69218   0.77332   0.90121   0.00000  Uiso   1.00
C2     C     0.62352   0.79388   0.91180   0.00000  Uiso   1.00
C3     C     0.56583   0.77050   0.89843   0.00000  Uiso   1.00
C4     C     0.50803   0.79545   0.91151   0.00000  Uiso   1.00
C5     C     0.40143   0.82033   0.92405   0.00000  Uiso   1.00
C6     C     0.72714   0.86758   0.90003   0.00000  Uiso   1.00
C7     C     0.75658   0.90615   0.87678   0.00000  Uiso   1.00
C8     C     0.78601   0.99314   0.87996   0.00000  Uiso   1.00
C9     C     0.84032   0.13240   0.87424   0.00000  Uiso   1.00
C10    C     0.72583   0.71737   0.92402   0.00000  Uiso   1.00
C11    C     0.75417   0.62965   0.92093   0.00000  Uiso   1.00
C12    C     0.78251   0.59017   0.94430   0.00000  Uiso   1.00
C13    C     0.83478   0.49620   0.97582   0.00000  Uiso   1.00
C14    C     0.69212   0.85921   0.94821   0.00000  Uiso   1.00
C15    C     0.62349   0.84054   0.93732   0.00000  Uiso   1.00
C16    C     0.56576   0.86553   0.95042   0.00000  Uiso   1.00
C17    C     0.50799   0.84218   0.93708   0.00000  Uiso   1.00
C18    C     0.72711   0.91424   0.92555   0.00000  Uiso   1.00
C19    C     0.75651   0.00118   0.92877   0.00000  Uiso   1.00
C20    C     0.78598   0.03988   0.90552   0.00000  Uiso   1.00
C21    C     0.72579   0.76402   0.94954   0.00000  Uiso   1.00
C22    C     0.75410   0.72468   0.97292   0.00000  Uiso   1.00
C23    C     0.78248   0.63691   0.96987   0.00000  Uiso   1.00
H24    H     0.69221   0.73701   0.88134   0.00000  Uiso   1.00
H25    H     0.56588   0.73440   0.87868   0.00000  Uiso   1.00
H26    H     0.75660   0.87003   0.85703   0.00000  Uiso   1.00
H27    H     0.75419   0.59357   0.90118   0.00000  Uiso   1.00
H28    H     0.42580   0.75212   0.88698   0.00000  Uiso   1.00
H29    H     0.82797   0.03809   0.84133   0.00000  Uiso   1.00
H30    H     0.82289   0.45511   0.93442   0.00000  Uiso   1.00
H31    H     0.69209   0.89554   0.96808   0.00000  Uiso   1.00
H32    H     0.56575   0.90163   0.97017   0.00000  Uiso   1.00
H33    H     0.75648   0.03726   0.94852   0.00000  Uiso   1.00
H34    H     0.75406   0.76080   0.99267   0.00000  Uiso   1.00
H35    H     0.42570   0.88786   0.96123   0.00000  Uiso   1.00
H36    H     0.82787   0.17382   0.91559   0.00000  Uiso   1.00
H37    H     0.82279   0.59084   0.00868   0.00000  Uiso   1.00
O38    O     0.34264   0.82117   0.92391   0.00000  Uiso   1.00
O39    O     0.87029   0.19633   0.86403   0.00000  Uiso   1.00
O40    O     0.86361   0.43148   0.98616   0.00000  Uiso   1.00
N41    N     0.44311   0.78322   0.90417   0.00000  Uiso   1.00
N42    N     0.81911   0.05058   0.86149   0.00000  Uiso   1.00
N43    N     0.81438   0.50556   0.94852   0.00000  Uiso   1.00
N44    N     0.44306   0.85625   0.94413   0.00000  Uiso   1.00
N45    N     0.81906   0.12362   0.90145   0.00000  Uiso   1.00
N46    N     0.81432   0.57859   0.98848   0.00000  Uiso   1.00
C47    C     0.07364   0.05229   0.34882   0.00000  Uiso   1.00
C48    C     0.00500   0.07287   0.33825   0.00000  Uiso   1.00
C49    C     0.94728   0.04949   0.35162   0.00000  Uiso   1.00
C50    C     0.88950   0.07446   0.33855   0.00000  Uiso   1.00
C51    C     0.78293   0.09937   0.32602   0.00000  Uiso   1.00
C52    C     0.10861   0.14654   0.35001   0.00000  Uiso   1.00
C53    C     0.13800   0.18509   0.37326   0.00000  Uiso   1.00
C54    C     0.16745   0.27207   0.37009   0.00000  Uiso   1.00
C55    C     0.22176   0.41131   0.37582   0.00000  Uiso   1.00
C56    C     0.10732   0.99635   0.32601   0.00000  Uiso   1.00
C57    C     0.13565   0.90862   0.32909   0.00000  Uiso   1.00
C58    C     0.16403   0.86917   0.30571   0.00000  Uiso   1.00
C59    C     0.21635   0.77522   0.27418   0.00000  Uiso   1.00
C60    C     0.07367   0.13822   0.30184   0.00000  Uiso   1.00
C61    C     0.00502   0.11955   0.31273   0.00000  Uiso   1.00
C62    C     0.94731   0.14456   0.29964   0.00000  Uiso   1.00
C63    C     0.88952   0.12122   0.31298   0.00000  Uiso   1.00
C64    C     0.10862   0.19322   0.32449   0.00000  Uiso   1.00
C65    C     0.13803   0.28016   0.32128   0.00000  Uiso   1.00
C66    C     0.16746   0.31883   0.34453   0.00000  Uiso   1.00
C67    C     0.10734   0.04303   0.30049   0.00000  Uiso   1.00
C68    C     0.13568   0.00370   0.27711   0.00000  Uiso   1.00
C69    C     0.16404   0.91593   0.28015   0.00000  Uiso   1.00
H70    H     0.07363   0.01595   0.36869   0.00000  Uiso   1.00
H71    H     0.94729   0.01337   0.37137   0.00000  Uiso   1.00
H72    H     0.13799   0.14894   0.39301   0.00000  Uiso   1.00
H73    H     0.13563   0.87252   0.34884   0.00000  Uiso   1.00
H74    H     0.80723   0.03113   0.36309   0.00000  Uiso   1.00
H75    H     0.20934   0.31697   0.40872   0.00000  Uiso   1.00
H76    H     0.20438   0.73409   0.31558   0.00000  Uiso   1.00
H77    H     0.07368   0.17457   0.28197   0.00000  Uiso   1.00
H78    H     0.94734   0.18069   0.27989   0.00000  Uiso   1.00
H79    H     0.13804   0.31626   0.30153   0.00000  Uiso   1.00
H80    H     0.13568   0.03984   0.25736   0.00000  Uiso   1.00
H81    H     0.80727   0.16693   0.28884   0.00000  Uiso   1.00
H82    H     0.20939   0.45277   0.33447   0.00000  Uiso   1.00
H83    H     0.20442   0.86989   0.24133   0.00000  Uiso   1.00
O84    O     0.72414   0.10022   0.32616   0.00000  Uiso   1.00
O85    O     0.25171   0.47523   0.38603   0.00000  Uiso   1.00
O86    O     0.24519   0.71050   0.26383   0.00000  Uiso   1.00
N87    N     0.82458   0.06223   0.34590   0.00000  Uiso   1.00
N88    N     0.20052   0.32949   0.38856   0.00000  Uiso   1.00
N89    N     0.19590   0.78455   0.30148   0.00000  Uiso   1.00
N90    N     0.82460   0.13530   0.30594   0.00000  Uiso   1.00
N91    N     0.20054   0.40256   0.34861   0.00000  Uiso   1.00
N92    N     0.19592   0.85762   0.26153   0.00000  Uiso   1.00
C93    C     0.69057   0.04091   0.15190   0.00000  Uiso   1.00
C94    C     0.75920   0.05953   0.16279   0.00000  Uiso   1.00
C95    C     0.81693   0.03506   0.14960   0.00000  Uiso   1.00
C96    C     0.87471   0.05828   0.16295   0.00000  Uiso   1.00
C97    C     0.98128   0.08024   0.17595   0.00000  Uiso   1.00
C98    C     0.65675   0.13604   0.15079   0.00000  Uiso   1.00
C99    C     0.62834   0.17588   0.12751   0.00000  Uiso   1.00
C100   C     0.59986   0.26350   0.13076   0.00000  Uiso   1.00
C101   C     0.54734   0.40420   0.12513   0.00000  Uiso   1.00
C102   C     0.65572   0.98524   0.17445   0.00000  Uiso   1.00
C103   C     0.62642   0.89831   0.17107   0.00000  Uiso   1.00
C104   C     0.59706   0.85897   0.19425   0.00000  Uiso   1.00
C105   C     0.54294   0.76554   0.22537   0.00000  Uiso   1.00
C106   C     0.69053   0.12566   0.19907   0.00000  Uiso   1.00
C107   C     0.75918   0.10557   0.18841   0.00000  Uiso   1.00
C108   C     0.81688   0.12882   0.20179   0.00000  Uiso   1.00
C109   C     0.87469   0.10439   0.18862   0.00000  Uiso   1.00
C110   C     0.65673   0.18207   0.17641   0.00000  Uiso   1.00
C111   C     0.62829   0.26964   0.17970   0.00000  Uiso   1.00
C112   C     0.59984   0.30961   0.15642   0.00000  Uiso   1.00
C113   C     0.65570   0.03127   0.20008   0.00000  Uiso   1.00
C114   C     0.62638   0.99207   0.22326   0.00000  Uiso   1.00
C115   C     0.59704   0.90509   0.21992   0.00000  Uiso   1.00
H116   H     0.69058   0.00508   0.13195   0.00000  Uiso   1.00
H117   H     0.81693   0.99945   0.12977   0.00000  Uiso   1.00
H118   H     0.62836   0.14024   0.10768   0.00000  Uiso   1.00
H119   H     0.62645   0.86271   0.15124   0.00000  Uiso   1.00
H120   H     0.95699   0.01353   0.13864   0.00000  Uiso   1.00
H121   H     0.55936   0.31039   0.09207   0.00000  Uiso   1.00
H122   H     0.55533   0.72516   0.18392   0.00000  Uiso   1.00
H123   H     0.69051   0.16150   0.21902   0.00000  Uiso   1.00
H124   H     0.81685   0.16445   0.22161   0.00000  Uiso   1.00
H125   H     0.62828   0.30524   0.19953   0.00000  Uiso   1.00
H126   H     0.62637   0.02771   0.24309   0.00000  Uiso   1.00
H127   H     0.95693   0.14746   0.21318   0.00000  Uiso   1.00
H128   H     0.55929   0.44431   0.16661   0.00000  Uiso   1.00
H129   H     0.55527   0.85908   0.25847   0.00000  Uiso   1.00
O130   O     0.04007   0.07964   0.17604   0.00000  Uiso   1.00
O131   O     0.51839   0.46909   0.11495   0.00000  Uiso   1.00
O132   O     0.51310   0.70128   0.23546   0.00000  Uiso   1.00
N133   N     0.93964   0.04463   0.15583   0.00000  Uiso   1.00
N134   N     0.56788   0.32218   0.11229   0.00000  Uiso   1.00
N135   N     0.56410   0.77505   0.19816   0.00000  Uiso   1.00
N136   N     0.93960   0.11670   0.19594   0.00000  Uiso   1.00
N137   N     0.56785   0.39424   0.15240   0.00000  Uiso   1.00
N138   N     0.56407   0.84711   0.23828   0.00000  Uiso   1.00
C139   C     0.69103   0.31981   0.40178   0.00000  Uiso   1.00
C140   C     0.62237   0.33842   0.41266   0.00000  Uiso   1.00
C141   C     0.56468   0.31393   0.39947   0.00000  Uiso   1.00
C142   C     0.50687   0.33714   0.41282   0.00000  Uiso   1.00
C143   C     0.40026   0.35907   0.42582   0.00000  Uiso   1.00
C144   C     0.72484   0.41495   0.40066   0.00000  Uiso   1.00
C145   C     0.75331   0.45479   0.37738   0.00000  Uiso   1.00
C146   C     0.78176   0.54242   0.38063   0.00000  Uiso   1.00
C147   C     0.83428   0.68313   0.37499   0.00000  Uiso   1.00
C148   C     0.72583   0.26417   0.42434   0.00000  Uiso   1.00
C149   C     0.75516   0.17724   0.42096   0.00000  Uiso   1.00
C150   C     0.78446   0.13793   0.44414   0.00000  Uiso   1.00
C151   C     0.83852   0.04453   0.47526   0.00000  Uiso   1.00
C152   C     0.69095   0.40459   0.44895   0.00000  Uiso   1.00
C153   C     0.62233   0.38447   0.43828   0.00000  Uiso   1.00
C154   C     0.56458   0.40772   0.45166   0.00000  Uiso   1.00
C155   C     0.50682   0.38326   0.43849   0.00000  Uiso   1.00
C156   C     0.72479   0.46100   0.42628   0.00000  Uiso   1.00
C157   C     0.75321   0.54858   0.42956   0.00000  Uiso   1.00
C158   C     0.78171   0.58855   0.40629   0.00000  Uiso   1.00
C159   C     0.72579   0.31022   0.44996   0.00000  Uiso   1.00
C160   C     0.75506   0.27103   0.47314   0.00000  Uiso   1.00
C161   C     0.78441   0.18406   0.46980   0.00000  Uiso   1.00
H162   H     0.69107   0.28397   0.38183   0.00000  Uiso   1.00
H163   H     0.56474   0.27830   0.37964   0.00000  Uiso   1.00
H164   H     0.75334   0.41913   0.35756   0.00000  Uiso   1.00
H165   H     0.75518   0.14163   0.40113   0.00000  Uiso   1.00
H166   H     0.42465   0.29235   0.38851   0.00000  Uiso   1.00
H167   H     0.82235   0.58930   0.34194   0.00000  Uiso   1.00
H168   H     0.82624   0.00412   0.43382   0.00000  Uiso   1.00
H169   H     0.69091   0.44044   0.46889   0.00000  Uiso   1.00
H170   H     0.56456   0.44336   0.47148   0.00000  Uiso   1.00
H171   H     0.75317   0.58419   0.44939   0.00000  Uiso   1.00
H172   H     0.75501   0.30669   0.49297   0.00000  Uiso   1.00
H173   H     0.42451   0.42632   0.46305   0.00000  Uiso   1.00
H174   H     0.82222   0.72327   0.41648   0.00000  Uiso   1.00
H175   H     0.82610   0.13809   0.50836   0.00000  Uiso   1.00
O176   O     0.34147   0.35846   0.42591   0.00000  Uiso   1.00
O177   O     0.86325   0.74803   0.36481   0.00000  Uiso   1.00
O178   O     0.86834   0.98029   0.48536   0.00000  Uiso   1.00
N179   N     0.44196   0.32347   0.40570   0.00000  Uiso   1.00
N180   N     0.81378   0.60110   0.36216   0.00000  Uiso   1.00
N181   N     0.81743   0.05402   0.44806   0.00000  Uiso   1.00
N182   N     0.44188   0.39555   0.44581   0.00000  Uiso   1.00
N183   N     0.81370   0.67318   0.40227   0.00000  Uiso   1.00
N184   N     0.81735   0.12610   0.48817   0.00000  Uiso   1.00
C185   C     0.19218   0.27332   0.90121   0.00000  Uiso   1.00
C186   C     0.12352   0.29388   0.91180   0.00000  Uiso   1.00
C187   C     0.06583   0.27050   0.89843   0.00000  Uiso   1.00
C188   C     0.00803   0.29545   0.91151   0.00000  Uiso   1.00
C189   C     0.90143   0.32033   0.92405   0.00000  Uiso   1.00
C190   C     0.22714   0.36758   0.90003   0.00000  Uiso   1.00
C191   C     0.25658   0.40615   0.87678   0.00000  Uiso   1.00
C192   C     0.28601   0.49314   0.87996   0.00000  Uiso   1.00
C193   C     0.34032   0.63240   0.87424   0.00000  Uiso   1.00
C194   C     0.22583   0.21737   0.92402   0.00000  Uiso   1.00
C195   C     0.25417   0.12965   0.92093   0.00000  Uiso   1.00
C196   C     0.28251   0.09017   0.94430   0.00000  Uiso   1.00
C197   C     0.33478   0.99620   0.97582   0.00000  Uiso   1.00
C198   C     0.19212   0.35921   0.94821   0.00000  Uiso   1.00
C199   C     0.12349   0.34054   0.93732   0.00000  Uiso   1.00
C200   C     0.06576   0.36553   0.95042   0.00000  Uiso   1.00
C201   C     0.00799   0.34218   0.93708   0.00000  Uiso   1.00
C202   C     0.22711   0.41424   0.92555   0.00000  Uiso   1.00
C203   C     0.25651   0.50118   0.92877   0.00000  Uiso   1.00
C204   C     0.28598   0.53988   0.90552   0.00000  Uiso   1.00
C205   C     0.22579   0.26402   0.94954   0.00000  Uiso   1.00
C206   C     0.25410   0.22468   0.97292   0.00000  Uiso   1.00
C207   C     0.28248   0.13691   0.96987   0.00000  Uiso   1.00
H208   H     0.19221   0.23701   0.88134   0.00000  Uiso   1.00
H209   H     0.06588   0.23440   0.87868   0.00000  Uiso   1.00
H210   H     0.25660   0.37003   0.85703   0.00000  Uiso   1.00
H211   H     0.25419   0.09357   0.90118   0.00000  Uiso   1.00
H212   H     0.92580   0.25212   0.88698   0.00000  Uiso   1.00
H213   H     0.32797   0.53809   0.84133   0.00000  Uiso   1.00
H214   H     0.32289   0.95511   0.93442   0.00000  Uiso   1.00
H215   H     0.19209   0.39554   0.96808   0.00000  Uiso   1.00
H216   H     0.06575   0.40163   0.97017   0.00000  Uiso   1.00
H217   H     0.25648   0.53726   0.94852   0.00000  Uiso   1.00
H218   H     0.25406   0.26080   0.99267   0.00000  Uiso   1.00
H219   H     0.92570   0.38786   0.96123   0.00000  Uiso   1.00
H220   H     0.32787   0.67382   0.91559   0.00000  Uiso   1.00
H221   H     0.32279   0.09084   0.00868   0.00000  Uiso   1.00
O222   O     0.84264   0.32117   0.92391   0.00000  Uiso   1.00
O223   O     0.37029   0.69633   0.86403   0.00000  Uiso   1.00
O224   O     0.36361   0.93148   0.98616   0.00000  Uiso   1.00
N225   N     0.94311   0.28322   0.90417   0.00000  Uiso   1.00
N226   N     0.31911   0.55058   0.86149   0.00000  Uiso   1.00
N227   N     0.31438   0.00556   0.94852   0.00000  Uiso   1.00
N228   N     0.94306   0.35625   0.94413   0.00000  Uiso   1.00
N229   N     0.31906   0.62362   0.90145   0.00000  Uiso   1.00
N230   N     0.31432   0.07859   0.98848   0.00000  Uiso   1.00
C231   C     0.57364   0.55229   0.34882   0.00000  Uiso   1.00
C232   C     0.50500   0.57287   0.33825   0.00000  Uiso   1.00
C233   C     0.44728   0.54949   0.35162   0.00000  Uiso   1.00
C234   C     0.38950   0.57446   0.33855   0.00000  Uiso   1.00
C235   C     0.28293   0.59937   0.32602   0.00000  Uiso   1.00
C236   C     0.60861   0.64654   0.35001   0.00000  Uiso   1.00
C237   C     0.63800   0.68509   0.37326   0.00000  Uiso   1.00
C238   C     0.66745   0.77207   0.37009   0.00000  Uiso   1.00
C239   C     0.72176   0.91131   0.37582   0.00000  Uiso   1.00
C240   C     0.60732   0.49635   0.32601   0.00000  Uiso   1.00
C241   C     0.63565   0.40862   0.32909   0.00000  Uiso   1.00
C242   C     0.66403   0.36917   0.30571   0.00000  Uiso   1.00
C243   C     0.71635   0.27522   0.27418   0.00000  Uiso   1.00
C244   C     0.57367   0.63822   0.30184   0.00000  Uiso   1.00
C245   C     0.50502   0.61955   0.31273   0.00000  Uiso   1.00
C246   C     0.44731   0.64456   0.29964   0.00000  Uiso   1.00
C247   C     0.38952   0.62122   0.31298   0.00000  Uiso   1.00
C248   C     0.60862   0.69322   0.32449   0.00000  Uiso   1.00
C249   C     0.63803   0.78016   0.32128   0.00000  Uiso   1.00
C250   C     0.66746   0.81883   0.34453   0.00000  Uiso   1.00
C251   C     0.60734   0.54303   0.30049   0.00000  Uiso   1.00
C252   C     0.63568   0.50370   0.27711   0.00000  Uiso   1.00
C253   C     0.66404   0.41593   0.28015   0.00000  Uiso   1.00
H254   H     0.57363   0.51595   0.36869   0.00000  Uiso   1.00
H255   H     0.44729   0.51337   0.37137   0.00000  Uiso   1.00
H256   H     0.63799   0.64894   0.39301   0.00000  Uiso   1.00
H257   H     0.63563   0.37252   0.34884   0.00000  Uiso   1.00
H258   H     0.30723   0.53113   0.36309   0.00000  Uiso   1.00
H259   H     0.70934   0.81697   0.40872   0.00000  Uiso   1.00
H260   H     0.70438   0.23409   0.31558   0.00000  Uiso   1.00
H261   H     0.57368   0.67457   0.28197   0.00000  Uiso   1.00
H262   H     0.44734   0.68069   0.27989   0.00000  Uiso   1.00
H263   H     0.63804   0.81626   0.30153   0.00000  Uiso   1.00
H264   H     0.63568   0.53984   0.25736   0.00000  Uiso   1.00
H265   H     0.30727   0.66693   0.28884   0.00000  Uiso   1.00
H266   H     0.70939   0.95277   0.33447   0.00000  Uiso   1.00
H267   H     0.70442   0.36989   0.24133   0.00000  Uiso   1.00
O268   O     0.22414   0.60022   0.32616   0.00000  Uiso   1.00
O269   O     0.75171   0.97523   0.38603   0.00000  Uiso   1.00
O270   O     0.74519   0.21050   0.26383   0.00000  Uiso   1.00
N271   N     0.32458   0.56223   0.34590   0.00000  Uiso   1.00
N272   N     0.70052   0.82949   0.38856   0.00000  Uiso   1.00
N273   N     0.69590   0.28455   0.30148   0.00000  Uiso   1.00
N274   N     0.32460   0.63530   0.30594   0.00000  Uiso   1.00
N275   N     0.70054   0.90256   0.34861   0.00000  Uiso   1.00
N276   N     0.69592   0.35762   0.26153   0.00000  Uiso   1.00
C277   C     0.19057   0.54091   0.15190   0.00000  Uiso   1.00
C278   C     0.25920   0.55953   0.16279   0.00000  Uiso   1.00
C279   C     0.31693   0.53506   0.14960   0.00000  Uiso   1.00
C280   C     0.37471   0.55828   0.16295   0.00000  Uiso   1.00
C281   C     0.48128   0.58024   0.17595   0.00000  Uiso   1.00
C282   C     0.15675   0.63604   0.15079   0.00000  Uiso   1.00
C283   C     0.12834   0.67588   0.12751   0.00000  Uiso   1.00
C284   C     0.09986   0.76350   0.13076   0.00000  Uiso   1.00
C285   C     0.04734   0.90420   0.12513   0.00000  Uiso   1.00
C286   C     0.15572   0.48524   0.17445   0.00000  Uiso   1.00
C287   C     0.12642   0.39831   0.17107   0.00000  Uiso   1.00
C288   C     0.09706   0.35897   0.19425   0.00000  Uiso   1.00
C289   C     0.04294   0.26554   0.22537   0.00000  Uiso   1.00
C290   C     0.19053   0.62566   0.19907   0.00000  Uiso   1.00
C291   C     0.25918   0.60557   0.18841   0.00000  Uiso   1.00
C292   C     0.31688   0.62882   0.20179   0.00000  Uiso   1.00
C293   C     0.37469   0.60439   0.18862   0.00000  Uiso   1.00
C294   C     0.15673   0.68207   0.17641   0.00000  Uiso   1.00
C295   C     0.12829   0.76964   0.17970   0.00000  Uiso   1.00
C296   C     0.09984   0.80961   0.15642   0.00000  Uiso   1.00
C297   C     0.15570   0.53127   0.20008   0.00000  Uiso   1.00
C298   C     0.12638   0.49207   0.22326   0.00000  Uiso   1.00
C299   C     0.09704   0.40509   0.21992   0.00000  Uiso   1.00
H300   H     0.19058   0.50508   0.13195   0.00000  Uiso   1.00
H301   H     0.31693   0.49945   0.12977   0.00000  Uiso   1.00
H302   H     0.12836   0.64024   0.10768   0.00000  Uiso   1.00
H303   H     0.12645   0.36271   0.15124   0.00000  Uiso   1.00
H304   H     0.45699   0.51353   0.13864   0.00000  Uiso   1.00
H305   H     0.05936   0.81039   0.09207   0.00000  Uiso   1.00
H306   H     0.05533   0.22516   0.18392   0.00000  Uiso   1.00
H307   H     0.19051   0.66150   0.21902   0.00000  Uiso   1.00
H308   H     0.31685   0.66445   0.22161   0.00000  Uiso   1.00
H309   H     0.12828   0.80524   0.19953   0.00000  Uiso   1.00
H310   H     0.12637   0.52771   0.24309   0.00000  Uiso   1.00
H311   H     0.45693   0.64746   0.21318   0.00000  Uiso   1.00
H312   H     0.05929   0.94431   0.16661   0.00000  Uiso   1.00
H313   H     0.05527   0.35908   0.25847   0.00000  Uiso   1.00
O314   O     0.54007   0.57964   0.17604   0.00000  Uiso   1.00
O315   O     0.01839   0.96909   0.11495   0.00000  Uiso   1.00
O316   O     0.01310   0.20128   0.23546   0.00000  Uiso   1.00
N317   N     0.43964   0.54463   0.15583   0.00000  Uiso   1.00
N318   N     0.06788   0.82218   0.11229   0.00000  Uiso   1.00
N319   N     0.06410   0.27505   0.19816   0.00000  Uiso   1.00
N320   N     0.43960   0.61670   0.19594   0.00000  Uiso   1.00
N321   N     0.06785   0.89424   0.15240   0.00000  Uiso   1.00
N322   N     0.06407   0.34711   0.23828   0.00000  Uiso   1.00
C323   C     0.19103   0.81981   0.40178   0.00000  Uiso   1.00
C324   C     0.12237   0.83842   0.41266   0.00000  Uiso   1.00
C325   C     0.06468   0.81393   0.39947   0.00000  Uiso   1.00
C326   C     0.00687   0.83714   0.41282   0.00000  Uiso   1.00
C327   C     0.90026   0.85907   0.42582   0.00000  Uiso   1.00
C328   C     0.22484   0.91495   0.40066   0.00000  Uiso   1.00
C329   C     0.25331   0.95479   0.37738   0.00000  Uiso   1.00
C330   C     0.28176   0.04242   0.38063   0.00000  Uiso   1.00
C331   C     0.33428   0.18313   0.37499   0.00000  Uiso   1.00
C332   C     0.22583   0.76417   0.42434   0.00000  Uiso   1.00
C333   C     0.25516   0.67724   0.42096   0.00000  Uiso   1.00
C334   C     0.28446   0.63793   0.44414   0.00000  Uiso   1.00
C335   C     0.33852   0.54453   0.47526   0.00000  Uiso   1.00
C336   C     0.19095   0.90459   0.44895   0.00000  Uiso   1.00
C337   C     0.12233   0.88447   0.43828   0.00000  Uiso   1.00
C338   C     0.06458   0.90772   0.45166   0.00000  Uiso   1.00
C339   C     0.00682   0.88326   0.43849   0.00000  Uiso   1.00
C340   C     0.22479   0.96100   0.42628   0.00000  Uiso   1.00
C341   C     0.25321   0.04858   0.42956   0.00000  Uiso   1.00
C342   C     0.28171   0.08855   0.40629   0.00000  Uiso   1.00
C343   C     0.22579   0.81022   0.44996   0.00000  Uiso   1.00
C344   C     0.25506   0.77103   0.47314   0.00000  Uiso   1.00
C345   C     0.28441   0.68406   0.46980   0.00000  Uiso   1.00
H346   H     0.19107   0.78397   0.38183   0.00000  Uiso   1.00
H347   H     0.06474   0.77830   0.37964   0.00000  Uiso   1.00
H348   H     0.25334   0.91913   0.35756   0.00000  Uiso   1.00
H349   H     0.25518   0.64163   0.40113   0.00000  Uiso   1.00
H350   H     0.92465   0.79235   0.38851   0.00000  Uiso   1.00
H351   H     0.32235   0.08930   0.34194   0.00000  Uiso   1.00
H352   H     0.32624   0.50412   0.43382   0.00000  Uiso   1.00
H353   H     0.19091   0.94044   0.46889   0.00000  Uiso   1.00
H354   H     0.06456   0.94336   0.47148   0.00000  Uiso   1.00
H355   H     0.25317   0.08419   0.44939   0.00000  Uiso   1.00
H356   H     0.25501   0.80669   0.49297   0.00000  Uiso   1.00
H357   H     0.92451   0.92632   0.46305   0.00000  Uiso   1.00
H358   H     0.32222   0.22327   0.41648   0.00000  Uiso   1.00
H359   H     0.32610   0.63809   0.50836   0.00000  Uiso   1.00
O360   O     0.84147   0.85846   0.42591   0.00000  Uiso   1.00
O361   O     0.36325   0.24803   0.36481   0.00000  Uiso   1.00
O362   O     0.36834   0.48029   0.48536   0.00000  Uiso   1.00
N363   N     0.94196   0.82347   0.40570   0.00000  Uiso   1.00
N364   N     0.31378   0.10110   0.36216   0.00000  Uiso   1.00
N365   N     0.31743   0.55402   0.44806   0.00000  Uiso   1.00
N366   N     0.94188   0.89555   0.44581   0.00000  Uiso   1.00
N367   N     0.31370   0.17318   0.40227   0.00000  Uiso   1.00
N368   N     0.31735   0.62610   0.48817   0.00000  Uiso   1.00
C369   C     0.30782   0.77332   0.09879   0.00000  Uiso   1.00
C370   C     0.37648   0.79388   0.08820   0.00000  Uiso   1.00
C371   C     0.43417   0.77050   0.10157   0.00000  Uiso   1.00
C372   C     0.49197   0.79545   0.08849   0.00000  Uiso   1.00
C373   C     0.59857   0.82033   0.07595   0.00000  Uiso   1.00
C374   C     0.27286   0.86758   0.09997   0.00000  Uiso   1.00
C375   C     0.24342   0.90615   0.12322   0.00000  Uiso   1.00
C376   C     0.21399   0.99314   0.12004   0.00000  Uiso   1.00
C377   C     0.15968   0.13240   0.12576   0.00000  Uiso   1.00
C378   C     0.27417   0.71737   0.07598   0.00000  Uiso   1.00
C379   C     0.24583   0.62965   0.07907   0.00000  Uiso   1.00
C380   C     0.21749   0.59017   0.05570   0.00000  Uiso   1.00
C381   C     0.16522   0.49620   0.02418   0.00000  Uiso   1.00
C382   C     0.30788   0.85921   0.05179   0.00000  Uiso   1.00
C383   C     0.37651   0.84054   0.06268   0.00000  Uiso   1.00
C384   C     0.43424   0.86553   0.04958   0.00000  Uiso   1.00
C385   C     0.49201   0.84218   0.06292   0.00000  Uiso   1.00
C386   C     0.27289   0.91424   0.07445   0.00000  Uiso   1.00
C387   C     0.24349   0.00118   0.07123   0.00000  Uiso   1.00
C388   C     0.21402   0.03988   0.09448   0.00000  Uiso   1.00
C389   C     0.27421   0.76402   0.05046   0.00000  Uiso   1.00
C390   C     0.24590   0.72468   0.02708   0.00000  Uiso   1.00
C391   C     0.21752   0.63691   0.03013   0.00000  Uiso   1.00
H392   H     0.30779   0.73701   0.11866   0.00000  Uiso   1.00
H393   H     0.43412   0.73440   0.12132   0.00000  Uiso   1.00
H394   H     0.24340   0.87003   0.14297   0.00000  Uiso   1.00
H395   H     0.24581   0.59357   0.09882   0.00000  Uiso   1.00
H396   H     0.57420   0.75212   0.11302   0.00000  Uiso   1.00
H397   H     0.17203   0.03809   0.15867   0.00000  Uiso   1.00
H398   H     0.17711   0.45511   0.06558   0.00000  Uiso   1.00
H399   H     0.30791   0.89554   0.03192   0.00000  Uiso   1.00
H400   H     0.43425   0.90163   0.02983   0.00000  Uiso   1.00
H401   H     0.24352   0.03726   0.05148   0.00000  Uiso   1.00
H402   H     0.24594   0.76080   0.00733   0.00000  Uiso   1.00
H403   H     0.57430   0.88786   0.03877   0.00000  Uiso   1.00
H404   H     0.17213   0.17382   0.08441   0.00000  Uiso   1.00
H405   H     0.17721   0.59084   0.99132   0.00000  Uiso   1.00
O406   O     0.65736   0.82117   0.07609   0.00000  Uiso   1.00
O407   O     0.12971   0.19633   0.13597   0.00000  Uiso   1.00
O408   O     0.13639   0.43148   0.01384   0.00000  Uiso   1.00
N409   N     0.55689   0.78322   0.09583   0.00000  Uiso   1.00
N410   N     0.18089   0.05058   0.13851   0.00000  Uiso   1.00
N411   N     0.18562   0.50556   0.05148   0.00000  Uiso   1.00
N412   N     0.55694   0.85625   0.05587   0.00000  Uiso   1.00
N413   N     0.18094   0.12362   0.09855   0.00000  Uiso   1.00
N414   N     0.18568   0.57859   0.01152   0.00000  Uiso   1.00
C415   C     0.92636   0.05229   0.65118   0.00000  Uiso   1.00
C416   C     0.99500   0.07287   0.66175   0.00000  Uiso   1.00
C417   C     0.05272   0.04949   0.64838   0.00000  Uiso   1.00
C418   C     0.11050   0.07446   0.66145   0.00000  Uiso   1.00
C419   C     0.21707   0.09937   0.67398   0.00000  Uiso   1.00
C420   C     0.89139   0.14654   0.64999   0.00000  Uiso   1.00
C421   C     0.86200   0.18509   0.62674   0.00000  Uiso   1.00
C422   C     0.83255   0.27207   0.62991   0.00000  Uiso   1.00
C423   C     0.77824   0.41131   0.62418   0.00000  Uiso   1.00
C424   C     0.89268   0.99635   0.67399   0.00000  Uiso   1.00
C425   C     0.86435   0.90862   0.67091   0.00000  Uiso   1.00
C426   C     0.83597   0.86917   0.69429   0.00000  Uiso   1.00
C427   C     0.78365   0.77522   0.72582   0.00000  Uiso   1.00
C428   C     0.92633   0.13822   0.69816   0.00000  Uiso   1.00
C429   C     0.99498   0.11955   0.68727   0.00000  Uiso   1.00
C430   C     0.05269   0.14456   0.70036   0.00000  Uiso   1.00
C431   C     0.11048   0.12122   0.68702   0.00000  Uiso   1.00
C432   C     0.89138   0.19322   0.67551   0.00000  Uiso   1.00
C433   C     0.86197   0.28016   0.67872   0.00000  Uiso   1.00
C434   C     0.83254   0.31883   0.65547   0.00000  Uiso   1.00
C435   C     0.89266   0.04303   0.69951   0.00000  Uiso   1.00
C436   C     0.86432   0.00370   0.72289   0.00000  Uiso   1.00
C437   C     0.83596   0.91593   0.71985   0.00000  Uiso   1.00
H438   H     0.92637   0.01595   0.63131   0.00000  Uiso   1.00
H439   H     0.05271   0.01337   0.62863   0.00000  Uiso   1.00
H440   H     0.86201   0.14894   0.60699   0.00000  Uiso   1.00
H441   H     0.86437   0.87252   0.65116   0.00000  Uiso   1.00
H442   H     0.19277   0.03113   0.63691   0.00000  Uiso   1.00
H443   H     0.79066   0.31697   0.59128   0.00000  Uiso   1.00
H444   H     0.79562   0.73409   0.68442   0.00000  Uiso   1.00
H445   H     0.92632   0.17457   0.71803   0.00000  Uiso   1.00
H446   H     0.05266   0.18069   0.72011   0.00000  Uiso   1.00
H447   H     0.86196   0.31626   0.69847   0.00000  Uiso   1.00
H448   H     0.86432   0.03984   0.74264   0.00000  Uiso   1.00
H449   H     0.19273   0.16693   0.71116   0.00000  Uiso   1.00
H450   H     0.79061   0.45277   0.66553   0.00000  Uiso   1.00
H451   H     0.79558   0.86989   0.75867   0.00000  Uiso   1.00
O452   O     0.27586   0.10022   0.67384   0.00000  Uiso   1.00
O453   O     0.74829   0.47523   0.61397   0.00000  Uiso   1.00
O454   O     0.75481   0.71050   0.73617   0.00000  Uiso   1.00
N455   N     0.17542   0.06223   0.65410   0.00000  Uiso   1.00
N456   N     0.79948   0.32949   0.61144   0.00000  Uiso   1.00
N457   N     0.80410   0.78455   0.69852   0.00000  Uiso   1.00
N458   N     0.17540   0.13530   0.69406   0.00000  Uiso   1.00
N459   N     0.79946   0.40256   0.65139   0.00000  Uiso   1.00
N460   N     0.80408   0.85762   0.73847   0.00000  Uiso   1.00
C461   C     0.30943   0.04091   0.84810   0.00000  Uiso   1.00
C462   C     0.24080   0.05953   0.83721   0.00000  Uiso   1.00
C463   C     0.18307   0.03506   0.85040   0.00000  Uiso   1.00
C464   C     0.12529   0.05828   0.83705   0.00000  Uiso   1.00
C465   C     0.01872   0.08024   0.82405   0.00000  Uiso   1.00
C466   C     0.34325   0.13604   0.84921   0.00000  Uiso   1.00
C467   C     0.37166   0.17588   0.87249   0.00000  Uiso   1.00
C468   C     0.40014   0.26350   0.86924   0.00000  Uiso   1.00
C469   C     0.45266   0.40420   0.87487   0.00000  Uiso   1.00
C470   C     0.34428   0.98524   0.82555   0.00000  Uiso   1.00
C471   C     0.37358   0.89831   0.82893   0.00000  Uiso   1.00
C472   C     0.40294   0.85897   0.80575   0.00000  Uiso   1.00
C473   C     0.45706   0.76554   0.77463   0.00000  Uiso   1.00
C474   C     0.30947   0.12566   0.80093   0.00000  Uiso   1.00
C475   C     0.24082   0.10557   0.81159   0.00000  Uiso   1.00
C476   C     0.18312   0.12882   0.79821   0.00000  Uiso   1.00
C477   C     0.12531   0.10439   0.81138   0.00000  Uiso   1.00
C478   C     0.34327   0.18207   0.82359   0.00000  Uiso   1.00
C479   C     0.37171   0.26964   0.82030   0.00000  Uiso   1.00
C480   C     0.40016   0.30961   0.84358   0.00000  Uiso   1.00
C481   C     0.34430   0.03127   0.79992   0.00000  Uiso   1.00
C482   C     0.37362   0.99207   0.77674   0.00000  Uiso   1.00
C483   C     0.40296   0.90509   0.78008   0.00000  Uiso   1.00
H484   H     0.30942   0.00508   0.86805   0.00000  Uiso   1.00
H485   H     0.18307   0.99945   0.87023   0.00000  Uiso   1.00
H486   H     0.37164   0.14024   0.89232   0.00000  Uiso   1.00
H487   H     0.37355   0.86271   0.84876   0.00000  Uiso   1.00
H488   H     0.04301   0.01353   0.86136   0.00000  Uiso   1.00
H489   H     0.44064   0.31039   0.90793   0.00000  Uiso   1.00
H490   H     0.44467   0.72516   0.81608   0.00000  Uiso   1.00
H491   H     0.30949   0.16150   0.78098   0.00000  Uiso   1.00
H492   H     0.18315   0.16445   0.77839   0.00000  Uiso   1.00
H493   H     0.37172   0.30524   0.80047   0.00000  Uiso   1.00
H494   H     0.37363   0.02771   0.75691   0.00000  Uiso   1.00
H495   H     0.04307   0.14746   0.78682   0.00000  Uiso   1.00
H496   H     0.44071   0.44431   0.83339   0.00000  Uiso   1.00
H497   H     0.44473   0.85908   0.74153   0.00000  Uiso   1.00
O498   O     0.95993   0.07964   0.82396   0.00000  Uiso   1.00
O499   O     0.48161   0.46909   0.88505   0.00000  Uiso   1.00
O500   O     0.48690   0.70128   0.76454   0.00000  Uiso   1.00
N501   N     0.06036   0.04463   0.84417   0.00000  Uiso   1.00
N502   N     0.43212   0.32218   0.88771   0.00000  Uiso   1.00
N503   N     0.43590   0.77505   0.80184   0.00000  Uiso   1.00
N504   N     0.06040   0.11670   0.80406   0.00000  Uiso   1.00
N505   N     0.43215   0.39424   0.84760   0.00000  Uiso   1.00
N506   N     0.43593   0.84711   0.76172   0.00000  Uiso   1.00
C507   C     0.30897   0.31981   0.59822   0.00000  Uiso   1.00
C508   C     0.37763   0.33842   0.58734   0.00000  Uiso   1.00
C509   C     0.43532   0.31393   0.60053   0.00000  Uiso   1.00
C510   C     0.49313   0.33714   0.58718   0.00000  Uiso   1.00
C511   C     0.59974   0.35907   0.57418   0.00000  Uiso   1.00
C512   C     0.27516   0.41495   0.59934   0.00000  Uiso   1.00
C513   C     0.24669   0.45479   0.62262   0.00000  Uiso   1.00
C514   C     0.21824   0.54242   0.61937   0.00000  Uiso   1.00
C515   C     0.16572   0.68313   0.62501   0.00000  Uiso   1.00
C516   C     0.27417   0.26417   0.57566   0.00000  Uiso   1.00
C517   C     0.24484   0.17724   0.57904   0.00000  Uiso   1.00
C518   C     0.21554   0.13793   0.55586   0.00000  Uiso   1.00
C519   C     0.16148   0.04453   0.52474   0.00000  Uiso   1.00
C520   C     0.30905   0.40459   0.55105   0.00000  Uiso   1.00
C521   C     0.37767   0.38447   0.56172   0.00000  Uiso   1.00
C522   C     0.43542   0.40772   0.54834   0.00000  Uiso   1.00
C523   C     0.49318   0.38326   0.56151   0.00000  Uiso   1.00
C524   C     0.27521   0.46100   0.57372   0.00000  Uiso   1.00
C525   C     0.24679   0.54858   0.57044   0.00000  Uiso   1.00
C526   C     0.21829   0.58855   0.59371   0.00000  Uiso   1.00
C527   C     0.27421   0.31022   0.55004   0.00000  Uiso   1.00
C528   C     0.24494   0.27103   0.52686   0.00000  Uiso   1.00
C529   C     0.21559   0.18406   0.53020   0.00000  Uiso   1.00
H530   H     0.30893   0.28397   0.61817   0.00000  Uiso   1.00
H531   H     0.43526   0.27830   0.62036   0.00000  Uiso   1.00
H532   H     0.24666   0.41913   0.64244   0.00000  Uiso   1.00
H533   H     0.24482   0.14163   0.59887   0.00000  Uiso   1.00
H534   H     0.57535   0.29235   0.61149   0.00000  Uiso   1.00
H535   H     0.17765   0.58930   0.65806   0.00000  Uiso   1.00
H536   H     0.17376   0.00412   0.56618   0.00000  Uiso   1.00
H537   H     0.30909   0.44044   0.53111   0.00000  Uiso   1.00
H538   H     0.43544   0.44336   0.52852   0.00000  Uiso   1.00
H539   H     0.24683   0.58419   0.55061   0.00000  Uiso   1.00
H540   H     0.24499   0.30669   0.50703   0.00000  Uiso   1.00
H541   H     0.57549   0.42632   0.53695   0.00000  Uiso   1.00
H542   H     0.17778   0.72327   0.58352   0.00000  Uiso   1.00
H543   H     0.17390   0.13809   0.49164   0.00000  Uiso   1.00
O544   O     0.65853   0.35846   0.57409   0.00000  Uiso   1.00
O545   O     0.13675   0.74803   0.63519   0.00000  Uiso   1.00
O546   O     0.13166   0.98029   0.51464   0.00000  Uiso   1.00
N547   N     0.55804   0.32347   0.59430   0.00000  Uiso   1.00
N548   N     0.18622   0.60110   0.63784   0.00000  Uiso   1.00
N549   N     0.18257   0.05402   0.55194   0.00000  Uiso   1.00
N550   N     0.55812   0.39555   0.55419   0.00000  Uiso   1.00
N551   N     0.18630   0.67318   0.59773   0.00000  Uiso   1.00
N552   N     0.18265   0.12610   0.51183   0.00000  Uiso   1.00
C553   C     0.80782   0.27332   0.09879   0.00000  Uiso   1.00
C554   C     0.87648   0.29388   0.08820   0.00000  Uiso   1.00
C555   C     0.93417   0.27050   0.10157   0.00000  Uiso   1.00
C556   C     0.99197   0.29545   0.08849   0.00000  Uiso   1.00
C557   C     0.09857   0.32033   0.07595   0.00000  Uiso   1.00
C558   C     0.77286   0.36758   0.09997   0.00000  Uiso   1.00
C559   C     0.74342   0.40615   0.12322   0.00000  Uiso   1.00
C560   C     0.71399   0.49314   0.12004   0.00000  Uiso   1.00
C561   C     0.65968   0.63240   0.12576   0.00000  Uiso   1.00
C562   C     0.77417   0.21737   0.07598   0.00000  Uiso   1.00
C563   C     0.74583   0.12965   0.07907   0.00000  Uiso   1.00
C564   C     0.71749   0.09017   0.05570   0.00000  Uiso   1.00
C565   C     0.66522   0.99620   0.02418   0.00000  Uiso   1.00
C566   C     0.80788   0.35921   0.05179   0.00000  Uiso   1.00
C567   C     0.87651   0.34054   0.06268   0.00000  Uiso   1.00
C568   C     0.93424   0.36553   0.04958   0.00000  Uiso   1.00
C569   C     0.99201   0.34218   0.06292   0.00000  Uiso   1.00
C570   C     0.77289   0.41424   0.07445   0.00000  Uiso   1.00
C571   C     0.74349   0.50118   0.07123   0.00000  Uiso   1.00
C572   C     0.71402   0.53988   0.09448   0.00000  Uiso   1.00
C573   C     0.77421   0.26402   0.05046   0.00000  Uiso   1.00
C574   C     0.74590   0.22468   0.02708   0.00000  Uiso   1.00
C575   C     0.71752   0.13691   0.03013   0.00000  Uiso   1.00
H576   H     0.80779   0.23701   0.11866   0.00000  Uiso   1.00
H577   H     0.93412   0.23440   0.12132   0.00000  Uiso   1.00
H578   H     0.74340   0.37003   0.14297   0.00000  Uiso   1.00
H579   H     0.74581   0.09357   0.09882   0.00000  Uiso   1.00
H580   H     0.07420   0.25212   0.11302   0.00000  Uiso   1.00
H581   H     0.67203   0.53809   0.15867   0.00000  Uiso   1.00
H582   H     0.67711   0.95511   0.06558   0.00000  Uiso   1.00
H583   H     0.80791   0.39554   0.03192   0.00000  Uiso   1.00
H584   H     0.93425   0.40163   0.02983   0.00000  Uiso   1.00
H585   H     0.74352   0.53726   0.05148   0.00000  Uiso   1.00
H586   H     0.74594   0.26080   0.00733   0.00000  Uiso   1.00
H587   H     0.07430   0.38786   0.03877   0.00000  Uiso   1.00
H588   H     0.67213   0.67382   0.08441   0.00000  Uiso   1.00
H589   H     0.67721   0.09084   0.99132   0.00000  Uiso   1.00
O590   O     0.15736   0.32117   0.07609   0.00000  Uiso   1.00
O591   O     0.62971   0.69633   0.13597   0.00000  Uiso   1.00
O592   O     0.63639   0.93148   0.01384   0.00000  Uiso   1.00
N593   N     0.05689   0.28322   0.09583   0.00000  Uiso   1.00
N594   N     0.68089   0.55058   0.13851   0.00000  Uiso   1.00
N595   N     0.68562   0.00556   0.05148   0.00000  Uiso   1.00
N596   N     0.05694   0.35625   0.05587   0.00000  Uiso   1.00
N597   N     0.68094   0.62362   0.09855   0.00000  Uiso   1.00
N598   N     0.68568   0.07859   0.01152   0.00000  Uiso   1.00
C599   C     0.42636   0.55229   0.65118   0.00000  Uiso   1.00
C600   C     0.49500   0.57287   0.66175   0.00000  Uiso   1.00
C601   C     0.55272   0.54949   0.64838   0.00000  Uiso   1.00
C602   C     0.61050   0.57446   0.66145   0.00000  Uiso   1.00
C603   C     0.71707   0.59937   0.67398   0.00000  Uiso   1.00
C604   C     0.39139   0.64654   0.64999   0.00000  Uiso   1.00
C605   C     0.36200   0.68509   0.62674   0.00000  Uiso   1.00
C606   C     0.33255   0.77207   0.62991   0.00000  Uiso   1.00
C607   C     0.27824   0.91131   0.62418   0.00000  Uiso   1.00
C608   C     0.39268   0.49635   0.67399   0.00000  Uiso   1.00
C609   C     0.36435   0.40862   0.67091   0.00000  Uiso   1.00
C610   C     0.33597   0.36917   0.69429   0.00000  Uiso   1.00
C611   C     0.28365   0.27522   0.72582   0.00000  Uiso   1.00
C612   C     0.42633   0.63822   0.69816   0.00000  Uiso   1.00
C613   C     0.49498   0.61955   0.68727   0.00000  Uiso   1.00
C614   C     0.55269   0.64456   0.70036   0.00000  Uiso   1.00
C615   C     0.61048   0.62122   0.68702   0.00000  Uiso   1.00
C616   C     0.39138   0.69322   0.67551   0.00000  Uiso   1.00
C617   C     0.36197   0.78016   0.67872   0.00000  Uiso   1.00
C618   C     0.33254   0.81883   0.65547   0.00000  Uiso   1.00
C619   C     0.39266   0.54303   0.69951   0.00000  Uiso   1.00
C620   C     0.36432   0.50370   0.72289   0.00000  Uiso   1.00
C621   C     0.33596   0.41593   0.71985   0.00000  Uiso   1.00
H622   H     0.42637   0.51595   0.63131   0.00000  Uiso   1.00
H623   H     0.55271   0.51337   0.62863   0.00000  Uiso   1.00
H624   H     0.36201   0.64894   0.60699   0.00000  Uiso   1.00
H625   H     0.36437   0.37252   0.65116   0.00000  Uiso   1.00
H626   H     0.69277   0.53113   0.63691   0.00000  Uiso   1.00
H627   H     0.29066   0.81697   0.59128   0.00000  Uiso   1.00
H628   H     0.29562   0.23409   0.68442   0.00000  Uiso   1.00
H629   H     0.42632   0.67457   0.71803   0.00000  Uiso   1.00
H630   H     0.55266   0.68069   0.72011   0.00000  Uiso   1.00
H631   H     0.36196   0.81626   0.69847   0.00000  Uiso   1.00
H632   H     0.36432   0.53984   0.74264   0.00000  Uiso   1.00
H633   H     0.69273   0.66693   0.71116   0.00000  Uiso   1.00
H634   H     0.29061   0.95277   0.66553   0.00000  Uiso   1.00
H635   H     0.29558   0.36989   0.75867   0.00000  Uiso   1.00
O636   O     0.77586   0.60022   0.67384   0.00000  Uiso   1.00
O637   O     0.24829   0.97523   0.61397   0.00000  Uiso   1.00
O638   O     0.25481   0.21050   0.73617   0.00000  Uiso   1.00
N639   N     0.67542   0.56223   0.65410   0.00000  Uiso   1.00
N640   N     0.29948   0.82949   0.61144   0.00000  Uiso   1.00
N641   N     0.30410   0.28455   0.69852   0.00000  Uiso   1.00
N642   N     0.67540   0.63530   0.69406   0.00000  Uiso   1.00
N643   N     0.29946   0.90256   0.65139   0.00000  Uiso   1.00
N644   N     0.30408   0.35762   0.73847   0.00000  Uiso   1.00
C645   C     0.80943   0.54091   0.84810   0.00000  Uiso   1.00
C646   C     0.74080   0.55953   0.83721   0.00000  Uiso   1.00
C647   C     0.68307   0.53506   0.85040   0.00000  Uiso   1.00
C648   C     0.62529   0.55828   0.83705   0.00000  Uiso   1.00
C649   C     0.51872   0.58024   0.82405   0.00000  Uiso   1.00
C650   C     0.84325   0.63604   0.84921   0.00000  Uiso   1.00
C651   C     0.87166   0.67588   0.87249   0.00000  Uiso   1.00
C652   C     0.90014   0.76350   0.86924   0.00000  Uiso   1.00
C653   C     0.95266   0.90420   0.87487   0.00000  Uiso   1.00
C654   C     0.84428   0.48524   0.82555   0.00000  Uiso   1.00
C655   C     0.87358   0.39831   0.82893   0.00000  Uiso   1.00
C656   C     0.90294   0.35897   0.80575   0.00000  Uiso   1.00
C657   C     0.95706   0.26554   0.77463   0.00000  Uiso   1.00
C658   C     0.80947   0.62566   0.80093   0.00000  Uiso   1.00
C659   C     0.74082   0.60557   0.81159   0.00000  Uiso   1.00
C660   C     0.68312   0.62882   0.79821   0.00000  Uiso   1.00
C661   C     0.62531   0.60439   0.81138   0.00000  Uiso   1.00
C662   C     0.84327   0.68207   0.82359   0.00000  Uiso   1.00
C663   C     0.87171   0.76964   0.82030   0.00000  Uiso   1.00
C664   C     0.90016   0.80961   0.84358   0.00000  Uiso   1.00
C665   C     0.84430   0.53127   0.79992   0.00000  Uiso   1.00
C666   C     0.87362   0.49207   0.77674   0.00000  Uiso   1.00
C667   C     0.90296   0.40509   0.78008   0.00000  Uiso   1.00
H668   H     0.80942   0.50508   0.86805   0.00000  Uiso   1.00
H669   H     0.68307   0.49945   0.87023   0.00000  Uiso   1.00
H670   H     0.87164   0.64024   0.89232   0.00000  Uiso   1.00
H671   H     0.87355   0.36271   0.84876   0.00000  Uiso   1.00
H672   H     0.54301   0.51353   0.86136   0.00000  Uiso   1.00
H673   H     0.94064   0.81039   0.90793   0.00000  Uiso   1.00
H674   H     0.94467   0.22516   0.81608   0.00000  Uiso   1.00
H675   H     0.80949   0.66150   0.78098   0.00000  Uiso   1.00
H676   H     0.68315   0.66445   0.77839   0.00000  Uiso   1.00
H677   H     0.87172   0.80524   0.80047   0.00000  Uiso   1.00
H678   H     0.87363   0.52771   0.75691   0.00000  Uiso   1.00
H679   H     0.54307   0.64746   0.78682   0.00000  Uiso   1.00
H680   H     0.94071   0.94431   0.83339   0.00000  Uiso   1.00
H681   H     0.94473   0.35908   0.74153   0.00000  Uiso   1.00
O682   O     0.45993   0.57964   0.82396   0.00000  Uiso   1.00
O683   O     0.98161   0.96909   0.88505   0.00000  Uiso   1.00
O684   O     0.98690   0.20128   0.76454   0.00000  Uiso   1.00
N685   N     0.56036   0.54463   0.84417   0.00000  Uiso   1.00
N686   N     0.93212   0.82218   0.88771   0.00000  Uiso   1.00
N687   N     0.93590   0.27505   0.80184   0.00000  Uiso   1.00
N688   N     0.56040   0.61670   0.80406   0.00000  Uiso   1.00
N689   N     0.93215   0.89424   0.84760   0.00000  Uiso   1.00
N690   N     0.93593   0.34711   0.76172   0.00000  Uiso   1.00
C691   C     0.80897   0.81981   0.59822   0.00000  Uiso   1.00
C692   C     0.87763   0.83842   0.58734   0.00000  Uiso   1.00
C693   C     0.93532   0.81393   0.60053   0.00000  Uiso   1.00
C694   C     0.99313   0.83714   0.58718   0.00000  Uiso   1.00
C695   C     0.09974   0.85907   0.57418   0.00000  Uiso   1.00
C696   C     0.77516   0.91495   0.59934   0.00000  Uiso   1.00
C697   C     0.74669   0.95479   0.62262   0.00000  Uiso   1.00
C698   C     0.71824   0.04242   0.61937   0.00000  Uiso   1.00
C699   C     0.66572   0.18313   0.62501   0.00000  Uiso   1.00
C700   C     0.77417   0.76417   0.57566   0.00000  Uiso   1.00
C701   C     0.74484   0.67724   0.57904   0.00000  Uiso   1.00
C702   C     0.71554   0.63793   0.55586   0.00000  Uiso   1.00
C703   C     0.66148   0.54453   0.52474   0.00000  Uiso   1.00
C704   C     0.80905   0.90459   0.55105   0.00000  Uiso   1.00
C705   C     0.87767   0.88447   0.56172   0.00000  Uiso   1.00
C706   C     0.93542   0.90772   0.54834   0.00000  Uiso   1.00
C707   C     0.99318   0.88326   0.56151   0.00000  Uiso   1.00
C708   C     0.77521   0.96100   0.57372   0.00000  Uiso   1.00
C709   C     0.74679   0.04858   0.57044   0.00000  Uiso   1.00
C710   C     0.71829   0.08855   0.59371   0.00000  Uiso   1.00
C711   C     0.77421   0.81022   0.55004   0.00000  Uiso   1.00
C712   C     0.74494   0.77103   0.52686   0.00000  Uiso   1.00
C713   C     0.71559   0.68406   0.53020   0.00000  Uiso   1.00
H714   H     0.80893   0.78397   0.61817   0.00000  Uiso   1.00
H715   H     0.93526   0.77830   0.62036   0.00000  Uiso   1.00
H716   H     0.74666   0.91913   0.64244   0.00000  Uiso   1.00
H717   H     0.74482   0.64163   0.59887   0.00000  Uiso   1.00
H718   H     0.07535   0.79235   0.61149   0.00000  Uiso   1.00
H719   H     0.67765   0.08930   0.65806   0.00000  Uiso   1.00
H720   H     0.67376   0.50412   0.56618   0.00000  Uiso   1.00
H721   H     0.80909   0.94044   0.53111   0.00000  Uiso   1.00
H722   H     0.93544   0.94336   0.52852   0.00000  Uiso   1.00
H723   H     0.74683   0.08419   0.55061   0.00000  Uiso   1.00
H724   H     0.74499   0.80669   0.50703   0.00000  Uiso   1.00
H725   H     0.07549   0.92632   0.53695   0.00000  Uiso   1.00
H726   H     0.67778   0.22327   0.58352   0.00000  Uiso   1.00
H727   H     0.67390   0.63809   0.49164   0.00000  Uiso   1.00
O728   O     0.15853   0.85846   0.57409   0.00000  Uiso   1.00
O729   O     0.63675   0.24803   0.63519   0.00000  Uiso   1.00
O730   O     0.63166   0.48029   0.51464   0.00000  Uiso   1.00
N731   N     0.05804   0.82347   0.59430   0.00000  Uiso   1.00
N732   N     0.68622   0.10110   0.63784   0.00000  Uiso   1.00
N733   N     0.68257   0.55402   0.55194   0.00000  Uiso   1.00
N734   N     0.05812   0.89555   0.55419   0.00000  Uiso   1.00
N735   N     0.68630   0.17318   0.59773   0.00000  Uiso   1.00
N736   N     0.68265   0.62610   0.51183   0.00000  Uiso   1.00
