data_job_04792
_audit_creation_date              2018-12-19
_audit_creation_method            'Materials Studio'
_symmetry_space_group_name_H-M    'P1'
_symmetry_Int_Tables_number       1
_symmetry_cell_setting            triclinic
loop_
_symmetry_equiv_pos_as_xyz
  x,y,z
_cell_length_a                    24.4885
_cell_length_b                    42.5995
_cell_length_c                    13.4139
_cell_angle_alpha                 90.0000
_cell_angle_beta                  90.0000
_cell_angle_gamma                 90.0000
loop_
_atom_site_label
_atom_site_type_symbol
_atom_site_fract_x
_atom_site_fract_y
_atom_site_fract_z
_atom_site_U_iso_or_equiv
_atom_site_adp_type
_atom_site_occupancy
C1     C     0.34952   0.35561   0.67531   0.00000  Uiso   1.00
C2     C     0.38084   0.34440   0.58374   0.00000  Uiso   1.00
C3     C     0.43413   0.33331   0.58318   0.00000  Uiso   1.00
C4     C     0.45546   0.32419   0.49176   0.00000  Uiso   1.00
C5     C     0.50881   0.30651   0.36290   0.00000  Uiso   1.00
C6     C     0.33106   0.38900   0.65201   0.00000  Uiso   1.00
C7     C     0.34248   0.41542   0.70886   0.00000  Uiso   1.00
C8     C     0.32188   0.44384   0.67491   0.00000  Uiso   1.00
C9     C     0.29791   0.49540   0.65208   0.00000  Uiso   1.00
C10    C     0.29767   0.33583   0.67961   0.00000  Uiso   1.00
C11    C     0.28100   0.31756   0.75967   0.00000  Uiso   1.00
C12    C     0.23229   0.30122   0.74896   0.00000  Uiso   1.00
C13    C     0.15647   0.27023   0.76898   0.00000  Uiso   1.00
C14    C     0.29263   0.35911   0.51396   0.00000  Uiso   1.00
C15    C     0.34994   0.34630   0.49610   0.00000  Uiso   1.00
C16    C     0.37119   0.33719   0.40466   0.00000  Uiso   1.00
C17    C     0.42450   0.32610   0.40396   0.00000  Uiso   1.00
C18    C     0.30016   0.39090   0.56438   0.00000  Uiso   1.00
C19    C     0.27954   0.41929   0.53034   0.00000  Uiso   1.00
C20    C     0.29093   0.44575   0.58711   0.00000  Uiso   1.00
C21    C     0.26676   0.33774   0.59197   0.00000  Uiso   1.00
C22    C     0.21806   0.32143   0.58114   0.00000  Uiso   1.00
C23    C     0.20133   0.30313   0.66117   0.00000  Uiso   1.00
H24    H     0.37357   0.35413   0.74354   0.00000  Uiso   1.00
H25    H     0.45804   0.33185   0.65102   0.00000  Uiso   1.00
H26    H     0.36639   0.41394   0.77668   0.00000  Uiso   1.00
H27    H     0.30492   0.31609   0.82747   0.00000  Uiso   1.00
H28    H     0.53806   0.30800   0.50977   0.00000  Uiso   1.00
H29    H     0.34480   0.48108   0.77476   0.00000  Uiso   1.00
H30    H     0.21519   0.27475   0.88188   0.00000  Uiso   1.00
H31    H     0.26857   0.36060   0.44573   0.00000  Uiso   1.00
H32    H     0.34727   0.33867   0.33685   0.00000  Uiso   1.00
H33    H     0.25562   0.42076   0.46252   0.00000  Uiso   1.00
H34    H     0.19416   0.32291   0.51331   0.00000  Uiso   1.00
H35    H     0.44816   0.31353   0.25479   0.00000  Uiso   1.00
H36    H     0.25490   0.48662   0.51978   0.00000  Uiso   1.00
H37    H     0.12529   0.28029   0.62689   0.00000  Uiso   1.00
O38    O     0.54678   0.29623   0.31603   0.00000  Uiso   1.00
O39    O     0.29323   0.52331   0.66369   0.00000  Uiso   1.00
O40    O     0.12318   0.25261   0.80422   0.00000  Uiso   1.00
N41    N     0.50610   0.31230   0.46471   0.00000  Uiso   1.00
N42    N     0.32542   0.47413   0.71245   0.00000  Uiso   1.00
N43    N     0.20424   0.28123   0.81260   0.00000  Uiso   1.00
N44    N     0.45772   0.31528   0.32750   0.00000  Uiso   1.00
N45    N     0.27704   0.47711   0.57524   0.00000  Uiso   1.00
N46    N     0.15586   0.28421   0.67540   0.00000  Uiso   1.00
C47    C     0.68382   0.32816   0.84590   0.00000  Uiso   1.00
C48    C     0.63932   0.31612   0.91565   0.00000  Uiso   1.00
C49    C     0.58790   0.30585   0.88692   0.00000  Uiso   1.00
C50    C     0.55307   0.29575   0.96201   0.00000  Uiso   1.00
C51    C     0.48153   0.27704   0.05508   0.00000  Uiso   1.00
C52    C     0.69860   0.36090   0.88314   0.00000  Uiso   1.00
C53    C     0.69703   0.38826   0.82708   0.00000  Uiso   1.00
C54    C     0.71211   0.41585   0.87482   0.00000  Uiso   1.00
C55    C     0.73264   0.46666   0.91739   0.00000  Uiso   1.00
C56    C     0.73379   0.30770   0.86532   0.00000  Uiso   1.00
C57    C     0.76181   0.29034   0.79427   0.00000  Uiso   1.00
C58    C     0.80652   0.27315   0.82700   0.00000  Uiso   1.00
C59    C     0.88168   0.24135   0.84191   0.00000  Uiso   1.00
C60    C     0.71339   0.32850   0.03037   0.00000  Uiso   1.00
C61    C     0.65539   0.31631   0.01584   0.00000  Uiso   1.00
C62    C     0.62062   0.30622   0.09101   0.00000  Uiso   1.00
C63    C     0.56916   0.29593   0.06239   0.00000  Uiso   1.00
C64    C     0.71467   0.36108   0.98333   0.00000  Uiso   1.00
C65    C     0.72976   0.38864   0.03117   0.00000  Uiso   1.00
C66    C     0.72820   0.41604   0.97519   0.00000  Uiso   1.00
C67    C     0.74985   0.30788   0.96552   0.00000  Uiso   1.00
C68    C     0.79453   0.29072   0.99836   0.00000  Uiso   1.00
C69    C     0.82261   0.27333   0.92738   0.00000  Uiso   1.00
H70    H     0.67131   0.32802   0.76789   0.00000  Uiso   1.00
H71    H     0.57548   0.30571   0.80937   0.00000  Uiso   1.00
H72    H     0.68460   0.38811   0.74954   0.00000  Uiso   1.00
H73    H     0.74936   0.29021   0.71674   0.00000  Uiso   1.00
H74    H     0.47632   0.28107   0.89954   0.00000  Uiso   1.00
H75    H     0.70642   0.45482   0.77338   0.00000  Uiso   1.00
H76    H     0.84299   0.24836   0.70421   0.00000  Uiso   1.00
H77    H     0.72590   0.32864   0.10837   0.00000  Uiso   1.00
H78    H     0.63307   0.30637   0.16854   0.00000  Uiso   1.00
H79    H     0.74219   0.38877   0.10870   0.00000  Uiso   1.00
H80    H     0.80695   0.29086   0.07590   0.00000  Uiso   1.00
H81    H     0.52305   0.28160   0.19105   0.00000  Uiso   1.00
H82    H     0.75316   0.45535   0.06488   0.00000  Uiso   1.00
H83    H     0.88973   0.24889   0.99572   0.00000  Uiso   1.00
O84    O     0.43763   0.26668   0.07873   0.00000  Uiso   1.00
O85    O     0.73953   0.49463   0.91320   0.00000  Uiso   1.00
O86    O     0.91869   0.22376   0.82246   0.00000  Uiso   1.00
N87    N     0.50006   0.28425   0.95989   0.00000  Uiso   1.00
N88    N     0.71519   0.44669   0.84194   0.00000  Uiso   1.00
N89    N     0.84287   0.25368   0.77727   0.00000  Uiso   1.00
N90    N     0.52521   0.28453   0.11675   0.00000  Uiso   1.00
N91    N     0.74034   0.44698   0.99880   0.00000  Uiso   1.00
N92    N     0.86802   0.25396   0.93413   0.00000  Uiso   1.00
C93    C     0.34952   0.85561   0.17531   0.00000  Uiso   1.00
C94    C     0.38084   0.84440   0.08374   0.00000  Uiso   1.00
C95    C     0.43413   0.83331   0.08318   0.00000  Uiso   1.00
C96    C     0.45546   0.82419   0.99176   0.00000  Uiso   1.00
C97    C     0.50881   0.80651   0.86290   0.00000  Uiso   1.00
C98    C     0.33106   0.88900   0.15201   0.00000  Uiso   1.00
C99    C     0.34248   0.91542   0.20886   0.00000  Uiso   1.00
C100   C     0.32188   0.94384   0.17491   0.00000  Uiso   1.00
C101   C     0.29791   0.99540   0.15208   0.00000  Uiso   1.00
C102   C     0.29767   0.83583   0.17961   0.00000  Uiso   1.00
C103   C     0.28100   0.81756   0.25967   0.00000  Uiso   1.00
C104   C     0.23229   0.80122   0.24896   0.00000  Uiso   1.00
C105   C     0.15647   0.77023   0.26898   0.00000  Uiso   1.00
C106   C     0.29263   0.85911   0.01396   0.00000  Uiso   1.00
C107   C     0.34994   0.84630   0.99610   0.00000  Uiso   1.00
C108   C     0.37119   0.83719   0.90466   0.00000  Uiso   1.00
C109   C     0.42450   0.82610   0.90396   0.00000  Uiso   1.00
C110   C     0.30016   0.89090   0.06438   0.00000  Uiso   1.00
C111   C     0.27954   0.91929   0.03034   0.00000  Uiso   1.00
C112   C     0.29093   0.94575   0.08711   0.00000  Uiso   1.00
C113   C     0.26676   0.83774   0.09197   0.00000  Uiso   1.00
C114   C     0.21806   0.82143   0.08114   0.00000  Uiso   1.00
C115   C     0.20133   0.80313   0.16117   0.00000  Uiso   1.00
H116   H     0.37357   0.85413   0.24354   0.00000  Uiso   1.00
H117   H     0.45804   0.83185   0.15102   0.00000  Uiso   1.00
H118   H     0.36639   0.91394   0.27668   0.00000  Uiso   1.00
H119   H     0.30492   0.81609   0.32747   0.00000  Uiso   1.00
H120   H     0.53806   0.80800   0.00977   0.00000  Uiso   1.00
H121   H     0.34480   0.98108   0.27476   0.00000  Uiso   1.00
H122   H     0.21519   0.77475   0.38188   0.00000  Uiso   1.00
H123   H     0.26857   0.86060   0.94573   0.00000  Uiso   1.00
H124   H     0.34727   0.83867   0.83685   0.00000  Uiso   1.00
H125   H     0.25562   0.92076   0.96252   0.00000  Uiso   1.00
H126   H     0.19416   0.82291   0.01331   0.00000  Uiso   1.00
H127   H     0.44816   0.81353   0.75479   0.00000  Uiso   1.00
H128   H     0.25490   0.98662   0.01978   0.00000  Uiso   1.00
H129   H     0.12529   0.78029   0.12689   0.00000  Uiso   1.00
O130   O     0.54678   0.79623   0.81603   0.00000  Uiso   1.00
O131   O     0.29323   0.02331   0.16369   0.00000  Uiso   1.00
O132   O     0.12318   0.75261   0.30422   0.00000  Uiso   1.00
N133   N     0.50610   0.81230   0.96471   0.00000  Uiso   1.00
N134   N     0.32542   0.97413   0.21245   0.00000  Uiso   1.00
N135   N     0.20424   0.78123   0.31260   0.00000  Uiso   1.00
N136   N     0.45772   0.81528   0.82750   0.00000  Uiso   1.00
N137   N     0.27704   0.97711   0.07524   0.00000  Uiso   1.00
N138   N     0.15586   0.78421   0.17540   0.00000  Uiso   1.00
C139   C     0.68382   0.82816   0.34590   0.00000  Uiso   1.00
C140   C     0.63932   0.81612   0.41565   0.00000  Uiso   1.00
C141   C     0.58790   0.80585   0.38692   0.00000  Uiso   1.00
C142   C     0.55307   0.79575   0.46201   0.00000  Uiso   1.00
C143   C     0.48153   0.77704   0.55508   0.00000  Uiso   1.00
C144   C     0.69860   0.86090   0.38314   0.00000  Uiso   1.00
C145   C     0.69703   0.88826   0.32708   0.00000  Uiso   1.00
C146   C     0.71211   0.91585   0.37482   0.00000  Uiso   1.00
C147   C     0.73264   0.96666   0.41739   0.00000  Uiso   1.00
C148   C     0.73379   0.80770   0.36532   0.00000  Uiso   1.00
C149   C     0.76181   0.79034   0.29427   0.00000  Uiso   1.00
C150   C     0.80652   0.77315   0.32700   0.00000  Uiso   1.00
C151   C     0.88168   0.74135   0.34191   0.00000  Uiso   1.00
C152   C     0.71339   0.82850   0.53037   0.00000  Uiso   1.00
C153   C     0.65539   0.81631   0.51584   0.00000  Uiso   1.00
C154   C     0.62062   0.80622   0.59101   0.00000  Uiso   1.00
C155   C     0.56916   0.79593   0.56239   0.00000  Uiso   1.00
C156   C     0.71467   0.86108   0.48333   0.00000  Uiso   1.00
C157   C     0.72976   0.88864   0.53117   0.00000  Uiso   1.00
C158   C     0.72820   0.91604   0.47519   0.00000  Uiso   1.00
C159   C     0.74985   0.80788   0.46552   0.00000  Uiso   1.00
C160   C     0.79453   0.79072   0.49836   0.00000  Uiso   1.00
C161   C     0.82261   0.77333   0.42738   0.00000  Uiso   1.00
H162   H     0.67131   0.82802   0.26789   0.00000  Uiso   1.00
H163   H     0.57548   0.80571   0.30937   0.00000  Uiso   1.00
H164   H     0.68460   0.88811   0.24954   0.00000  Uiso   1.00
H165   H     0.74936   0.79021   0.21674   0.00000  Uiso   1.00
H166   H     0.47632   0.78107   0.39954   0.00000  Uiso   1.00
H167   H     0.70642   0.95482   0.27338   0.00000  Uiso   1.00
H168   H     0.84299   0.74836   0.20421   0.00000  Uiso   1.00
H169   H     0.72590   0.82864   0.60837   0.00000  Uiso   1.00
H170   H     0.63307   0.80637   0.66854   0.00000  Uiso   1.00
H171   H     0.74219   0.88877   0.60870   0.00000  Uiso   1.00
H172   H     0.80695   0.79086   0.57590   0.00000  Uiso   1.00
H173   H     0.52305   0.78160   0.69105   0.00000  Uiso   1.00
H174   H     0.75316   0.95535   0.56488   0.00000  Uiso   1.00
H175   H     0.88973   0.74889   0.49572   0.00000  Uiso   1.00
O176   O     0.43763   0.76668   0.57873   0.00000  Uiso   1.00
O177   O     0.73953   0.99463   0.41320   0.00000  Uiso   1.00
O178   O     0.91869   0.72376   0.32246   0.00000  Uiso   1.00
N179   N     0.50006   0.78425   0.45989   0.00000  Uiso   1.00
N180   N     0.71519   0.94669   0.34194   0.00000  Uiso   1.00
N181   N     0.84287   0.75368   0.27727   0.00000  Uiso   1.00
N182   N     0.52521   0.78453   0.61675   0.00000  Uiso   1.00
N183   N     0.74034   0.94698   0.49880   0.00000  Uiso   1.00
N184   N     0.86802   0.75396   0.43413   0.00000  Uiso   1.00
C185   C     0.65048   0.64439   0.67531   0.00000  Uiso   1.00
C186   C     0.61916   0.65560   0.58374   0.00000  Uiso   1.00
C187   C     0.56587   0.66669   0.58318   0.00000  Uiso   1.00
C188   C     0.54454   0.67581   0.49176   0.00000  Uiso   1.00
C189   C     0.49119   0.69349   0.36290   0.00000  Uiso   1.00
C190   C     0.66894   0.61100   0.65201   0.00000  Uiso   1.00
C191   C     0.65752   0.58458   0.70886   0.00000  Uiso   1.00
C192   C     0.67812   0.55616   0.67491   0.00000  Uiso   1.00
C193   C     0.70209   0.50460   0.65208   0.00000  Uiso   1.00
C194   C     0.70233   0.66417   0.67961   0.00000  Uiso   1.00
C195   C     0.71900   0.68244   0.75967   0.00000  Uiso   1.00
C196   C     0.76771   0.69878   0.74896   0.00000  Uiso   1.00
C197   C     0.84353   0.72977   0.76898   0.00000  Uiso   1.00
C198   C     0.70737   0.64089   0.51396   0.00000  Uiso   1.00
C199   C     0.65006   0.65370   0.49610   0.00000  Uiso   1.00
C200   C     0.62881   0.66281   0.40466   0.00000  Uiso   1.00
C201   C     0.57550   0.67390   0.40396   0.00000  Uiso   1.00
C202   C     0.69984   0.60910   0.56438   0.00000  Uiso   1.00
C203   C     0.72046   0.58071   0.53034   0.00000  Uiso   1.00
C204   C     0.70907   0.55425   0.58711   0.00000  Uiso   1.00
C205   C     0.73324   0.66226   0.59197   0.00000  Uiso   1.00
C206   C     0.78194   0.67857   0.58114   0.00000  Uiso   1.00
C207   C     0.79867   0.69687   0.66117   0.00000  Uiso   1.00
H208   H     0.62643   0.64587   0.74354   0.00000  Uiso   1.00
H209   H     0.54196   0.66815   0.65102   0.00000  Uiso   1.00
H210   H     0.63361   0.58606   0.77668   0.00000  Uiso   1.00
H211   H     0.69508   0.68391   0.82747   0.00000  Uiso   1.00
H212   H     0.46194   0.69200   0.50977   0.00000  Uiso   1.00
H213   H     0.65520   0.51892   0.77476   0.00000  Uiso   1.00
H214   H     0.78481   0.72525   0.88188   0.00000  Uiso   1.00
H215   H     0.73143   0.63940   0.44573   0.00000  Uiso   1.00
H216   H     0.65273   0.66133   0.33685   0.00000  Uiso   1.00
H217   H     0.74438   0.57924   0.46252   0.00000  Uiso   1.00
H218   H     0.80584   0.67709   0.51331   0.00000  Uiso   1.00
H219   H     0.55184   0.68647   0.25479   0.00000  Uiso   1.00
H220   H     0.74510   0.51338   0.51978   0.00000  Uiso   1.00
H221   H     0.87471   0.71971   0.62689   0.00000  Uiso   1.00
O222   O     0.45322   0.70377   0.31603   0.00000  Uiso   1.00
O223   O     0.70677   0.47669   0.66369   0.00000  Uiso   1.00
O224   O     0.87682   0.74739   0.80422   0.00000  Uiso   1.00
N225   N     0.49390   0.68770   0.46471   0.00000  Uiso   1.00
N226   N     0.67458   0.52587   0.71245   0.00000  Uiso   1.00
N227   N     0.79576   0.71877   0.81260   0.00000  Uiso   1.00
N228   N     0.54228   0.68472   0.32750   0.00000  Uiso   1.00
N229   N     0.72296   0.52289   0.57524   0.00000  Uiso   1.00
N230   N     0.84414   0.71579   0.67540   0.00000  Uiso   1.00
C231   C     0.31618   0.67184   0.84590   0.00000  Uiso   1.00
C232   C     0.36068   0.68388   0.91565   0.00000  Uiso   1.00
C233   C     0.41210   0.69415   0.88692   0.00000  Uiso   1.00
C234   C     0.44693   0.70425   0.96201   0.00000  Uiso   1.00
C235   C     0.51847   0.72296   0.05508   0.00000  Uiso   1.00
C236   C     0.30140   0.63910   0.88314   0.00000  Uiso   1.00
C237   C     0.30297   0.61174   0.82708   0.00000  Uiso   1.00
C238   C     0.28789   0.58415   0.87482   0.00000  Uiso   1.00
C239   C     0.26736   0.53334   0.91739   0.00000  Uiso   1.00
C240   C     0.26621   0.69230   0.86532   0.00000  Uiso   1.00
C241   C     0.23819   0.70966   0.79427   0.00000  Uiso   1.00
C242   C     0.19348   0.72685   0.82700   0.00000  Uiso   1.00
C243   C     0.11832   0.75865   0.84191   0.00000  Uiso   1.00
C244   C     0.28661   0.67150   0.03037   0.00000  Uiso   1.00
C245   C     0.34461   0.68369   0.01584   0.00000  Uiso   1.00
C246   C     0.37938   0.69378   0.09101   0.00000  Uiso   1.00
C247   C     0.43084   0.70407   0.06239   0.00000  Uiso   1.00
C248   C     0.28533   0.63892   0.98333   0.00000  Uiso   1.00
C249   C     0.27024   0.61136   0.03117   0.00000  Uiso   1.00
C250   C     0.27180   0.58396   0.97519   0.00000  Uiso   1.00
C251   C     0.25015   0.69212   0.96552   0.00000  Uiso   1.00
C252   C     0.20547   0.70928   0.99836   0.00000  Uiso   1.00
C253   C     0.17739   0.72667   0.92738   0.00000  Uiso   1.00
H254   H     0.32869   0.67198   0.76789   0.00000  Uiso   1.00
H255   H     0.42452   0.69429   0.80937   0.00000  Uiso   1.00
H256   H     0.31540   0.61189   0.74954   0.00000  Uiso   1.00
H257   H     0.25064   0.70979   0.71674   0.00000  Uiso   1.00
H258   H     0.52368   0.71893   0.89954   0.00000  Uiso   1.00
H259   H     0.29358   0.54518   0.77338   0.00000  Uiso   1.00
H260   H     0.15701   0.75164   0.70421   0.00000  Uiso   1.00
H261   H     0.27410   0.67136   0.10837   0.00000  Uiso   1.00
H262   H     0.36693   0.69363   0.16854   0.00000  Uiso   1.00
H263   H     0.25781   0.61123   0.10870   0.00000  Uiso   1.00
H264   H     0.19305   0.70914   0.07590   0.00000  Uiso   1.00
H265   H     0.47695   0.71840   0.19105   0.00000  Uiso   1.00
H266   H     0.24684   0.54465   0.06488   0.00000  Uiso   1.00
H267   H     0.11027   0.75111   0.99572   0.00000  Uiso   1.00
O268   O     0.56237   0.73332   0.07873   0.00000  Uiso   1.00
O269   O     0.26047   0.50537   0.91320   0.00000  Uiso   1.00
O270   O     0.08131   0.77624   0.82246   0.00000  Uiso   1.00
N271   N     0.49994   0.71575   0.95989   0.00000  Uiso   1.00
N272   N     0.28481   0.55331   0.84194   0.00000  Uiso   1.00
N273   N     0.15713   0.74632   0.77727   0.00000  Uiso   1.00
N274   N     0.47479   0.71547   0.11675   0.00000  Uiso   1.00
N275   N     0.25966   0.55302   0.99880   0.00000  Uiso   1.00
N276   N     0.13198   0.74604   0.93413   0.00000  Uiso   1.00
C277   C     0.65048   0.14439   0.17531   0.00000  Uiso   1.00
C278   C     0.61916   0.15560   0.08374   0.00000  Uiso   1.00
C279   C     0.56587   0.16669   0.08318   0.00000  Uiso   1.00
C280   C     0.54454   0.17581   0.99176   0.00000  Uiso   1.00
C281   C     0.49119   0.19349   0.86290   0.00000  Uiso   1.00
C282   C     0.66894   0.11100   0.15201   0.00000  Uiso   1.00
C283   C     0.65752   0.08458   0.20886   0.00000  Uiso   1.00
C284   C     0.67812   0.05616   0.17491   0.00000  Uiso   1.00
C285   C     0.70209   0.00460   0.15208   0.00000  Uiso   1.00
C286   C     0.70233   0.16417   0.17961   0.00000  Uiso   1.00
C287   C     0.71900   0.18244   0.25967   0.00000  Uiso   1.00
C288   C     0.76771   0.19878   0.24896   0.00000  Uiso   1.00
C289   C     0.84353   0.22977   0.26898   0.00000  Uiso   1.00
C290   C     0.70737   0.14089   0.01396   0.00000  Uiso   1.00
C291   C     0.65006   0.15370   0.99610   0.00000  Uiso   1.00
C292   C     0.62881   0.16281   0.90466   0.00000  Uiso   1.00
C293   C     0.57550   0.17390   0.90396   0.00000  Uiso   1.00
C294   C     0.69984   0.10910   0.06438   0.00000  Uiso   1.00
C295   C     0.72046   0.08071   0.03034   0.00000  Uiso   1.00
C296   C     0.70907   0.05425   0.08711   0.00000  Uiso   1.00
C297   C     0.73324   0.16226   0.09197   0.00000  Uiso   1.00
C298   C     0.78194   0.17857   0.08114   0.00000  Uiso   1.00
C299   C     0.79867   0.19687   0.16117   0.00000  Uiso   1.00
H300   H     0.62643   0.14587   0.24354   0.00000  Uiso   1.00
H301   H     0.54196   0.16815   0.15102   0.00000  Uiso   1.00
H302   H     0.63361   0.08606   0.27668   0.00000  Uiso   1.00
H303   H     0.69508   0.18391   0.32747   0.00000  Uiso   1.00
H304   H     0.46194   0.19200   0.00977   0.00000  Uiso   1.00
H305   H     0.65520   0.01892   0.27476   0.00000  Uiso   1.00
H306   H     0.78481   0.22525   0.38188   0.00000  Uiso   1.00
H307   H     0.73143   0.13940   0.94573   0.00000  Uiso   1.00
H308   H     0.65273   0.16133   0.83685   0.00000  Uiso   1.00
H309   H     0.74438   0.07924   0.96252   0.00000  Uiso   1.00
H310   H     0.80584   0.17709   0.01331   0.00000  Uiso   1.00
H311   H     0.55184   0.18647   0.75479   0.00000  Uiso   1.00
H312   H     0.74510   0.01338   0.01978   0.00000  Uiso   1.00
H313   H     0.87471   0.21971   0.12689   0.00000  Uiso   1.00
O314   O     0.45322   0.20377   0.81603   0.00000  Uiso   1.00
O315   O     0.70677   0.97669   0.16369   0.00000  Uiso   1.00
O316   O     0.87682   0.24739   0.30422   0.00000  Uiso   1.00
N317   N     0.49390   0.18770   0.96471   0.00000  Uiso   1.00
N318   N     0.67458   0.02587   0.21245   0.00000  Uiso   1.00
N319   N     0.79576   0.21877   0.31260   0.00000  Uiso   1.00
N320   N     0.54228   0.18472   0.82750   0.00000  Uiso   1.00
N321   N     0.72296   0.02289   0.07524   0.00000  Uiso   1.00
N322   N     0.84414   0.21579   0.17540   0.00000  Uiso   1.00
C323   C     0.31618   0.17184   0.34590   0.00000  Uiso   1.00
C324   C     0.36068   0.18388   0.41565   0.00000  Uiso   1.00
C325   C     0.41210   0.19415   0.38692   0.00000  Uiso   1.00
C326   C     0.44693   0.20425   0.46201   0.00000  Uiso   1.00
C327   C     0.51847   0.22296   0.55508   0.00000  Uiso   1.00
C328   C     0.30140   0.13910   0.38314   0.00000  Uiso   1.00
C329   C     0.30297   0.11174   0.32708   0.00000  Uiso   1.00
C330   C     0.28789   0.08415   0.37482   0.00000  Uiso   1.00
C331   C     0.26736   0.03334   0.41739   0.00000  Uiso   1.00
C332   C     0.26621   0.19230   0.36532   0.00000  Uiso   1.00
C333   C     0.23819   0.20966   0.29427   0.00000  Uiso   1.00
C334   C     0.19348   0.22685   0.32700   0.00000  Uiso   1.00
C335   C     0.11832   0.25865   0.34191   0.00000  Uiso   1.00
C336   C     0.28661   0.17150   0.53037   0.00000  Uiso   1.00
C337   C     0.34461   0.18369   0.51584   0.00000  Uiso   1.00
C338   C     0.37938   0.19378   0.59101   0.00000  Uiso   1.00
C339   C     0.43084   0.20407   0.56239   0.00000  Uiso   1.00
C340   C     0.28533   0.13892   0.48333   0.00000  Uiso   1.00
C341   C     0.27024   0.11136   0.53117   0.00000  Uiso   1.00
C342   C     0.27180   0.08396   0.47519   0.00000  Uiso   1.00
C343   C     0.25015   0.19212   0.46552   0.00000  Uiso   1.00
C344   C     0.20547   0.20928   0.49836   0.00000  Uiso   1.00
C345   C     0.17739   0.22667   0.42738   0.00000  Uiso   1.00
H346   H     0.32869   0.17198   0.26789   0.00000  Uiso   1.00
H347   H     0.42452   0.19429   0.30937   0.00000  Uiso   1.00
H348   H     0.31540   0.11189   0.24954   0.00000  Uiso   1.00
H349   H     0.25064   0.20979   0.21674   0.00000  Uiso   1.00
H350   H     0.52368   0.21893   0.39954   0.00000  Uiso   1.00
H351   H     0.29358   0.04518   0.27338   0.00000  Uiso   1.00
H352   H     0.15701   0.25164   0.20421   0.00000  Uiso   1.00
H353   H     0.27410   0.17136   0.60837   0.00000  Uiso   1.00
H354   H     0.36693   0.19363   0.66854   0.00000  Uiso   1.00
H355   H     0.25781   0.11123   0.60870   0.00000  Uiso   1.00
H356   H     0.19305   0.20914   0.57590   0.00000  Uiso   1.00
H357   H     0.47695   0.21840   0.69105   0.00000  Uiso   1.00
H358   H     0.24684   0.04465   0.56488   0.00000  Uiso   1.00
H359   H     0.11027   0.25111   0.49572   0.00000  Uiso   1.00
O360   O     0.56237   0.23332   0.57873   0.00000  Uiso   1.00
O361   O     0.26047   0.00537   0.41320   0.00000  Uiso   1.00
O362   O     0.08131   0.27624   0.32246   0.00000  Uiso   1.00
N363   N     0.49994   0.21575   0.45989   0.00000  Uiso   1.00
N364   N     0.28481   0.05331   0.34194   0.00000  Uiso   1.00
N365   N     0.15713   0.24632   0.27727   0.00000  Uiso   1.00
N366   N     0.47479   0.21547   0.61675   0.00000  Uiso   1.00
N367   N     0.25966   0.05302   0.49880   0.00000  Uiso   1.00
N368   N     0.13198   0.24604   0.43413   0.00000  Uiso   1.00
C369   C     0.84952   0.14439   0.67531   0.00000  Uiso   1.00
C370   C     0.88084   0.15560   0.58374   0.00000  Uiso   1.00
C371   C     0.93413   0.16669   0.58318   0.00000  Uiso   1.00
C372   C     0.95546   0.17581   0.49176   0.00000  Uiso   1.00
C373   C     0.00881   0.19349   0.36290   0.00000  Uiso   1.00
C374   C     0.83106   0.11100   0.65201   0.00000  Uiso   1.00
C375   C     0.84248   0.08458   0.70886   0.00000  Uiso   1.00
C376   C     0.82188   0.05616   0.67491   0.00000  Uiso   1.00
C377   C     0.79791   0.00460   0.65208   0.00000  Uiso   1.00
C378   C     0.79767   0.16417   0.67961   0.00000  Uiso   1.00
C379   C     0.78100   0.18244   0.75967   0.00000  Uiso   1.00
C380   C     0.73229   0.19878   0.74896   0.00000  Uiso   1.00
C381   C     0.65647   0.22977   0.76898   0.00000  Uiso   1.00
C382   C     0.79263   0.14089   0.51396   0.00000  Uiso   1.00
C383   C     0.84994   0.15370   0.49610   0.00000  Uiso   1.00
C384   C     0.87119   0.16281   0.40466   0.00000  Uiso   1.00
C385   C     0.92450   0.17390   0.40396   0.00000  Uiso   1.00
C386   C     0.80016   0.10910   0.56438   0.00000  Uiso   1.00
C387   C     0.77954   0.08071   0.53034   0.00000  Uiso   1.00
C388   C     0.79093   0.05425   0.58711   0.00000  Uiso   1.00
C389   C     0.76676   0.16226   0.59197   0.00000  Uiso   1.00
C390   C     0.71806   0.17857   0.58114   0.00000  Uiso   1.00
C391   C     0.70133   0.19687   0.66117   0.00000  Uiso   1.00
H392   H     0.87357   0.14587   0.74354   0.00000  Uiso   1.00
H393   H     0.95804   0.16815   0.65102   0.00000  Uiso   1.00
H394   H     0.86639   0.08606   0.77668   0.00000  Uiso   1.00
H395   H     0.80492   0.18391   0.82747   0.00000  Uiso   1.00
H396   H     0.03806   0.19200   0.50977   0.00000  Uiso   1.00
H397   H     0.84480   0.01892   0.77476   0.00000  Uiso   1.00
H398   H     0.71519   0.22525   0.88188   0.00000  Uiso   1.00
H399   H     0.76857   0.13940   0.44573   0.00000  Uiso   1.00
H400   H     0.84727   0.16133   0.33685   0.00000  Uiso   1.00
H401   H     0.75562   0.07924   0.46252   0.00000  Uiso   1.00
H402   H     0.69416   0.17709   0.51331   0.00000  Uiso   1.00
H403   H     0.94816   0.18647   0.25479   0.00000  Uiso   1.00
H404   H     0.75490   0.01338   0.51978   0.00000  Uiso   1.00
H405   H     0.62529   0.21971   0.62689   0.00000  Uiso   1.00
O406   O     0.04678   0.20377   0.31603   0.00000  Uiso   1.00
O407   O     0.79323   0.97669   0.66369   0.00000  Uiso   1.00
O408   O     0.62318   0.24739   0.80422   0.00000  Uiso   1.00
N409   N     0.00610   0.18770   0.46471   0.00000  Uiso   1.00
N410   N     0.82542   0.02587   0.71245   0.00000  Uiso   1.00
N411   N     0.70424   0.21877   0.81260   0.00000  Uiso   1.00
N412   N     0.95772   0.18472   0.32750   0.00000  Uiso   1.00
N413   N     0.77704   0.02289   0.57524   0.00000  Uiso   1.00
N414   N     0.65586   0.21579   0.67540   0.00000  Uiso   1.00
C415   C     0.18382   0.17184   0.84590   0.00000  Uiso   1.00
C416   C     0.13932   0.18388   0.91565   0.00000  Uiso   1.00
C417   C     0.08790   0.19415   0.88692   0.00000  Uiso   1.00
C418   C     0.05307   0.20425   0.96201   0.00000  Uiso   1.00
C419   C     0.98153   0.22296   0.05508   0.00000  Uiso   1.00
C420   C     0.19860   0.13910   0.88314   0.00000  Uiso   1.00
C421   C     0.19703   0.11174   0.82708   0.00000  Uiso   1.00
C422   C     0.21211   0.08415   0.87482   0.00000  Uiso   1.00
C423   C     0.23264   0.03334   0.91739   0.00000  Uiso   1.00
C424   C     0.23379   0.19230   0.86532   0.00000  Uiso   1.00
C425   C     0.26181   0.20966   0.79427   0.00000  Uiso   1.00
C426   C     0.30652   0.22685   0.82700   0.00000  Uiso   1.00
C427   C     0.38168   0.25865   0.84191   0.00000  Uiso   1.00
C428   C     0.21339   0.17150   0.03037   0.00000  Uiso   1.00
C429   C     0.15539   0.18369   0.01584   0.00000  Uiso   1.00
C430   C     0.12062   0.19378   0.09101   0.00000  Uiso   1.00
C431   C     0.06916   0.20407   0.06239   0.00000  Uiso   1.00
C432   C     0.21467   0.13892   0.98333   0.00000  Uiso   1.00
C433   C     0.22976   0.11136   0.03117   0.00000  Uiso   1.00
C434   C     0.22820   0.08396   0.97519   0.00000  Uiso   1.00
C435   C     0.24985   0.19212   0.96552   0.00000  Uiso   1.00
C436   C     0.29453   0.20928   0.99836   0.00000  Uiso   1.00
C437   C     0.32261   0.22667   0.92738   0.00000  Uiso   1.00
H438   H     0.17131   0.17198   0.76789   0.00000  Uiso   1.00
H439   H     0.07548   0.19429   0.80937   0.00000  Uiso   1.00
H440   H     0.18460   0.11189   0.74954   0.00000  Uiso   1.00
H441   H     0.24936   0.20979   0.71674   0.00000  Uiso   1.00
H442   H     0.97632   0.21893   0.89954   0.00000  Uiso   1.00
H443   H     0.20642   0.04518   0.77338   0.00000  Uiso   1.00
H444   H     0.34299   0.25164   0.70421   0.00000  Uiso   1.00
H445   H     0.22590   0.17136   0.10837   0.00000  Uiso   1.00
H446   H     0.13307   0.19363   0.16854   0.00000  Uiso   1.00
H447   H     0.24219   0.11123   0.10870   0.00000  Uiso   1.00
H448   H     0.30695   0.20914   0.07590   0.00000  Uiso   1.00
H449   H     0.02305   0.21840   0.19105   0.00000  Uiso   1.00
H450   H     0.25316   0.04465   0.06488   0.00000  Uiso   1.00
H451   H     0.38973   0.25111   0.99572   0.00000  Uiso   1.00
O452   O     0.93763   0.23332   0.07873   0.00000  Uiso   1.00
O453   O     0.23953   0.00537   0.91320   0.00000  Uiso   1.00
O454   O     0.41869   0.27624   0.82246   0.00000  Uiso   1.00
N455   N     0.00006   0.21575   0.95989   0.00000  Uiso   1.00
N456   N     0.21519   0.05331   0.84194   0.00000  Uiso   1.00
N457   N     0.34287   0.24632   0.77727   0.00000  Uiso   1.00
N458   N     0.02521   0.21547   0.11675   0.00000  Uiso   1.00
N459   N     0.24034   0.05302   0.99880   0.00000  Uiso   1.00
N460   N     0.36802   0.24604   0.93413   0.00000  Uiso   1.00
C461   C     0.84952   0.64439   0.17531   0.00000  Uiso   1.00
C462   C     0.88084   0.65560   0.08374   0.00000  Uiso   1.00
C463   C     0.93413   0.66669   0.08318   0.00000  Uiso   1.00
C464   C     0.95546   0.67581   0.99176   0.00000  Uiso   1.00
C465   C     0.00881   0.69349   0.86290   0.00000  Uiso   1.00
C466   C     0.83106   0.61100   0.15201   0.00000  Uiso   1.00
C467   C     0.84248   0.58458   0.20886   0.00000  Uiso   1.00
C468   C     0.82188   0.55616   0.17491   0.00000  Uiso   1.00
C469   C     0.79791   0.50460   0.15208   0.00000  Uiso   1.00
C470   C     0.79767   0.66417   0.17961   0.00000  Uiso   1.00
C471   C     0.78100   0.68244   0.25967   0.00000  Uiso   1.00
C472   C     0.73229   0.69878   0.24896   0.00000  Uiso   1.00
C473   C     0.65647   0.72977   0.26898   0.00000  Uiso   1.00
C474   C     0.79263   0.64089   0.01396   0.00000  Uiso   1.00
C475   C     0.84994   0.65370   0.99610   0.00000  Uiso   1.00
C476   C     0.87119   0.66281   0.90466   0.00000  Uiso   1.00
C477   C     0.92450   0.67390   0.90396   0.00000  Uiso   1.00
C478   C     0.80016   0.60910   0.06438   0.00000  Uiso   1.00
C479   C     0.77954   0.58071   0.03034   0.00000  Uiso   1.00
C480   C     0.79093   0.55425   0.08711   0.00000  Uiso   1.00
C481   C     0.76676   0.66226   0.09197   0.00000  Uiso   1.00
C482   C     0.71806   0.67857   0.08114   0.00000  Uiso   1.00
C483   C     0.70133   0.69687   0.16117   0.00000  Uiso   1.00
H484   H     0.87357   0.64587   0.24354   0.00000  Uiso   1.00
H485   H     0.95804   0.66815   0.15102   0.00000  Uiso   1.00
H486   H     0.86639   0.58606   0.27668   0.00000  Uiso   1.00
H487   H     0.80492   0.68391   0.32747   0.00000  Uiso   1.00
H488   H     0.03806   0.69200   0.00977   0.00000  Uiso   1.00
H489   H     0.84480   0.51892   0.27476   0.00000  Uiso   1.00
H490   H     0.71519   0.72525   0.38188   0.00000  Uiso   1.00
H491   H     0.76857   0.63940   0.94573   0.00000  Uiso   1.00
H492   H     0.84727   0.66133   0.83685   0.00000  Uiso   1.00
H493   H     0.75562   0.57924   0.96252   0.00000  Uiso   1.00
H494   H     0.69416   0.67709   0.01331   0.00000  Uiso   1.00
H495   H     0.94816   0.68647   0.75479   0.00000  Uiso   1.00
H496   H     0.75490   0.51338   0.01978   0.00000  Uiso   1.00
H497   H     0.62529   0.71971   0.12689   0.00000  Uiso   1.00
O498   O     0.04678   0.70377   0.81603   0.00000  Uiso   1.00
O499   O     0.79323   0.47669   0.16369   0.00000  Uiso   1.00
O500   O     0.62318   0.74739   0.30422   0.00000  Uiso   1.00
N501   N     0.00610   0.68770   0.96471   0.00000  Uiso   1.00
N502   N     0.82542   0.52587   0.21245   0.00000  Uiso   1.00
N503   N     0.70424   0.71877   0.31260   0.00000  Uiso   1.00
N504   N     0.95772   0.68472   0.82750   0.00000  Uiso   1.00
N505   N     0.77704   0.52289   0.07524   0.00000  Uiso   1.00
N506   N     0.65586   0.71579   0.17540   0.00000  Uiso   1.00
C507   C     0.18382   0.67184   0.34590   0.00000  Uiso   1.00
C508   C     0.13932   0.68388   0.41565   0.00000  Uiso   1.00
C509   C     0.08790   0.69415   0.38692   0.00000  Uiso   1.00
C510   C     0.05307   0.70425   0.46201   0.00000  Uiso   1.00
C511   C     0.98153   0.72296   0.55508   0.00000  Uiso   1.00
C512   C     0.19860   0.63910   0.38314   0.00000  Uiso   1.00
C513   C     0.19703   0.61174   0.32708   0.00000  Uiso   1.00
C514   C     0.21211   0.58415   0.37482   0.00000  Uiso   1.00
C515   C     0.23264   0.53334   0.41739   0.00000  Uiso   1.00
C516   C     0.23379   0.69230   0.36532   0.00000  Uiso   1.00
C517   C     0.26181   0.70966   0.29427   0.00000  Uiso   1.00
C518   C     0.30652   0.72685   0.32700   0.00000  Uiso   1.00
C519   C     0.38168   0.75865   0.34191   0.00000  Uiso   1.00
C520   C     0.21339   0.67150   0.53037   0.00000  Uiso   1.00
C521   C     0.15539   0.68369   0.51584   0.00000  Uiso   1.00
C522   C     0.12062   0.69378   0.59101   0.00000  Uiso   1.00
C523   C     0.06916   0.70407   0.56239   0.00000  Uiso   1.00
C524   C     0.21467   0.63892   0.48333   0.00000  Uiso   1.00
C525   C     0.22976   0.61136   0.53117   0.00000  Uiso   1.00
C526   C     0.22820   0.58396   0.47519   0.00000  Uiso   1.00
C527   C     0.24985   0.69212   0.46552   0.00000  Uiso   1.00
C528   C     0.29453   0.70928   0.49836   0.00000  Uiso   1.00
C529   C     0.32261   0.72667   0.42738   0.00000  Uiso   1.00
H530   H     0.17131   0.67198   0.26789   0.00000  Uiso   1.00
H531   H     0.07548   0.69429   0.30937   0.00000  Uiso   1.00
H532   H     0.18460   0.61189   0.24954   0.00000  Uiso   1.00
H533   H     0.24936   0.70979   0.21674   0.00000  Uiso   1.00
H534   H     0.97632   0.71893   0.39954   0.00000  Uiso   1.00
H535   H     0.20642   0.54518   0.27338   0.00000  Uiso   1.00
H536   H     0.34299   0.75164   0.20421   0.00000  Uiso   1.00
H537   H     0.22590   0.67136   0.60837   0.00000  Uiso   1.00
H538   H     0.13307   0.69363   0.66854   0.00000  Uiso   1.00
H539   H     0.24219   0.61123   0.60870   0.00000  Uiso   1.00
H540   H     0.30695   0.70914   0.57590   0.00000  Uiso   1.00
H541   H     0.02305   0.71840   0.69105   0.00000  Uiso   1.00
H542   H     0.25316   0.54465   0.56488   0.00000  Uiso   1.00
H543   H     0.38973   0.75111   0.49572   0.00000  Uiso   1.00
O544   O     0.93763   0.73332   0.57873   0.00000  Uiso   1.00
O545   O     0.23953   0.50537   0.41320   0.00000  Uiso   1.00
O546   O     0.41869   0.77624   0.32246   0.00000  Uiso   1.00
N547   N     0.00006   0.71575   0.45989   0.00000  Uiso   1.00
N548   N     0.21519   0.55331   0.34194   0.00000  Uiso   1.00
N549   N     0.34287   0.74632   0.27727   0.00000  Uiso   1.00
N550   N     0.02521   0.71547   0.61675   0.00000  Uiso   1.00
N551   N     0.24034   0.55302   0.49880   0.00000  Uiso   1.00
N552   N     0.36802   0.74604   0.43413   0.00000  Uiso   1.00
C553   C     0.15048   0.85561   0.67531   0.00000  Uiso   1.00
C554   C     0.11916   0.84440   0.58374   0.00000  Uiso   1.00
C555   C     0.06587   0.83331   0.58318   0.00000  Uiso   1.00
C556   C     0.04454   0.82419   0.49176   0.00000  Uiso   1.00
C557   C     0.99119   0.80651   0.36290   0.00000  Uiso   1.00
C558   C     0.16894   0.88900   0.65201   0.00000  Uiso   1.00
C559   C     0.15752   0.91542   0.70886   0.00000  Uiso   1.00
C560   C     0.17812   0.94384   0.67491   0.00000  Uiso   1.00
C561   C     0.20209   0.99540   0.65208   0.00000  Uiso   1.00
C562   C     0.20233   0.83583   0.67961   0.00000  Uiso   1.00
C563   C     0.21900   0.81756   0.75967   0.00000  Uiso   1.00
C564   C     0.26771   0.80122   0.74896   0.00000  Uiso   1.00
C565   C     0.34353   0.77023   0.76898   0.00000  Uiso   1.00
C566   C     0.20737   0.85911   0.51396   0.00000  Uiso   1.00
C567   C     0.15006   0.84630   0.49610   0.00000  Uiso   1.00
C568   C     0.12881   0.83719   0.40466   0.00000  Uiso   1.00
C569   C     0.07550   0.82610   0.40396   0.00000  Uiso   1.00
C570   C     0.19984   0.89090   0.56438   0.00000  Uiso   1.00
C571   C     0.22046   0.91929   0.53034   0.00000  Uiso   1.00
C572   C     0.20907   0.94575   0.58711   0.00000  Uiso   1.00
C573   C     0.23324   0.83774   0.59197   0.00000  Uiso   1.00
C574   C     0.28194   0.82143   0.58114   0.00000  Uiso   1.00
C575   C     0.29867   0.80313   0.66117   0.00000  Uiso   1.00
H576   H     0.12643   0.85413   0.74354   0.00000  Uiso   1.00
H577   H     0.04196   0.83185   0.65102   0.00000  Uiso   1.00
H578   H     0.13361   0.91394   0.77668   0.00000  Uiso   1.00
H579   H     0.19508   0.81609   0.82747   0.00000  Uiso   1.00
H580   H     0.96194   0.80800   0.50977   0.00000  Uiso   1.00
H581   H     0.15520   0.98108   0.77476   0.00000  Uiso   1.00
H582   H     0.28481   0.77475   0.88188   0.00000  Uiso   1.00
H583   H     0.23143   0.86060   0.44573   0.00000  Uiso   1.00
H584   H     0.15273   0.83867   0.33685   0.00000  Uiso   1.00
H585   H     0.24438   0.92076   0.46252   0.00000  Uiso   1.00
H586   H     0.30584   0.82291   0.51331   0.00000  Uiso   1.00
H587   H     0.05184   0.81353   0.25479   0.00000  Uiso   1.00
H588   H     0.24510   0.98662   0.51978   0.00000  Uiso   1.00
H589   H     0.37471   0.78029   0.62689   0.00000  Uiso   1.00
O590   O     0.95322   0.79623   0.31603   0.00000  Uiso   1.00
O591   O     0.20677   0.02331   0.66369   0.00000  Uiso   1.00
O592   O     0.37682   0.75261   0.80422   0.00000  Uiso   1.00
N593   N     0.99390   0.81230   0.46471   0.00000  Uiso   1.00
N594   N     0.17458   0.97413   0.71245   0.00000  Uiso   1.00
N595   N     0.29576   0.78123   0.81260   0.00000  Uiso   1.00
N596   N     0.04228   0.81528   0.32750   0.00000  Uiso   1.00
N597   N     0.22296   0.97711   0.57524   0.00000  Uiso   1.00
N598   N     0.34414   0.78421   0.67540   0.00000  Uiso   1.00
C599   C     0.81618   0.82816   0.84590   0.00000  Uiso   1.00
C600   C     0.86068   0.81612   0.91565   0.00000  Uiso   1.00
C601   C     0.91210   0.80585   0.88692   0.00000  Uiso   1.00
C602   C     0.94693   0.79575   0.96201   0.00000  Uiso   1.00
C603   C     0.01847   0.77704   0.05508   0.00000  Uiso   1.00
C604   C     0.80140   0.86090   0.88314   0.00000  Uiso   1.00
C605   C     0.80297   0.88826   0.82708   0.00000  Uiso   1.00
C606   C     0.78789   0.91585   0.87482   0.00000  Uiso   1.00
C607   C     0.76736   0.96666   0.91739   0.00000  Uiso   1.00
C608   C     0.76621   0.80770   0.86532   0.00000  Uiso   1.00
C609   C     0.73819   0.79034   0.79427   0.00000  Uiso   1.00
C610   C     0.69348   0.77315   0.82700   0.00000  Uiso   1.00
C611   C     0.61832   0.74135   0.84191   0.00000  Uiso   1.00
C612   C     0.78661   0.82850   0.03037   0.00000  Uiso   1.00
C613   C     0.84461   0.81631   0.01584   0.00000  Uiso   1.00
C614   C     0.87938   0.80622   0.09101   0.00000  Uiso   1.00
C615   C     0.93084   0.79593   0.06239   0.00000  Uiso   1.00
C616   C     0.78533   0.86108   0.98333   0.00000  Uiso   1.00
C617   C     0.77024   0.88864   0.03117   0.00000  Uiso   1.00
C618   C     0.77180   0.91604   0.97519   0.00000  Uiso   1.00
C619   C     0.75015   0.80788   0.96552   0.00000  Uiso   1.00
C620   C     0.70547   0.79072   0.99836   0.00000  Uiso   1.00
C621   C     0.67739   0.77333   0.92738   0.00000  Uiso   1.00
H622   H     0.82869   0.82802   0.76789   0.00000  Uiso   1.00
H623   H     0.92452   0.80571   0.80937   0.00000  Uiso   1.00
H624   H     0.81540   0.88811   0.74954   0.00000  Uiso   1.00
H625   H     0.75064   0.79021   0.71674   0.00000  Uiso   1.00
H626   H     0.02368   0.78107   0.89954   0.00000  Uiso   1.00
H627   H     0.79358   0.95482   0.77338   0.00000  Uiso   1.00
H628   H     0.65701   0.74836   0.70421   0.00000  Uiso   1.00
H629   H     0.77410   0.82864   0.10837   0.00000  Uiso   1.00
H630   H     0.86693   0.80637   0.16854   0.00000  Uiso   1.00
H631   H     0.75781   0.88877   0.10870   0.00000  Uiso   1.00
H632   H     0.69305   0.79086   0.07590   0.00000  Uiso   1.00
H633   H     0.97695   0.78160   0.19105   0.00000  Uiso   1.00
H634   H     0.74684   0.95535   0.06488   0.00000  Uiso   1.00
H635   H     0.61027   0.74889   0.99572   0.00000  Uiso   1.00
O636   O     0.06237   0.76668   0.07873   0.00000  Uiso   1.00
O637   O     0.76047   0.99463   0.91320   0.00000  Uiso   1.00
O638   O     0.58131   0.72376   0.82246   0.00000  Uiso   1.00
N639   N     0.99994   0.78425   0.95989   0.00000  Uiso   1.00
N640   N     0.78481   0.94669   0.84194   0.00000  Uiso   1.00
N641   N     0.65713   0.75368   0.77727   0.00000  Uiso   1.00
N642   N     0.97479   0.78453   0.11675   0.00000  Uiso   1.00
N643   N     0.75966   0.94698   0.99880   0.00000  Uiso   1.00
N644   N     0.63198   0.75396   0.93413   0.00000  Uiso   1.00
C645   C     0.15048   0.35561   0.17531   0.00000  Uiso   1.00
C646   C     0.11916   0.34440   0.08374   0.00000  Uiso   1.00
C647   C     0.06587   0.33331   0.08318   0.00000  Uiso   1.00
C648   C     0.04454   0.32419   0.99176   0.00000  Uiso   1.00
C649   C     0.99119   0.30651   0.86290   0.00000  Uiso   1.00
C650   C     0.16894   0.38900   0.15201   0.00000  Uiso   1.00
C651   C     0.15752   0.41542   0.20886   0.00000  Uiso   1.00
C652   C     0.17812   0.44384   0.17491   0.00000  Uiso   1.00
C653   C     0.20209   0.49540   0.15208   0.00000  Uiso   1.00
C654   C     0.20233   0.33583   0.17961   0.00000  Uiso   1.00
C655   C     0.21900   0.31756   0.25967   0.00000  Uiso   1.00
C656   C     0.26771   0.30122   0.24896   0.00000  Uiso   1.00
C657   C     0.34353   0.27023   0.26898   0.00000  Uiso   1.00
C658   C     0.20737   0.35911   0.01396   0.00000  Uiso   1.00
C659   C     0.15006   0.34630   0.99610   0.00000  Uiso   1.00
C660   C     0.12881   0.33719   0.90466   0.00000  Uiso   1.00
C661   C     0.07550   0.32610   0.90396   0.00000  Uiso   1.00
C662   C     0.19984   0.39090   0.06438   0.00000  Uiso   1.00
C663   C     0.22046   0.41929   0.03034   0.00000  Uiso   1.00
C664   C     0.20907   0.44575   0.08711   0.00000  Uiso   1.00
C665   C     0.23324   0.33774   0.09197   0.00000  Uiso   1.00
C666   C     0.28194   0.32143   0.08114   0.00000  Uiso   1.00
C667   C     0.29867   0.30313   0.16117   0.00000  Uiso   1.00
H668   H     0.12643   0.35413   0.24354   0.00000  Uiso   1.00
H669   H     0.04196   0.33185   0.15102   0.00000  Uiso   1.00
H670   H     0.13361   0.41394   0.27668   0.00000  Uiso   1.00
H671   H     0.19508   0.31609   0.32747   0.00000  Uiso   1.00
H672   H     0.96194   0.30800   0.00977   0.00000  Uiso   1.00
H673   H     0.15520   0.48108   0.27476   0.00000  Uiso   1.00
H674   H     0.28481   0.27475   0.38188   0.00000  Uiso   1.00
H675   H     0.23143   0.36060   0.94573   0.00000  Uiso   1.00
H676   H     0.15273   0.33867   0.83685   0.00000  Uiso   1.00
H677   H     0.24438   0.42076   0.96252   0.00000  Uiso   1.00
H678   H     0.30584   0.32291   0.01331   0.00000  Uiso   1.00
H679   H     0.05184   0.31353   0.75479   0.00000  Uiso   1.00
H680   H     0.24510   0.48662   0.01978   0.00000  Uiso   1.00
H681   H     0.37471   0.28029   0.12689   0.00000  Uiso   1.00
O682   O     0.95322   0.29623   0.81603   0.00000  Uiso   1.00
O683   O     0.20677   0.52331   0.16369   0.00000  Uiso   1.00
O684   O     0.37682   0.25261   0.30422   0.00000  Uiso   1.00
N685   N     0.99390   0.31230   0.96471   0.00000  Uiso   1.00
N686   N     0.17458   0.47413   0.21245   0.00000  Uiso   1.00
N687   N     0.29576   0.28123   0.31260   0.00000  Uiso   1.00
N688   N     0.04228   0.31528   0.82750   0.00000  Uiso   1.00
N689   N     0.22296   0.47711   0.07524   0.00000  Uiso   1.00
N690   N     0.34414   0.28421   0.17540   0.00000  Uiso   1.00
C691   C     0.81618   0.32816   0.34590   0.00000  Uiso   1.00
C692   C     0.86068   0.31612   0.41565   0.00000  Uiso   1.00
C693   C     0.91210   0.30585   0.38692   0.00000  Uiso   1.00
C694   C     0.94693   0.29575   0.46201   0.00000  Uiso   1.00
C695   C     0.01847   0.27704   0.55508   0.00000  Uiso   1.00
C696   C     0.80140   0.36090   0.38314   0.00000  Uiso   1.00
C697   C     0.80297   0.38826   0.32708   0.00000  Uiso   1.00
C698   C     0.78789   0.41585   0.37482   0.00000  Uiso   1.00
C699   C     0.76736   0.46666   0.41739   0.00000  Uiso   1.00
C700   C     0.76621   0.30770   0.36532   0.00000  Uiso   1.00
C701   C     0.73819   0.29034   0.29427   0.00000  Uiso   1.00
C702   C     0.69348   0.27315   0.32700   0.00000  Uiso   1.00
C703   C     0.61832   0.24135   0.34191   0.00000  Uiso   1.00
C704   C     0.78661   0.32850   0.53037   0.00000  Uiso   1.00
C705   C     0.84461   0.31631   0.51584   0.00000  Uiso   1.00
C706   C     0.87938   0.30622   0.59101   0.00000  Uiso   1.00
C707   C     0.93084   0.29593   0.56239   0.00000  Uiso   1.00
C708   C     0.78533   0.36108   0.48333   0.00000  Uiso   1.00
C709   C     0.77024   0.38864   0.53117   0.00000  Uiso   1.00
C710   C     0.77180   0.41604   0.47519   0.00000  Uiso   1.00
C711   C     0.75015   0.30788   0.46552   0.00000  Uiso   1.00
C712   C     0.70547   0.29072   0.49836   0.00000  Uiso   1.00
C713   C     0.67739   0.27333   0.42738   0.00000  Uiso   1.00
H714   H     0.82869   0.32802   0.26789   0.00000  Uiso   1.00
H715   H     0.92452   0.30571   0.30937   0.00000  Uiso   1.00
H716   H     0.81540   0.38811   0.24954   0.00000  Uiso   1.00
H717   H     0.75064   0.29021   0.21674   0.00000  Uiso   1.00
H718   H     0.02368   0.28107   0.39954   0.00000  Uiso   1.00
H719   H     0.79358   0.45482   0.27338   0.00000  Uiso   1.00
H720   H     0.65701   0.24836   0.20421   0.00000  Uiso   1.00
H721   H     0.77410   0.32864   0.60837   0.00000  Uiso   1.00
H722   H     0.86693   0.30637   0.66854   0.00000  Uiso   1.00
H723   H     0.75781   0.38877   0.60870   0.00000  Uiso   1.00
H724   H     0.69305   0.29086   0.57590   0.00000  Uiso   1.00
H725   H     0.97695   0.28160   0.69105   0.00000  Uiso   1.00
H726   H     0.74684   0.45535   0.56488   0.00000  Uiso   1.00
H727   H     0.61027   0.24889   0.49572   0.00000  Uiso   1.00
O728   O     0.06237   0.26668   0.57873   0.00000  Uiso   1.00
O729   O     0.76047   0.49463   0.41320   0.00000  Uiso   1.00
O730   O     0.58131   0.22376   0.32246   0.00000  Uiso   1.00
N731   N     0.99994   0.28425   0.45989   0.00000  Uiso   1.00
N732   N     0.78481   0.44669   0.34194   0.00000  Uiso   1.00
N733   N     0.65713   0.25368   0.27727   0.00000  Uiso   1.00
N734   N     0.97479   0.28453   0.61675   0.00000  Uiso   1.00
N735   N     0.75966   0.44698   0.49880   0.00000  Uiso   1.00
N736   N     0.63198   0.25396   0.43413   0.00000  Uiso   1.00
