data_job_03690
_audit_creation_date              2018-12-19
_audit_creation_method            'Materials Studio'
_symmetry_space_group_name_H-M    'P1'
_symmetry_Int_Tables_number       1
_symmetry_cell_setting            triclinic
loop_
_symmetry_equiv_pos_as_xyz
  x,y,z
_cell_length_a                    20.2446
_cell_length_b                    23.2375
_cell_length_c                    24.2596
_cell_angle_alpha                 90.0000
_cell_angle_beta                  90.0000
_cell_angle_gamma                 90.0000
loop_
_atom_site_label
_atom_site_type_symbol
_atom_site_fract_x
_atom_site_fract_y
_atom_site_fract_z
_atom_site_U_iso_or_equiv
_atom_site_adp_type
_atom_site_occupancy
C1     C     0.13947   0.56391   0.82532   0.00000  Uiso   1.00
C2     C     0.21258   0.54887   0.82991   0.00000  Uiso   1.00
C3     C     0.24090   0.49649   0.81590   0.00000  Uiso   1.00
C4     C     0.30866   0.49128   0.82312   0.00000  Uiso   1.00
C5     C     0.41640   0.46098   0.82716   0.00000  Uiso   1.00
C6     C     0.11799   0.58286   0.88278   0.00000  Uiso   1.00
C7     C     0.06676   0.55905   0.91320   0.00000  Uiso   1.00
C8     C     0.05490   0.58245   0.96492   0.00000  Uiso   1.00
C9     C     0.01574   0.60495   0.05100   0.00000  Uiso   1.00
C10    C     0.13580   0.61749   0.78916   0.00000  Uiso   1.00
C11    C     0.09954   0.62282   0.74088   0.00000  Uiso   1.00
C12    C     0.10266   0.67538   0.71380   0.00000  Uiso   1.00
C13    C     0.09117   0.75165   0.65453   0.00000  Uiso   1.00
C14    C     0.20947   0.64780   0.86308   0.00000  Uiso   1.00
C15    C     0.25060   0.59444   0.85042   0.00000  Uiso   1.00
C16    C     0.31835   0.58931   0.85767   0.00000  Uiso   1.00
C17    C     0.34676   0.53692   0.84367   0.00000  Uiso   1.00
C18    C     0.15601   0.62842   0.90328   0.00000  Uiso   1.00
C19    C     0.14421   0.65187   0.95497   0.00000  Uiso   1.00
C20    C     0.09299   0.62810   0.98546   0.00000  Uiso   1.00
C21    C     0.17383   0.66306   0.80967   0.00000  Uiso   1.00
C22    C     0.17700   0.71563   0.78266   0.00000  Uiso   1.00
C23    C     0.14075   0.72103   0.73434   0.00000  Uiso   1.00
H24    H     0.10986   0.52844   0.80936   0.00000  Uiso   1.00
H25    H     0.21145   0.46124   0.80003   0.00000  Uiso   1.00
H26    H     0.03734   0.52380   0.89731   0.00000  Uiso   1.00
H27    H     0.07012   0.58755   0.72503   0.00000  Uiso   1.00
H28    H     0.34085   0.40682   0.79875   0.00000  Uiso   1.00
H29    H     0.97371   0.53874   0.00387   0.00000  Uiso   1.00
H30    H     0.04284   0.67317   0.64057   0.00000  Uiso   1.00
H31    H     0.23907   0.68328   0.87905   0.00000  Uiso   1.00
H32    H     0.34776   0.62457   0.87354   0.00000  Uiso   1.00
H33    H     0.17364   0.68713   0.97083   0.00000  Uiso   1.00
H34    H     0.20643   0.75088   0.79854   0.00000  Uiso   1.00
H35    H     0.45148   0.53939   0.85842   0.00000  Uiso   1.00
H36    H     0.08434   0.67131   0.06354   0.00000  Uiso   1.00
H37    H     0.15347   0.80574   0.70023   0.00000  Uiso   1.00
O38    O     0.46532   0.43169   0.82372   0.00000  Uiso   1.00
O39    O     0.98365   0.60476   0.09282   0.00000  Uiso   1.00
O40    O     0.07434   0.78113   0.61618   0.00000  Uiso   1.00
N41    N     0.35197   0.44608   0.81354   0.00000  Uiso   1.00
N42    N     0.00873   0.56941   0.00531   0.00000  Uiso   1.00
N43    N     0.07334   0.69510   0.66567   0.00000  Uiso   1.00
N44    N     0.41150   0.51742   0.84565   0.00000  Uiso   1.00
N45    N     0.06826   0.64074   0.03742   0.00000  Uiso   1.00
N46    N     0.13287   0.76643   0.69777   0.00000  Uiso   1.00
C47    C     0.63947   0.06391   0.32532   0.00000  Uiso   1.00
C48    C     0.71258   0.04887   0.32991   0.00000  Uiso   1.00
C49    C     0.74090   0.99649   0.31590   0.00000  Uiso   1.00
C50    C     0.80866   0.99128   0.32312   0.00000  Uiso   1.00
C51    C     0.91640   0.96098   0.32716   0.00000  Uiso   1.00
C52    C     0.61799   0.08286   0.38278   0.00000  Uiso   1.00
C53    C     0.56676   0.05905   0.41320   0.00000  Uiso   1.00
C54    C     0.55490   0.08245   0.46492   0.00000  Uiso   1.00
C55    C     0.51574   0.10495   0.55100   0.00000  Uiso   1.00
C56    C     0.63580   0.11749   0.28916   0.00000  Uiso   1.00
C57    C     0.59954   0.12282   0.24088   0.00000  Uiso   1.00
C58    C     0.60266   0.17538   0.21380   0.00000  Uiso   1.00
C59    C     0.59117   0.25165   0.15453   0.00000  Uiso   1.00
C60    C     0.70947   0.14780   0.36308   0.00000  Uiso   1.00
C61    C     0.75060   0.09444   0.35042   0.00000  Uiso   1.00
C62    C     0.81835   0.08931   0.35767   0.00000  Uiso   1.00
C63    C     0.84676   0.03692   0.34367   0.00000  Uiso   1.00
C64    C     0.65601   0.12842   0.40328   0.00000  Uiso   1.00
C65    C     0.64421   0.15187   0.45497   0.00000  Uiso   1.00
C66    C     0.59299   0.12810   0.48546   0.00000  Uiso   1.00
C67    C     0.67383   0.16306   0.30967   0.00000  Uiso   1.00
C68    C     0.67700   0.21563   0.28266   0.00000  Uiso   1.00
C69    C     0.64075   0.22103   0.23434   0.00000  Uiso   1.00
H70    H     0.60986   0.02844   0.30936   0.00000  Uiso   1.00
H71    H     0.71145   0.96124   0.30003   0.00000  Uiso   1.00
H72    H     0.53734   0.02380   0.39731   0.00000  Uiso   1.00
H73    H     0.57012   0.08755   0.22503   0.00000  Uiso   1.00
H74    H     0.84085   0.90682   0.29875   0.00000  Uiso   1.00
H75    H     0.47371   0.03874   0.50387   0.00000  Uiso   1.00
H76    H     0.54284   0.17317   0.14057   0.00000  Uiso   1.00
H77    H     0.73907   0.18328   0.37905   0.00000  Uiso   1.00
H78    H     0.84776   0.12457   0.37354   0.00000  Uiso   1.00
H79    H     0.67364   0.18713   0.47083   0.00000  Uiso   1.00
H80    H     0.70643   0.25088   0.29854   0.00000  Uiso   1.00
H81    H     0.95148   0.03939   0.35842   0.00000  Uiso   1.00
H82    H     0.58434   0.17131   0.56354   0.00000  Uiso   1.00
H83    H     0.65347   0.30574   0.20023   0.00000  Uiso   1.00
O84    O     0.96532   0.93169   0.32372   0.00000  Uiso   1.00
O85    O     0.48365   0.10476   0.59282   0.00000  Uiso   1.00
O86    O     0.57434   0.28113   0.11618   0.00000  Uiso   1.00
N87    N     0.85197   0.94608   0.31354   0.00000  Uiso   1.00
N88    N     0.50873   0.06941   0.50531   0.00000  Uiso   1.00
N89    N     0.57334   0.19510   0.16567   0.00000  Uiso   1.00
N90    N     0.91150   0.01742   0.34565   0.00000  Uiso   1.00
N91    N     0.56826   0.14074   0.53742   0.00000  Uiso   1.00
N92    N     0.63287   0.26643   0.19777   0.00000  Uiso   1.00
C93    C     0.36053   0.43609   0.32532   0.00000  Uiso   1.00
C94    C     0.28742   0.45113   0.32991   0.00000  Uiso   1.00
C95    C     0.25910   0.50351   0.31590   0.00000  Uiso   1.00
C96    C     0.19134   0.50872   0.32312   0.00000  Uiso   1.00
C97    C     0.08360   0.53902   0.32716   0.00000  Uiso   1.00
C98    C     0.38201   0.41714   0.38278   0.00000  Uiso   1.00
C99    C     0.43324   0.44095   0.41320   0.00000  Uiso   1.00
C100   C     0.44510   0.41755   0.46492   0.00000  Uiso   1.00
C101   C     0.48426   0.39505   0.55100   0.00000  Uiso   1.00
C102   C     0.36420   0.38251   0.28916   0.00000  Uiso   1.00
C103   C     0.40046   0.37718   0.24088   0.00000  Uiso   1.00
C104   C     0.39734   0.32462   0.21380   0.00000  Uiso   1.00
C105   C     0.40883   0.24835   0.15453   0.00000  Uiso   1.00
C106   C     0.29053   0.35220   0.36308   0.00000  Uiso   1.00
C107   C     0.24940   0.40556   0.35042   0.00000  Uiso   1.00
C108   C     0.18165   0.41069   0.35767   0.00000  Uiso   1.00
C109   C     0.15324   0.46308   0.34367   0.00000  Uiso   1.00
C110   C     0.34399   0.37158   0.40328   0.00000  Uiso   1.00
C111   C     0.35579   0.34813   0.45497   0.00000  Uiso   1.00
C112   C     0.40701   0.37190   0.48546   0.00000  Uiso   1.00
C113   C     0.32617   0.33694   0.30967   0.00000  Uiso   1.00
C114   C     0.32300   0.28437   0.28266   0.00000  Uiso   1.00
C115   C     0.35925   0.27897   0.23434   0.00000  Uiso   1.00
H116   H     0.39014   0.47156   0.30936   0.00000  Uiso   1.00
H117   H     0.28855   0.53876   0.30003   0.00000  Uiso   1.00
H118   H     0.46266   0.47620   0.39731   0.00000  Uiso   1.00
H119   H     0.42988   0.41245   0.22503   0.00000  Uiso   1.00
H120   H     0.15915   0.59318   0.29875   0.00000  Uiso   1.00
H121   H     0.52629   0.46126   0.50387   0.00000  Uiso   1.00
H122   H     0.45716   0.32683   0.14057   0.00000  Uiso   1.00
H123   H     0.26093   0.31672   0.37905   0.00000  Uiso   1.00
H124   H     0.15224   0.37543   0.37354   0.00000  Uiso   1.00
H125   H     0.32636   0.31287   0.47083   0.00000  Uiso   1.00
H126   H     0.29357   0.24912   0.29854   0.00000  Uiso   1.00
H127   H     0.04852   0.46061   0.35842   0.00000  Uiso   1.00
H128   H     0.41566   0.32869   0.56354   0.00000  Uiso   1.00
H129   H     0.34653   0.19426   0.20023   0.00000  Uiso   1.00
O130   O     0.03468   0.56831   0.32372   0.00000  Uiso   1.00
O131   O     0.51635   0.39524   0.59282   0.00000  Uiso   1.00
O132   O     0.42566   0.21887   0.11618   0.00000  Uiso   1.00
N133   N     0.14803   0.55392   0.31354   0.00000  Uiso   1.00
N134   N     0.49127   0.43059   0.50531   0.00000  Uiso   1.00
N135   N     0.42666   0.30490   0.16567   0.00000  Uiso   1.00
N136   N     0.08850   0.48258   0.34565   0.00000  Uiso   1.00
N137   N     0.43174   0.35926   0.53742   0.00000  Uiso   1.00
N138   N     0.36713   0.23357   0.19777   0.00000  Uiso   1.00
C139   C     0.86053   0.93609   0.82532   0.00000  Uiso   1.00
C140   C     0.78742   0.95113   0.82991   0.00000  Uiso   1.00
C141   C     0.75910   0.00351   0.81590   0.00000  Uiso   1.00
C142   C     0.69134   0.00872   0.82312   0.00000  Uiso   1.00
C143   C     0.58360   0.03902   0.82716   0.00000  Uiso   1.00
C144   C     0.88201   0.91714   0.88278   0.00000  Uiso   1.00
C145   C     0.93324   0.94095   0.91320   0.00000  Uiso   1.00
C146   C     0.94510   0.91755   0.96492   0.00000  Uiso   1.00
C147   C     0.98426   0.89505   0.05100   0.00000  Uiso   1.00
C148   C     0.86420   0.88251   0.78916   0.00000  Uiso   1.00
C149   C     0.90046   0.87718   0.74088   0.00000  Uiso   1.00
C150   C     0.89734   0.82462   0.71380   0.00000  Uiso   1.00
C151   C     0.90883   0.74835   0.65453   0.00000  Uiso   1.00
C152   C     0.79053   0.85220   0.86308   0.00000  Uiso   1.00
C153   C     0.74940   0.90556   0.85042   0.00000  Uiso   1.00
C154   C     0.68165   0.91069   0.85767   0.00000  Uiso   1.00
C155   C     0.65324   0.96308   0.84367   0.00000  Uiso   1.00
C156   C     0.84399   0.87158   0.90328   0.00000  Uiso   1.00
C157   C     0.85579   0.84813   0.95497   0.00000  Uiso   1.00
C158   C     0.90701   0.87190   0.98546   0.00000  Uiso   1.00
C159   C     0.82617   0.83694   0.80967   0.00000  Uiso   1.00
C160   C     0.82300   0.78437   0.78266   0.00000  Uiso   1.00
C161   C     0.85925   0.77897   0.73434   0.00000  Uiso   1.00
H162   H     0.89014   0.97156   0.80936   0.00000  Uiso   1.00
H163   H     0.78855   0.03876   0.80003   0.00000  Uiso   1.00
H164   H     0.96266   0.97620   0.89731   0.00000  Uiso   1.00
H165   H     0.92988   0.91245   0.72503   0.00000  Uiso   1.00
H166   H     0.65915   0.09318   0.79875   0.00000  Uiso   1.00
H167   H     0.02629   0.96126   0.00387   0.00000  Uiso   1.00
H168   H     0.95716   0.82683   0.64057   0.00000  Uiso   1.00
H169   H     0.76093   0.81672   0.87905   0.00000  Uiso   1.00
H170   H     0.65224   0.87543   0.87354   0.00000  Uiso   1.00
H171   H     0.82636   0.81287   0.97083   0.00000  Uiso   1.00
H172   H     0.79357   0.74912   0.79854   0.00000  Uiso   1.00
H173   H     0.54852   0.96061   0.85842   0.00000  Uiso   1.00
H174   H     0.91566   0.82869   0.06354   0.00000  Uiso   1.00
H175   H     0.84653   0.69426   0.70023   0.00000  Uiso   1.00
O176   O     0.53468   0.06831   0.82372   0.00000  Uiso   1.00
O177   O     0.01635   0.89524   0.09282   0.00000  Uiso   1.00
O178   O     0.92566   0.71887   0.61618   0.00000  Uiso   1.00
N179   N     0.64803   0.05392   0.81354   0.00000  Uiso   1.00
N180   N     0.99127   0.93059   0.00531   0.00000  Uiso   1.00
N181   N     0.92666   0.80490   0.66567   0.00000  Uiso   1.00
N182   N     0.58850   0.98258   0.84565   0.00000  Uiso   1.00
N183   N     0.93174   0.85926   0.03742   0.00000  Uiso   1.00
N184   N     0.86713   0.73357   0.69777   0.00000  Uiso   1.00
C185   C     0.86053   0.06391   0.67468   0.00000  Uiso   1.00
C186   C     0.78742   0.04887   0.67009   0.00000  Uiso   1.00
C187   C     0.75910   0.99649   0.68410   0.00000  Uiso   1.00
C188   C     0.69134   0.99128   0.67688   0.00000  Uiso   1.00
C189   C     0.58360   0.96098   0.67284   0.00000  Uiso   1.00
C190   C     0.88201   0.08286   0.61722   0.00000  Uiso   1.00
C191   C     0.93324   0.05905   0.58680   0.00000  Uiso   1.00
C192   C     0.94510   0.08245   0.53508   0.00000  Uiso   1.00
C193   C     0.98426   0.10495   0.44900   0.00000  Uiso   1.00
C194   C     0.86420   0.11749   0.71084   0.00000  Uiso   1.00
C195   C     0.90046   0.12282   0.75912   0.00000  Uiso   1.00
C196   C     0.89734   0.17538   0.78620   0.00000  Uiso   1.00
C197   C     0.90883   0.25165   0.84547   0.00000  Uiso   1.00
C198   C     0.79053   0.14780   0.63692   0.00000  Uiso   1.00
C199   C     0.74940   0.09444   0.64958   0.00000  Uiso   1.00
C200   C     0.68165   0.08931   0.64233   0.00000  Uiso   1.00
C201   C     0.65324   0.03692   0.65633   0.00000  Uiso   1.00
C202   C     0.84399   0.12842   0.59672   0.00000  Uiso   1.00
C203   C     0.85579   0.15187   0.54503   0.00000  Uiso   1.00
C204   C     0.90701   0.12810   0.51454   0.00000  Uiso   1.00
C205   C     0.82617   0.16306   0.69033   0.00000  Uiso   1.00
C206   C     0.82300   0.21563   0.71734   0.00000  Uiso   1.00
C207   C     0.85925   0.22103   0.76566   0.00000  Uiso   1.00
H208   H     0.89014   0.02844   0.69064   0.00000  Uiso   1.00
H209   H     0.78855   0.96124   0.69997   0.00000  Uiso   1.00
H210   H     0.96266   0.02380   0.60269   0.00000  Uiso   1.00
H211   H     0.92988   0.08755   0.77497   0.00000  Uiso   1.00
H212   H     0.65915   0.90682   0.70125   0.00000  Uiso   1.00
H213   H     0.02629   0.03874   0.49613   0.00000  Uiso   1.00
H214   H     0.95716   0.17317   0.85943   0.00000  Uiso   1.00
H215   H     0.76093   0.18328   0.62095   0.00000  Uiso   1.00
H216   H     0.65224   0.12457   0.62646   0.00000  Uiso   1.00
H217   H     0.82636   0.18713   0.52917   0.00000  Uiso   1.00
H218   H     0.79357   0.25088   0.70146   0.00000  Uiso   1.00
H219   H     0.54852   0.03939   0.64158   0.00000  Uiso   1.00
H220   H     0.91566   0.17131   0.43646   0.00000  Uiso   1.00
H221   H     0.84653   0.30574   0.79977   0.00000  Uiso   1.00
O222   O     0.53468   0.93169   0.67628   0.00000  Uiso   1.00
O223   O     0.01635   0.10476   0.40718   0.00000  Uiso   1.00
O224   O     0.92566   0.28113   0.88382   0.00000  Uiso   1.00
N225   N     0.64803   0.94608   0.68646   0.00000  Uiso   1.00
N226   N     0.99127   0.06941   0.49469   0.00000  Uiso   1.00
N227   N     0.92666   0.19510   0.83433   0.00000  Uiso   1.00
N228   N     0.58850   0.01742   0.65435   0.00000  Uiso   1.00
N229   N     0.93174   0.14074   0.46258   0.00000  Uiso   1.00
N230   N     0.86713   0.26643   0.80223   0.00000  Uiso   1.00
C231   C     0.36053   0.56391   0.17468   0.00000  Uiso   1.00
C232   C     0.28742   0.54887   0.17009   0.00000  Uiso   1.00
C233   C     0.25910   0.49649   0.18410   0.00000  Uiso   1.00
C234   C     0.19134   0.49128   0.17688   0.00000  Uiso   1.00
C235   C     0.08360   0.46098   0.17284   0.00000  Uiso   1.00
C236   C     0.38201   0.58286   0.11722   0.00000  Uiso   1.00
C237   C     0.43324   0.55905   0.08680   0.00000  Uiso   1.00
C238   C     0.44510   0.58245   0.03508   0.00000  Uiso   1.00
C239   C     0.48426   0.60495   0.94900   0.00000  Uiso   1.00
C240   C     0.36420   0.61749   0.21084   0.00000  Uiso   1.00
C241   C     0.40046   0.62282   0.25912   0.00000  Uiso   1.00
C242   C     0.39734   0.67538   0.28620   0.00000  Uiso   1.00
C243   C     0.40883   0.75165   0.34547   0.00000  Uiso   1.00
C244   C     0.29053   0.64780   0.13692   0.00000  Uiso   1.00
C245   C     0.24940   0.59444   0.14958   0.00000  Uiso   1.00
C246   C     0.18165   0.58931   0.14233   0.00000  Uiso   1.00
C247   C     0.15324   0.53692   0.15633   0.00000  Uiso   1.00
C248   C     0.34399   0.62842   0.09672   0.00000  Uiso   1.00
C249   C     0.35579   0.65187   0.04503   0.00000  Uiso   1.00
C250   C     0.40701   0.62810   0.01454   0.00000  Uiso   1.00
C251   C     0.32617   0.66306   0.19033   0.00000  Uiso   1.00
C252   C     0.32300   0.71563   0.21734   0.00000  Uiso   1.00
C253   C     0.35925   0.72103   0.26566   0.00000  Uiso   1.00
H254   H     0.39014   0.52844   0.19064   0.00000  Uiso   1.00
H255   H     0.28855   0.46124   0.19997   0.00000  Uiso   1.00
H256   H     0.46266   0.52380   0.10269   0.00000  Uiso   1.00
H257   H     0.42988   0.58755   0.27497   0.00000  Uiso   1.00
H258   H     0.15915   0.40682   0.20125   0.00000  Uiso   1.00
H259   H     0.52629   0.53874   0.99613   0.00000  Uiso   1.00
H260   H     0.45716   0.67317   0.35943   0.00000  Uiso   1.00
H261   H     0.26093   0.68328   0.12095   0.00000  Uiso   1.00
H262   H     0.15224   0.62457   0.12646   0.00000  Uiso   1.00
H263   H     0.32636   0.68713   0.02917   0.00000  Uiso   1.00
H264   H     0.29357   0.75088   0.20146   0.00000  Uiso   1.00
H265   H     0.04852   0.53939   0.14158   0.00000  Uiso   1.00
H266   H     0.41566   0.67131   0.93646   0.00000  Uiso   1.00
H267   H     0.34653   0.80574   0.29977   0.00000  Uiso   1.00
O268   O     0.03468   0.43169   0.17628   0.00000  Uiso   1.00
O269   O     0.51635   0.60476   0.90718   0.00000  Uiso   1.00
O270   O     0.42566   0.78113   0.38382   0.00000  Uiso   1.00
N271   N     0.14803   0.44608   0.18646   0.00000  Uiso   1.00
N272   N     0.49127   0.56941   0.99469   0.00000  Uiso   1.00
N273   N     0.42666   0.69510   0.33433   0.00000  Uiso   1.00
N274   N     0.08850   0.51742   0.15435   0.00000  Uiso   1.00
N275   N     0.43174   0.64074   0.96258   0.00000  Uiso   1.00
N276   N     0.36713   0.76643   0.30223   0.00000  Uiso   1.00
C277   C     0.63947   0.93609   0.17468   0.00000  Uiso   1.00
C278   C     0.71258   0.95113   0.17009   0.00000  Uiso   1.00
C279   C     0.74090   0.00351   0.18410   0.00000  Uiso   1.00
C280   C     0.80866   0.00872   0.17688   0.00000  Uiso   1.00
C281   C     0.91640   0.03902   0.17284   0.00000  Uiso   1.00
C282   C     0.61799   0.91714   0.11722   0.00000  Uiso   1.00
C283   C     0.56676   0.94095   0.08680   0.00000  Uiso   1.00
C284   C     0.55490   0.91755   0.03508   0.00000  Uiso   1.00
C285   C     0.51574   0.89505   0.94900   0.00000  Uiso   1.00
C286   C     0.63580   0.88251   0.21084   0.00000  Uiso   1.00
C287   C     0.59954   0.87718   0.25912   0.00000  Uiso   1.00
C288   C     0.60266   0.82462   0.28620   0.00000  Uiso   1.00
C289   C     0.59117   0.74835   0.34547   0.00000  Uiso   1.00
C290   C     0.70947   0.85220   0.13692   0.00000  Uiso   1.00
C291   C     0.75060   0.90556   0.14958   0.00000  Uiso   1.00
C292   C     0.81835   0.91069   0.14233   0.00000  Uiso   1.00
C293   C     0.84676   0.96308   0.15633   0.00000  Uiso   1.00
C294   C     0.65601   0.87158   0.09672   0.00000  Uiso   1.00
C295   C     0.64421   0.84813   0.04503   0.00000  Uiso   1.00
C296   C     0.59299   0.87190   0.01454   0.00000  Uiso   1.00
C297   C     0.67383   0.83694   0.19033   0.00000  Uiso   1.00
C298   C     0.67700   0.78437   0.21734   0.00000  Uiso   1.00
C299   C     0.64075   0.77897   0.26566   0.00000  Uiso   1.00
H300   H     0.60986   0.97156   0.19064   0.00000  Uiso   1.00
H301   H     0.71145   0.03876   0.19997   0.00000  Uiso   1.00
H302   H     0.53734   0.97620   0.10269   0.00000  Uiso   1.00
H303   H     0.57012   0.91245   0.27497   0.00000  Uiso   1.00
H304   H     0.84085   0.09318   0.20125   0.00000  Uiso   1.00
H305   H     0.47371   0.96126   0.99613   0.00000  Uiso   1.00
H306   H     0.54284   0.82683   0.35943   0.00000  Uiso   1.00
H307   H     0.73907   0.81672   0.12095   0.00000  Uiso   1.00
H308   H     0.84776   0.87543   0.12646   0.00000  Uiso   1.00
H309   H     0.67364   0.81287   0.02917   0.00000  Uiso   1.00
H310   H     0.70643   0.74912   0.20146   0.00000  Uiso   1.00
H311   H     0.95148   0.96061   0.14158   0.00000  Uiso   1.00
H312   H     0.58434   0.82869   0.93646   0.00000  Uiso   1.00
H313   H     0.65347   0.69426   0.29977   0.00000  Uiso   1.00
O314   O     0.96532   0.06831   0.17628   0.00000  Uiso   1.00
O315   O     0.48365   0.89524   0.90718   0.00000  Uiso   1.00
O316   O     0.57434   0.71887   0.38382   0.00000  Uiso   1.00
N317   N     0.85197   0.05392   0.18646   0.00000  Uiso   1.00
N318   N     0.50873   0.93059   0.99469   0.00000  Uiso   1.00
N319   N     0.57334   0.80490   0.33433   0.00000  Uiso   1.00
N320   N     0.91150   0.98258   0.15435   0.00000  Uiso   1.00
N321   N     0.56826   0.85926   0.96258   0.00000  Uiso   1.00
N322   N     0.63287   0.73357   0.30223   0.00000  Uiso   1.00
C323   C     0.13947   0.43609   0.67468   0.00000  Uiso   1.00
C324   C     0.21258   0.45113   0.67009   0.00000  Uiso   1.00
C325   C     0.24090   0.50351   0.68410   0.00000  Uiso   1.00
C326   C     0.30866   0.50872   0.67688   0.00000  Uiso   1.00
C327   C     0.41640   0.53902   0.67284   0.00000  Uiso   1.00
C328   C     0.11799   0.41714   0.61722   0.00000  Uiso   1.00
C329   C     0.06676   0.44095   0.58680   0.00000  Uiso   1.00
C330   C     0.05490   0.41755   0.53508   0.00000  Uiso   1.00
C331   C     0.01574   0.39505   0.44900   0.00000  Uiso   1.00
C332   C     0.13580   0.38251   0.71084   0.00000  Uiso   1.00
C333   C     0.09954   0.37718   0.75912   0.00000  Uiso   1.00
C334   C     0.10266   0.32462   0.78620   0.00000  Uiso   1.00
C335   C     0.09117   0.24835   0.84547   0.00000  Uiso   1.00
C336   C     0.20947   0.35220   0.63692   0.00000  Uiso   1.00
C337   C     0.25060   0.40556   0.64958   0.00000  Uiso   1.00
C338   C     0.31835   0.41069   0.64233   0.00000  Uiso   1.00
C339   C     0.34676   0.46308   0.65633   0.00000  Uiso   1.00
C340   C     0.15601   0.37158   0.59672   0.00000  Uiso   1.00
C341   C     0.14421   0.34813   0.54503   0.00000  Uiso   1.00
C342   C     0.09299   0.37190   0.51454   0.00000  Uiso   1.00
C343   C     0.17383   0.33694   0.69033   0.00000  Uiso   1.00
C344   C     0.17700   0.28437   0.71734   0.00000  Uiso   1.00
C345   C     0.14075   0.27897   0.76566   0.00000  Uiso   1.00
H346   H     0.10986   0.47156   0.69064   0.00000  Uiso   1.00
H347   H     0.21145   0.53876   0.69997   0.00000  Uiso   1.00
H348   H     0.03734   0.47620   0.60269   0.00000  Uiso   1.00
H349   H     0.07012   0.41245   0.77497   0.00000  Uiso   1.00
H350   H     0.34085   0.59318   0.70125   0.00000  Uiso   1.00
H351   H     0.97371   0.46126   0.49613   0.00000  Uiso   1.00
H352   H     0.04284   0.32683   0.85943   0.00000  Uiso   1.00
H353   H     0.23907   0.31672   0.62095   0.00000  Uiso   1.00
H354   H     0.34776   0.37543   0.62646   0.00000  Uiso   1.00
H355   H     0.17364   0.31287   0.52917   0.00000  Uiso   1.00
H356   H     0.20643   0.24912   0.70146   0.00000  Uiso   1.00
H357   H     0.45148   0.46061   0.64158   0.00000  Uiso   1.00
H358   H     0.08434   0.32869   0.43646   0.00000  Uiso   1.00
H359   H     0.15347   0.19426   0.79977   0.00000  Uiso   1.00
O360   O     0.46532   0.56831   0.67628   0.00000  Uiso   1.00
O361   O     0.98365   0.39524   0.40718   0.00000  Uiso   1.00
O362   O     0.07434   0.21887   0.88382   0.00000  Uiso   1.00
N363   N     0.35197   0.55392   0.68646   0.00000  Uiso   1.00
N364   N     0.00873   0.43059   0.49469   0.00000  Uiso   1.00
N365   N     0.07334   0.30490   0.83433   0.00000  Uiso   1.00
N366   N     0.41150   0.48258   0.65435   0.00000  Uiso   1.00
N367   N     0.06826   0.35926   0.46258   0.00000  Uiso   1.00
N368   N     0.13287   0.23357   0.80223   0.00000  Uiso   1.00
C369   C     0.86053   0.43609   0.17468   0.00000  Uiso   1.00
C370   C     0.78742   0.45113   0.17009   0.00000  Uiso   1.00
C371   C     0.75910   0.50351   0.18410   0.00000  Uiso   1.00
C372   C     0.69134   0.50872   0.17688   0.00000  Uiso   1.00
C373   C     0.58360   0.53902   0.17284   0.00000  Uiso   1.00
C374   C     0.88201   0.41714   0.11722   0.00000  Uiso   1.00
C375   C     0.93324   0.44095   0.08680   0.00000  Uiso   1.00
C376   C     0.94510   0.41755   0.03508   0.00000  Uiso   1.00
C377   C     0.98426   0.39505   0.94900   0.00000  Uiso   1.00
C378   C     0.86420   0.38251   0.21084   0.00000  Uiso   1.00
C379   C     0.90046   0.37718   0.25912   0.00000  Uiso   1.00
C380   C     0.89734   0.32462   0.28620   0.00000  Uiso   1.00
C381   C     0.90883   0.24835   0.34547   0.00000  Uiso   1.00
C382   C     0.79053   0.35220   0.13692   0.00000  Uiso   1.00
C383   C     0.74940   0.40556   0.14958   0.00000  Uiso   1.00
C384   C     0.68165   0.41069   0.14233   0.00000  Uiso   1.00
C385   C     0.65324   0.46308   0.15633   0.00000  Uiso   1.00
C386   C     0.84399   0.37158   0.09672   0.00000  Uiso   1.00
C387   C     0.85579   0.34813   0.04503   0.00000  Uiso   1.00
C388   C     0.90701   0.37190   0.01454   0.00000  Uiso   1.00
C389   C     0.82617   0.33694   0.19033   0.00000  Uiso   1.00
C390   C     0.82300   0.28437   0.21734   0.00000  Uiso   1.00
C391   C     0.85925   0.27897   0.26566   0.00000  Uiso   1.00
H392   H     0.89014   0.47156   0.19064   0.00000  Uiso   1.00
H393   H     0.78855   0.53876   0.19997   0.00000  Uiso   1.00
H394   H     0.96266   0.47620   0.10269   0.00000  Uiso   1.00
H395   H     0.92988   0.41245   0.27497   0.00000  Uiso   1.00
H396   H     0.65915   0.59318   0.20125   0.00000  Uiso   1.00
H397   H     0.02629   0.46126   0.99613   0.00000  Uiso   1.00
H398   H     0.95716   0.32683   0.35943   0.00000  Uiso   1.00
H399   H     0.76093   0.31672   0.12095   0.00000  Uiso   1.00
H400   H     0.65224   0.37543   0.12646   0.00000  Uiso   1.00
H401   H     0.82636   0.31287   0.02917   0.00000  Uiso   1.00
H402   H     0.79357   0.24912   0.20146   0.00000  Uiso   1.00
H403   H     0.54852   0.46061   0.14158   0.00000  Uiso   1.00
H404   H     0.91566   0.32869   0.93646   0.00000  Uiso   1.00
H405   H     0.84653   0.19426   0.29977   0.00000  Uiso   1.00
O406   O     0.53468   0.56831   0.17628   0.00000  Uiso   1.00
O407   O     0.01635   0.39524   0.90718   0.00000  Uiso   1.00
O408   O     0.92566   0.21887   0.38382   0.00000  Uiso   1.00
N409   N     0.64803   0.55392   0.18646   0.00000  Uiso   1.00
N410   N     0.99127   0.43059   0.99469   0.00000  Uiso   1.00
N411   N     0.92666   0.30490   0.33433   0.00000  Uiso   1.00
N412   N     0.58850   0.48258   0.15435   0.00000  Uiso   1.00
N413   N     0.93174   0.35926   0.96258   0.00000  Uiso   1.00
N414   N     0.86713   0.23357   0.30223   0.00000  Uiso   1.00
C415   C     0.36053   0.93609   0.67468   0.00000  Uiso   1.00
C416   C     0.28742   0.95113   0.67009   0.00000  Uiso   1.00
C417   C     0.25910   0.00351   0.68410   0.00000  Uiso   1.00
C418   C     0.19134   0.00872   0.67688   0.00000  Uiso   1.00
C419   C     0.08360   0.03902   0.67284   0.00000  Uiso   1.00
C420   C     0.38201   0.91714   0.61722   0.00000  Uiso   1.00
C421   C     0.43324   0.94095   0.58680   0.00000  Uiso   1.00
C422   C     0.44510   0.91755   0.53508   0.00000  Uiso   1.00
C423   C     0.48426   0.89505   0.44900   0.00000  Uiso   1.00
C424   C     0.36420   0.88251   0.71084   0.00000  Uiso   1.00
C425   C     0.40046   0.87718   0.75912   0.00000  Uiso   1.00
C426   C     0.39734   0.82462   0.78620   0.00000  Uiso   1.00
C427   C     0.40883   0.74835   0.84547   0.00000  Uiso   1.00
C428   C     0.29053   0.85220   0.63692   0.00000  Uiso   1.00
C429   C     0.24940   0.90556   0.64958   0.00000  Uiso   1.00
C430   C     0.18165   0.91069   0.64233   0.00000  Uiso   1.00
C431   C     0.15324   0.96308   0.65633   0.00000  Uiso   1.00
C432   C     0.34399   0.87158   0.59672   0.00000  Uiso   1.00
C433   C     0.35579   0.84813   0.54503   0.00000  Uiso   1.00
C434   C     0.40701   0.87190   0.51454   0.00000  Uiso   1.00
C435   C     0.32617   0.83694   0.69033   0.00000  Uiso   1.00
C436   C     0.32300   0.78437   0.71734   0.00000  Uiso   1.00
C437   C     0.35925   0.77897   0.76566   0.00000  Uiso   1.00
H438   H     0.39014   0.97156   0.69064   0.00000  Uiso   1.00
H439   H     0.28855   0.03876   0.69997   0.00000  Uiso   1.00
H440   H     0.46266   0.97620   0.60269   0.00000  Uiso   1.00
H441   H     0.42988   0.91245   0.77497   0.00000  Uiso   1.00
H442   H     0.15915   0.09318   0.70125   0.00000  Uiso   1.00
H443   H     0.52629   0.96126   0.49613   0.00000  Uiso   1.00
H444   H     0.45716   0.82683   0.85943   0.00000  Uiso   1.00
H445   H     0.26093   0.81672   0.62095   0.00000  Uiso   1.00
H446   H     0.15224   0.87543   0.62646   0.00000  Uiso   1.00
H447   H     0.32636   0.81287   0.52917   0.00000  Uiso   1.00
H448   H     0.29357   0.74912   0.70146   0.00000  Uiso   1.00
H449   H     0.04852   0.96061   0.64158   0.00000  Uiso   1.00
H450   H     0.41566   0.82869   0.43646   0.00000  Uiso   1.00
H451   H     0.34653   0.69426   0.79977   0.00000  Uiso   1.00
O452   O     0.03468   0.06831   0.67628   0.00000  Uiso   1.00
O453   O     0.51635   0.89524   0.40718   0.00000  Uiso   1.00
O454   O     0.42566   0.71887   0.88382   0.00000  Uiso   1.00
N455   N     0.14803   0.05392   0.68646   0.00000  Uiso   1.00
N456   N     0.49127   0.93059   0.49469   0.00000  Uiso   1.00
N457   N     0.42666   0.80490   0.83433   0.00000  Uiso   1.00
N458   N     0.08850   0.98258   0.65435   0.00000  Uiso   1.00
N459   N     0.43174   0.85926   0.46258   0.00000  Uiso   1.00
N460   N     0.36713   0.73357   0.80223   0.00000  Uiso   1.00
C461   C     0.63947   0.56391   0.67468   0.00000  Uiso   1.00
C462   C     0.71258   0.54887   0.67009   0.00000  Uiso   1.00
C463   C     0.74090   0.49649   0.68410   0.00000  Uiso   1.00
C464   C     0.80866   0.49128   0.67688   0.00000  Uiso   1.00
C465   C     0.91640   0.46098   0.67284   0.00000  Uiso   1.00
C466   C     0.61799   0.58286   0.61722   0.00000  Uiso   1.00
C467   C     0.56676   0.55905   0.58680   0.00000  Uiso   1.00
C468   C     0.55490   0.58245   0.53508   0.00000  Uiso   1.00
C469   C     0.51574   0.60495   0.44900   0.00000  Uiso   1.00
C470   C     0.63580   0.61749   0.71084   0.00000  Uiso   1.00
C471   C     0.59954   0.62282   0.75912   0.00000  Uiso   1.00
C472   C     0.60266   0.67538   0.78620   0.00000  Uiso   1.00
C473   C     0.59117   0.75165   0.84547   0.00000  Uiso   1.00
C474   C     0.70947   0.64780   0.63692   0.00000  Uiso   1.00
C475   C     0.75060   0.59444   0.64958   0.00000  Uiso   1.00
C476   C     0.81835   0.58931   0.64233   0.00000  Uiso   1.00
C477   C     0.84676   0.53692   0.65633   0.00000  Uiso   1.00
C478   C     0.65601   0.62842   0.59672   0.00000  Uiso   1.00
C479   C     0.64421   0.65187   0.54503   0.00000  Uiso   1.00
C480   C     0.59299   0.62810   0.51454   0.00000  Uiso   1.00
C481   C     0.67383   0.66306   0.69033   0.00000  Uiso   1.00
C482   C     0.67700   0.71563   0.71734   0.00000  Uiso   1.00
C483   C     0.64075   0.72103   0.76566   0.00000  Uiso   1.00
H484   H     0.60986   0.52844   0.69064   0.00000  Uiso   1.00
H485   H     0.71145   0.46124   0.69997   0.00000  Uiso   1.00
H486   H     0.53734   0.52380   0.60269   0.00000  Uiso   1.00
H487   H     0.57012   0.58755   0.77497   0.00000  Uiso   1.00
H488   H     0.84085   0.40682   0.70125   0.00000  Uiso   1.00
H489   H     0.47371   0.53874   0.49613   0.00000  Uiso   1.00
H490   H     0.54284   0.67317   0.85943   0.00000  Uiso   1.00
H491   H     0.73907   0.68328   0.62095   0.00000  Uiso   1.00
H492   H     0.84776   0.62457   0.62646   0.00000  Uiso   1.00
H493   H     0.67364   0.68713   0.52917   0.00000  Uiso   1.00
H494   H     0.70643   0.75088   0.70146   0.00000  Uiso   1.00
H495   H     0.95148   0.53939   0.64158   0.00000  Uiso   1.00
H496   H     0.58434   0.67131   0.43646   0.00000  Uiso   1.00
H497   H     0.65347   0.80574   0.79977   0.00000  Uiso   1.00
O498   O     0.96532   0.43169   0.67628   0.00000  Uiso   1.00
O499   O     0.48365   0.60476   0.40718   0.00000  Uiso   1.00
O500   O     0.57434   0.78113   0.88382   0.00000  Uiso   1.00
N501   N     0.85197   0.44608   0.68646   0.00000  Uiso   1.00
N502   N     0.50873   0.56941   0.49469   0.00000  Uiso   1.00
N503   N     0.57334   0.69510   0.83433   0.00000  Uiso   1.00
N504   N     0.91150   0.51742   0.65435   0.00000  Uiso   1.00
N505   N     0.56826   0.64074   0.46258   0.00000  Uiso   1.00
N506   N     0.63287   0.76643   0.80223   0.00000  Uiso   1.00
C507   C     0.13947   0.06391   0.17468   0.00000  Uiso   1.00
C508   C     0.21258   0.04887   0.17009   0.00000  Uiso   1.00
C509   C     0.24090   0.99649   0.18410   0.00000  Uiso   1.00
C510   C     0.30866   0.99128   0.17688   0.00000  Uiso   1.00
C511   C     0.41640   0.96098   0.17284   0.00000  Uiso   1.00
C512   C     0.11799   0.08286   0.11722   0.00000  Uiso   1.00
C513   C     0.06676   0.05905   0.08680   0.00000  Uiso   1.00
C514   C     0.05490   0.08245   0.03508   0.00000  Uiso   1.00
C515   C     0.01574   0.10495   0.94900   0.00000  Uiso   1.00
C516   C     0.13580   0.11749   0.21084   0.00000  Uiso   1.00
C517   C     0.09954   0.12282   0.25912   0.00000  Uiso   1.00
C518   C     0.10266   0.17538   0.28620   0.00000  Uiso   1.00
C519   C     0.09117   0.25165   0.34547   0.00000  Uiso   1.00
C520   C     0.20947   0.14780   0.13692   0.00000  Uiso   1.00
C521   C     0.25060   0.09444   0.14958   0.00000  Uiso   1.00
C522   C     0.31835   0.08931   0.14233   0.00000  Uiso   1.00
C523   C     0.34676   0.03692   0.15633   0.00000  Uiso   1.00
C524   C     0.15601   0.12842   0.09672   0.00000  Uiso   1.00
C525   C     0.14421   0.15187   0.04503   0.00000  Uiso   1.00
C526   C     0.09299   0.12810   0.01454   0.00000  Uiso   1.00
C527   C     0.17383   0.16306   0.19033   0.00000  Uiso   1.00
C528   C     0.17700   0.21563   0.21734   0.00000  Uiso   1.00
C529   C     0.14075   0.22103   0.26566   0.00000  Uiso   1.00
H530   H     0.10986   0.02844   0.19064   0.00000  Uiso   1.00
H531   H     0.21145   0.96124   0.19997   0.00000  Uiso   1.00
H532   H     0.03734   0.02380   0.10269   0.00000  Uiso   1.00
H533   H     0.07012   0.08755   0.27497   0.00000  Uiso   1.00
H534   H     0.34085   0.90682   0.20125   0.00000  Uiso   1.00
H535   H     0.97371   0.03874   0.99613   0.00000  Uiso   1.00
H536   H     0.04284   0.17317   0.35943   0.00000  Uiso   1.00
H537   H     0.23907   0.18328   0.12095   0.00000  Uiso   1.00
H538   H     0.34776   0.12457   0.12646   0.00000  Uiso   1.00
H539   H     0.17364   0.18713   0.02917   0.00000  Uiso   1.00
H540   H     0.20643   0.25088   0.20146   0.00000  Uiso   1.00
H541   H     0.45148   0.03939   0.14158   0.00000  Uiso   1.00
H542   H     0.08434   0.17131   0.93646   0.00000  Uiso   1.00
H543   H     0.15347   0.30574   0.29977   0.00000  Uiso   1.00
O544   O     0.46532   0.93169   0.17628   0.00000  Uiso   1.00
O545   O     0.98365   0.10476   0.90718   0.00000  Uiso   1.00
O546   O     0.07434   0.28113   0.38382   0.00000  Uiso   1.00
N547   N     0.35197   0.94608   0.18646   0.00000  Uiso   1.00
N548   N     0.00873   0.06941   0.99469   0.00000  Uiso   1.00
N549   N     0.07334   0.19510   0.33433   0.00000  Uiso   1.00
N550   N     0.41150   0.01742   0.15435   0.00000  Uiso   1.00
N551   N     0.06826   0.14074   0.96258   0.00000  Uiso   1.00
N552   N     0.13287   0.26643   0.30223   0.00000  Uiso   1.00
C553   C     0.13947   0.93609   0.32532   0.00000  Uiso   1.00
C554   C     0.21258   0.95113   0.32991   0.00000  Uiso   1.00
C555   C     0.24090   0.00351   0.31590   0.00000  Uiso   1.00
C556   C     0.30866   0.00872   0.32312   0.00000  Uiso   1.00
C557   C     0.41640   0.03902   0.32716   0.00000  Uiso   1.00
C558   C     0.11799   0.91714   0.38278   0.00000  Uiso   1.00
C559   C     0.06676   0.94095   0.41320   0.00000  Uiso   1.00
C560   C     0.05490   0.91755   0.46492   0.00000  Uiso   1.00
C561   C     0.01574   0.89505   0.55100   0.00000  Uiso   1.00
C562   C     0.13580   0.88251   0.28916   0.00000  Uiso   1.00
C563   C     0.09954   0.87718   0.24088   0.00000  Uiso   1.00
C564   C     0.10266   0.82462   0.21380   0.00000  Uiso   1.00
C565   C     0.09117   0.74835   0.15453   0.00000  Uiso   1.00
C566   C     0.20947   0.85220   0.36308   0.00000  Uiso   1.00
C567   C     0.25060   0.90556   0.35042   0.00000  Uiso   1.00
C568   C     0.31835   0.91069   0.35767   0.00000  Uiso   1.00
C569   C     0.34676   0.96308   0.34367   0.00000  Uiso   1.00
C570   C     0.15601   0.87158   0.40328   0.00000  Uiso   1.00
C571   C     0.14421   0.84813   0.45497   0.00000  Uiso   1.00
C572   C     0.09299   0.87190   0.48546   0.00000  Uiso   1.00
C573   C     0.17383   0.83694   0.30967   0.00000  Uiso   1.00
C574   C     0.17700   0.78437   0.28266   0.00000  Uiso   1.00
C575   C     0.14075   0.77897   0.23434   0.00000  Uiso   1.00
H576   H     0.10986   0.97156   0.30936   0.00000  Uiso   1.00
H577   H     0.21145   0.03876   0.30003   0.00000  Uiso   1.00
H578   H     0.03734   0.97620   0.39731   0.00000  Uiso   1.00
H579   H     0.07012   0.91245   0.22503   0.00000  Uiso   1.00
H580   H     0.34085   0.09318   0.29875   0.00000  Uiso   1.00
H581   H     0.97371   0.96126   0.50387   0.00000  Uiso   1.00
H582   H     0.04284   0.82683   0.14057   0.00000  Uiso   1.00
H583   H     0.23907   0.81672   0.37905   0.00000  Uiso   1.00
H584   H     0.34776   0.87543   0.37354   0.00000  Uiso   1.00
H585   H     0.17364   0.81287   0.47083   0.00000  Uiso   1.00
H586   H     0.20643   0.74912   0.29854   0.00000  Uiso   1.00
H587   H     0.45148   0.96061   0.35842   0.00000  Uiso   1.00
H588   H     0.08434   0.82869   0.56354   0.00000  Uiso   1.00
H589   H     0.15347   0.69426   0.20023   0.00000  Uiso   1.00
O590   O     0.46532   0.06831   0.32372   0.00000  Uiso   1.00
O591   O     0.98365   0.89524   0.59282   0.00000  Uiso   1.00
O592   O     0.07434   0.71887   0.11618   0.00000  Uiso   1.00
N593   N     0.35197   0.05392   0.31354   0.00000  Uiso   1.00
N594   N     0.00873   0.93059   0.50531   0.00000  Uiso   1.00
N595   N     0.07334   0.80490   0.16567   0.00000  Uiso   1.00
N596   N     0.41150   0.98258   0.34565   0.00000  Uiso   1.00
N597   N     0.06826   0.85926   0.53742   0.00000  Uiso   1.00
N598   N     0.13287   0.73357   0.19777   0.00000  Uiso   1.00
C599   C     0.63947   0.43609   0.82532   0.00000  Uiso   1.00
C600   C     0.71258   0.45113   0.82991   0.00000  Uiso   1.00
C601   C     0.74090   0.50351   0.81590   0.00000  Uiso   1.00
C602   C     0.80866   0.50872   0.82312   0.00000  Uiso   1.00
C603   C     0.91640   0.53902   0.82716   0.00000  Uiso   1.00
C604   C     0.61799   0.41714   0.88278   0.00000  Uiso   1.00
C605   C     0.56676   0.44095   0.91320   0.00000  Uiso   1.00
C606   C     0.55490   0.41755   0.96492   0.00000  Uiso   1.00
C607   C     0.51574   0.39505   0.05100   0.00000  Uiso   1.00
C608   C     0.63580   0.38251   0.78916   0.00000  Uiso   1.00
C609   C     0.59954   0.37718   0.74088   0.00000  Uiso   1.00
C610   C     0.60266   0.32462   0.71380   0.00000  Uiso   1.00
C611   C     0.59117   0.24835   0.65453   0.00000  Uiso   1.00
C612   C     0.70947   0.35220   0.86308   0.00000  Uiso   1.00
C613   C     0.75060   0.40556   0.85042   0.00000  Uiso   1.00
C614   C     0.81835   0.41069   0.85767   0.00000  Uiso   1.00
C615   C     0.84676   0.46308   0.84367   0.00000  Uiso   1.00
C616   C     0.65601   0.37158   0.90328   0.00000  Uiso   1.00
C617   C     0.64421   0.34813   0.95497   0.00000  Uiso   1.00
C618   C     0.59299   0.37190   0.98546   0.00000  Uiso   1.00
C619   C     0.67383   0.33694   0.80967   0.00000  Uiso   1.00
C620   C     0.67700   0.28437   0.78266   0.00000  Uiso   1.00
C621   C     0.64075   0.27897   0.73434   0.00000  Uiso   1.00
H622   H     0.60986   0.47156   0.80936   0.00000  Uiso   1.00
H623   H     0.71145   0.53876   0.80003   0.00000  Uiso   1.00
H624   H     0.53734   0.47620   0.89731   0.00000  Uiso   1.00
H625   H     0.57012   0.41245   0.72503   0.00000  Uiso   1.00
H626   H     0.84085   0.59318   0.79875   0.00000  Uiso   1.00
H627   H     0.47371   0.46126   0.00387   0.00000  Uiso   1.00
H628   H     0.54284   0.32683   0.64057   0.00000  Uiso   1.00
H629   H     0.73907   0.31672   0.87905   0.00000  Uiso   1.00
H630   H     0.84776   0.37543   0.87354   0.00000  Uiso   1.00
H631   H     0.67364   0.31287   0.97083   0.00000  Uiso   1.00
H632   H     0.70643   0.24912   0.79854   0.00000  Uiso   1.00
H633   H     0.95148   0.46061   0.85842   0.00000  Uiso   1.00
H634   H     0.58434   0.32869   0.06354   0.00000  Uiso   1.00
H635   H     0.65347   0.19426   0.70023   0.00000  Uiso   1.00
O636   O     0.96532   0.56831   0.82372   0.00000  Uiso   1.00
O637   O     0.48365   0.39524   0.09282   0.00000  Uiso   1.00
O638   O     0.57434   0.21887   0.61618   0.00000  Uiso   1.00
N639   N     0.85197   0.55392   0.81354   0.00000  Uiso   1.00
N640   N     0.50873   0.43059   0.00531   0.00000  Uiso   1.00
N641   N     0.57334   0.30490   0.66567   0.00000  Uiso   1.00
N642   N     0.91150   0.48258   0.84565   0.00000  Uiso   1.00
N643   N     0.56826   0.35926   0.03742   0.00000  Uiso   1.00
N644   N     0.63287   0.23357   0.69777   0.00000  Uiso   1.00
C645   C     0.36053   0.06391   0.82532   0.00000  Uiso   1.00
C646   C     0.28742   0.04887   0.82991   0.00000  Uiso   1.00
C647   C     0.25910   0.99649   0.81590   0.00000  Uiso   1.00
C648   C     0.19134   0.99128   0.82312   0.00000  Uiso   1.00
C649   C     0.08360   0.96098   0.82716   0.00000  Uiso   1.00
C650   C     0.38201   0.08286   0.88278   0.00000  Uiso   1.00
C651   C     0.43324   0.05905   0.91320   0.00000  Uiso   1.00
C652   C     0.44510   0.08245   0.96492   0.00000  Uiso   1.00
C653   C     0.48426   0.10495   0.05100   0.00000  Uiso   1.00
C654   C     0.36420   0.11749   0.78916   0.00000  Uiso   1.00
C655   C     0.40046   0.12282   0.74088   0.00000  Uiso   1.00
C656   C     0.39734   0.17538   0.71380   0.00000  Uiso   1.00
C657   C     0.40883   0.25165   0.65453   0.00000  Uiso   1.00
C658   C     0.29053   0.14780   0.86308   0.00000  Uiso   1.00
C659   C     0.24940   0.09444   0.85042   0.00000  Uiso   1.00
C660   C     0.18165   0.08931   0.85767   0.00000  Uiso   1.00
C661   C     0.15324   0.03692   0.84367   0.00000  Uiso   1.00
C662   C     0.34399   0.12842   0.90328   0.00000  Uiso   1.00
C663   C     0.35579   0.15187   0.95497   0.00000  Uiso   1.00
C664   C     0.40701   0.12810   0.98546   0.00000  Uiso   1.00
C665   C     0.32617   0.16306   0.80967   0.00000  Uiso   1.00
C666   C     0.32300   0.21563   0.78266   0.00000  Uiso   1.00
C667   C     0.35925   0.22103   0.73434   0.00000  Uiso   1.00
H668   H     0.39014   0.02844   0.80936   0.00000  Uiso   1.00
H669   H     0.28855   0.96124   0.80003   0.00000  Uiso   1.00
H670   H     0.46266   0.02380   0.89731   0.00000  Uiso   1.00
H671   H     0.42988   0.08755   0.72503   0.00000  Uiso   1.00
H672   H     0.15915   0.90682   0.79875   0.00000  Uiso   1.00
H673   H     0.52629   0.03874   0.00387   0.00000  Uiso   1.00
H674   H     0.45716   0.17317   0.64057   0.00000  Uiso   1.00
H675   H     0.26093   0.18328   0.87905   0.00000  Uiso   1.00
H676   H     0.15224   0.12457   0.87354   0.00000  Uiso   1.00
H677   H     0.32636   0.18713   0.97083   0.00000  Uiso   1.00
H678   H     0.29357   0.25088   0.79854   0.00000  Uiso   1.00
H679   H     0.04852   0.03939   0.85842   0.00000  Uiso   1.00
H680   H     0.41566   0.17131   0.06354   0.00000  Uiso   1.00
H681   H     0.34653   0.30574   0.70023   0.00000  Uiso   1.00
O682   O     0.03468   0.93169   0.82372   0.00000  Uiso   1.00
O683   O     0.51635   0.10476   0.09282   0.00000  Uiso   1.00
O684   O     0.42566   0.28113   0.61618   0.00000  Uiso   1.00
N685   N     0.14803   0.94608   0.81354   0.00000  Uiso   1.00
N686   N     0.49127   0.06941   0.00531   0.00000  Uiso   1.00
N687   N     0.42666   0.19510   0.66567   0.00000  Uiso   1.00
N688   N     0.08850   0.01742   0.84565   0.00000  Uiso   1.00
N689   N     0.43174   0.14074   0.03742   0.00000  Uiso   1.00
N690   N     0.36713   0.26643   0.69777   0.00000  Uiso   1.00
C691   C     0.86053   0.56391   0.32532   0.00000  Uiso   1.00
C692   C     0.78742   0.54887   0.32991   0.00000  Uiso   1.00
C693   C     0.75910   0.49649   0.31590   0.00000  Uiso   1.00
C694   C     0.69134   0.49128   0.32312   0.00000  Uiso   1.00
C695   C     0.58360   0.46098   0.32716   0.00000  Uiso   1.00
C696   C     0.88201   0.58286   0.38278   0.00000  Uiso   1.00
C697   C     0.93324   0.55905   0.41320   0.00000  Uiso   1.00
C698   C     0.94510   0.58245   0.46492   0.00000  Uiso   1.00
C699   C     0.98426   0.60495   0.55100   0.00000  Uiso   1.00
C700   C     0.86420   0.61749   0.28916   0.00000  Uiso   1.00
C701   C     0.90046   0.62282   0.24088   0.00000  Uiso   1.00
C702   C     0.89734   0.67538   0.21380   0.00000  Uiso   1.00
C703   C     0.90883   0.75165   0.15453   0.00000  Uiso   1.00
C704   C     0.79053   0.64780   0.36308   0.00000  Uiso   1.00
C705   C     0.74940   0.59444   0.35042   0.00000  Uiso   1.00
C706   C     0.68165   0.58931   0.35767   0.00000  Uiso   1.00
C707   C     0.65324   0.53692   0.34367   0.00000  Uiso   1.00
C708   C     0.84399   0.62842   0.40328   0.00000  Uiso   1.00
C709   C     0.85579   0.65187   0.45497   0.00000  Uiso   1.00
C710   C     0.90701   0.62810   0.48546   0.00000  Uiso   1.00
C711   C     0.82617   0.66306   0.30967   0.00000  Uiso   1.00
C712   C     0.82300   0.71563   0.28266   0.00000  Uiso   1.00
C713   C     0.85925   0.72103   0.23434   0.00000  Uiso   1.00
H714   H     0.89014   0.52844   0.30936   0.00000  Uiso   1.00
H715   H     0.78855   0.46124   0.30003   0.00000  Uiso   1.00
H716   H     0.96266   0.52380   0.39731   0.00000  Uiso   1.00
H717   H     0.92988   0.58755   0.22503   0.00000  Uiso   1.00
H718   H     0.65915   0.40682   0.29875   0.00000  Uiso   1.00
H719   H     0.02629   0.53874   0.50387   0.00000  Uiso   1.00
H720   H     0.95716   0.67317   0.14057   0.00000  Uiso   1.00
H721   H     0.76093   0.68328   0.37905   0.00000  Uiso   1.00
H722   H     0.65224   0.62457   0.37354   0.00000  Uiso   1.00
H723   H     0.82636   0.68713   0.47083   0.00000  Uiso   1.00
H724   H     0.79357   0.75088   0.29854   0.00000  Uiso   1.00
H725   H     0.54852   0.53939   0.35842   0.00000  Uiso   1.00
H726   H     0.91566   0.67131   0.56354   0.00000  Uiso   1.00
H727   H     0.84653   0.80574   0.20023   0.00000  Uiso   1.00
O728   O     0.53468   0.43169   0.32372   0.00000  Uiso   1.00
O729   O     0.01635   0.60476   0.59282   0.00000  Uiso   1.00
O730   O     0.92566   0.78113   0.11618   0.00000  Uiso   1.00
N731   N     0.64803   0.44608   0.31354   0.00000  Uiso   1.00
N732   N     0.99127   0.56941   0.50531   0.00000  Uiso   1.00
N733   N     0.92666   0.69510   0.16567   0.00000  Uiso   1.00
N734   N     0.58850   0.51742   0.34565   0.00000  Uiso   1.00
N735   N     0.93174   0.64074   0.53742   0.00000  Uiso   1.00
N736   N     0.86713   0.76643   0.19777   0.00000  Uiso   1.00
