data_job_01220
_audit_creation_date              2018-12-19
_audit_creation_method            'Materials Studio'
_symmetry_space_group_name_H-M    'P1'
_symmetry_Int_Tables_number       1
_symmetry_cell_setting            triclinic
loop_
_symmetry_equiv_pos_as_xyz
  x,y,z
_cell_length_a                    32.4655
_cell_length_b                    30.2257
_cell_length_c                    9.4013
_cell_angle_alpha                 90.0000
_cell_angle_beta                  90.0000
_cell_angle_gamma                 90.0000
loop_
_atom_site_label
_atom_site_type_symbol
_atom_site_fract_x
_atom_site_fract_y
_atom_site_fract_z
_atom_site_U_iso_or_equiv
_atom_site_adp_type
_atom_site_occupancy
C1     C     0.63665   0.84707   0.23684   0.00000  Uiso   1.00
C2     C     0.65969   0.87754   0.13492   0.00000  Uiso   1.00
C3     C     0.65722   0.87641   0.98760   0.00000  Uiso   1.00
C4     C     0.68072   0.90707   0.91335   0.00000  Uiso   1.00
C5     C     0.71270   0.94969   0.74434   0.00000  Uiso   1.00
C6     C     0.66950   0.82508   0.32873   0.00000  Uiso   1.00
C7     C     0.67527   0.77985   0.34437   0.00000  Uiso   1.00
C8     C     0.70702   0.76634   0.43328   0.00000  Uiso   1.00
C9     C     0.75421   0.72752   0.56524   0.00000  Uiso   1.00
C10    C     0.61236   0.87728   0.33604   0.00000  Uiso   1.00
C11    C     0.57010   0.87594   0.35787   0.00000  Uiso   1.00
C12    C     0.55375   0.90638   0.45297   0.00000  Uiso   1.00
C13    C     0.51223   0.94862   0.59628   0.00000  Uiso   1.00
C14    C     0.68275   0.90352   0.36696   0.00000  Uiso   1.00
C15    C     0.68473   0.90820   0.20560   0.00000  Uiso   1.00
C16    C     0.70823   0.93886   0.13156   0.00000  Uiso   1.00
C17    C     0.70580   0.93778   0.98415   0.00000  Uiso   1.00
C18    C     0.69454   0.85574   0.39940   0.00000  Uiso   1.00
C19    C     0.72628   0.84230   0.48832   0.00000  Uiso   1.00
C20    C     0.73211   0.79705   0.50408   0.00000  Uiso   1.00
C21    C     0.63740   0.90794   0.40672   0.00000  Uiso   1.00
C22    C     0.62111   0.93839   0.50181   0.00000  Uiso   1.00
C23    C     0.57884   0.93709   0.52377   0.00000  Uiso   1.00
H24    H     0.61715   0.82320   0.18183   0.00000  Uiso   1.00
H25    H     0.63784   0.85268   0.93295   0.00000  Uiso   1.00
H26    H     0.65589   0.75613   0.28967   0.00000  Uiso   1.00
H27    H     0.55073   0.85221   0.30316   0.00000  Uiso   1.00
H28    H     0.67184   0.89887   0.68818   0.00000  Uiso   1.00
H29    H     0.70988   0.69528   0.44039   0.00000  Uiso   1.00
H30    H     0.48814   0.89789   0.46884   0.00000  Uiso   1.00
H31    H     0.70225   0.92739   0.42199   0.00000  Uiso   1.00
H32    H     0.72761   0.96258   0.18628   0.00000  Uiso   1.00
H33    H     0.74565   0.86603   0.54300   0.00000  Uiso   1.00
H34    H     0.64050   0.96211   0.55649   0.00000  Uiso   1.00
H35    H     0.74470   0.98807   0.89379   0.00000  Uiso   1.00
H36    H     0.78273   0.78448   0.64601   0.00000  Uiso   1.00
H37    H     0.56100   0.98709   0.67445   0.00000  Uiso   1.00
O38    O     0.72342   0.96473   0.63160   0.00000  Uiso   1.00
O39    O     0.77332   0.69764   0.61848   0.00000  Uiso   1.00
O40    O     0.48241   0.96345   0.65579   0.00000  Uiso   1.00
N41    N     0.68550   0.91504   0.76892   0.00000  Uiso   1.00
N42    N     0.72107   0.72470   0.47217   0.00000  Uiso   1.00
N43    N     0.51376   0.91411   0.49880   0.00000  Uiso   1.00
N44    N     0.72470   0.96304   0.87956   0.00000  Uiso   1.00
N45    N     0.76027   0.77270   0.58281   0.00000  Uiso   1.00
N46    N     0.55297   0.96211   0.60943   0.00000  Uiso   1.00
C47    C     0.93994   0.84876   0.69370   0.00000  Uiso   1.00
C48    C     0.91384   0.87709   0.79318   0.00000  Uiso   1.00
C49    C     0.91334   0.87426   0.94050   0.00000  Uiso   1.00
C50    C     0.88735   0.90309   0.01232   0.00000  Uiso   1.00
C51    C     0.85055   0.94241   0.17789   0.00000  Uiso   1.00
C52    C     0.90982   0.82670   0.59140   0.00000  Uiso   1.00
C53    C     0.90595   0.78150   0.56906   0.00000  Uiso   1.00
C54    C     0.87658   0.76792   0.47100   0.00000  Uiso   1.00
C55    C     0.83357   0.72901   0.32323   0.00000  Uiso   1.00
C56    C     0.96511   0.88104   0.60438   0.00000  Uiso   1.00
C57    C     0.00773   0.88153   0.59291   0.00000  Uiso   1.00
C58    C     0.02491   0.91370   0.50575   0.00000  Uiso   1.00
C59    C     0.06774   0.95917   0.37813   0.00000  Uiso   1.00
C60    C     0.89466   0.90500   0.55926   0.00000  Uiso   1.00
C61    C     0.88925   0.90763   0.72015   0.00000  Uiso   1.00
C62    C     0.86325   0.93648   0.79176   0.00000  Uiso   1.00
C63    C     0.86271   0.93370   0.93917   0.00000  Uiso   1.00
C64    C     0.88523   0.85724   0.51838   0.00000  Uiso   1.00
C65    C     0.85586   0.84372   0.42032   0.00000  Uiso   1.00
C66    C     0.85195   0.79852   0.39784   0.00000  Uiso   1.00
C67    C     0.94052   0.91159   0.53136   0.00000  Uiso   1.00
C68    C     0.95764   0.94376   0.44418   0.00000  Uiso   1.00
C69    C     0.00027   0.94430   0.43259   0.00000  Uiso   1.00
H70    H     0.95908   0.82498   0.75054   0.00000  Uiso   1.00
H71    H     0.93237   0.85061   0.99698   0.00000  Uiso   1.00
H72    H     0.92499   0.75787   0.62558   0.00000  Uiso   1.00
H73    H     0.02675   0.85789   0.64944   0.00000  Uiso   1.00
H74    H     0.89191   0.89249   0.23798   0.00000  Uiso   1.00
H75    H     0.87635   0.69694   0.45484   0.00000  Uiso   1.00
H76    H     0.09093   0.90785   0.50514   0.00000  Uiso   1.00
H77    H     0.87552   0.92879   0.50240   0.00000  Uiso   1.00
H78    H     0.84422   0.96012   0.73522   0.00000  Uiso   1.00
H79    H     0.83684   0.86737   0.36383   0.00000  Uiso   1.00
H80    H     0.93860   0.96739   0.38769   0.00000  Uiso   1.00
H81    H     0.82036   0.98137   0.02554   0.00000  Uiso   1.00
H82    H     0.80480   0.78582   0.24239   0.00000  Uiso   1.00
H83    H     0.01938   0.99673   0.29270   0.00000  Uiso   1.00
O84    O     0.83705   0.95566   0.28939   0.00000  Uiso   1.00
O85    O     0.81664   0.69910   0.26192   0.00000  Uiso   1.00
O86    O     0.09816   0.97581   0.32793   0.00000  Uiso   1.00
N87    N     0.87937   0.90911   0.15604   0.00000  Uiso   1.00
N88    N     0.86482   0.72628   0.42386   0.00000  Uiso   1.00
N89    N     0.06543   0.92346   0.47086   0.00000  Uiso   1.00
N90    N     0.84087   0.95694   0.04172   0.00000  Uiso   1.00
N91    N     0.82632   0.77411   0.30954   0.00000  Uiso   1.00
N92    N     0.02694   0.97129   0.35654   0.00000  Uiso   1.00
C93    C     0.86335   0.15293   0.73684   0.00000  Uiso   1.00
C94    C     0.84031   0.12246   0.63492   0.00000  Uiso   1.00
C95    C     0.84278   0.12359   0.48760   0.00000  Uiso   1.00
C96    C     0.81928   0.09293   0.41335   0.00000  Uiso   1.00
C97    C     0.78730   0.05031   0.24434   0.00000  Uiso   1.00
C98    C     0.83050   0.17492   0.82873   0.00000  Uiso   1.00
C99    C     0.82473   0.22015   0.84437   0.00000  Uiso   1.00
C100   C     0.79298   0.23366   0.93328   0.00000  Uiso   1.00
C101   C     0.74579   0.27248   0.06524   0.00000  Uiso   1.00
C102   C     0.88764   0.12272   0.83604   0.00000  Uiso   1.00
C103   C     0.92990   0.12406   0.85787   0.00000  Uiso   1.00
C104   C     0.94625   0.09362   0.95297   0.00000  Uiso   1.00
C105   C     0.98777   0.05138   0.09628   0.00000  Uiso   1.00
C106   C     0.81725   0.09648   0.86696   0.00000  Uiso   1.00
C107   C     0.81527   0.09180   0.70560   0.00000  Uiso   1.00
C108   C     0.79177   0.06114   0.63156   0.00000  Uiso   1.00
C109   C     0.79420   0.06222   0.48415   0.00000  Uiso   1.00
C110   C     0.80546   0.14426   0.89940   0.00000  Uiso   1.00
C111   C     0.77372   0.15770   0.98832   0.00000  Uiso   1.00
C112   C     0.76789   0.20295   0.00408   0.00000  Uiso   1.00
C113   C     0.86260   0.09206   0.90672   0.00000  Uiso   1.00
C114   C     0.87889   0.06161   0.00181   0.00000  Uiso   1.00
C115   C     0.92116   0.06291   0.02377   0.00000  Uiso   1.00
H116   H     0.88285   0.17680   0.68183   0.00000  Uiso   1.00
H117   H     0.86216   0.14732   0.43295   0.00000  Uiso   1.00
H118   H     0.84411   0.24387   0.78967   0.00000  Uiso   1.00
H119   H     0.94927   0.14779   0.80316   0.00000  Uiso   1.00
H120   H     0.82816   0.10113   0.18818   0.00000  Uiso   1.00
H121   H     0.79012   0.30472   0.94039   0.00000  Uiso   1.00
H122   H     0.01186   0.10211   0.96884   0.00000  Uiso   1.00
H123   H     0.79775   0.07261   0.92199   0.00000  Uiso   1.00
H124   H     0.77239   0.03742   0.68628   0.00000  Uiso   1.00
H125   H     0.75435   0.13397   0.04300   0.00000  Uiso   1.00
H126   H     0.85950   0.03789   0.05649   0.00000  Uiso   1.00
H127   H     0.75530   0.01193   0.39379   0.00000  Uiso   1.00
H128   H     0.71727   0.21552   0.14601   0.00000  Uiso   1.00
H129   H     0.93900   0.01291   0.17445   0.00000  Uiso   1.00
O130   O     0.77658   0.03527   0.13160   0.00000  Uiso   1.00
O131   O     0.72668   0.30236   0.11848   0.00000  Uiso   1.00
O132   O     0.01759   0.03655   0.15579   0.00000  Uiso   1.00
N133   N     0.81450   0.08496   0.26892   0.00000  Uiso   1.00
N134   N     0.77893   0.27530   0.97217   0.00000  Uiso   1.00
N135   N     0.98624   0.08589   0.99880   0.00000  Uiso   1.00
N136   N     0.77530   0.03696   0.37956   0.00000  Uiso   1.00
N137   N     0.73973   0.22730   0.08281   0.00000  Uiso   1.00
N138   N     0.94703   0.03789   0.10943   0.00000  Uiso   1.00
C139   C     0.56006   0.15124   0.19370   0.00000  Uiso   1.00
C140   C     0.58616   0.12291   0.29318   0.00000  Uiso   1.00
C141   C     0.58666   0.12574   0.44050   0.00000  Uiso   1.00
C142   C     0.61265   0.09691   0.51232   0.00000  Uiso   1.00
C143   C     0.64945   0.05759   0.67789   0.00000  Uiso   1.00
C144   C     0.59018   0.17330   0.09140   0.00000  Uiso   1.00
C145   C     0.59405   0.21850   0.06906   0.00000  Uiso   1.00
C146   C     0.62342   0.23208   0.97100   0.00000  Uiso   1.00
C147   C     0.66643   0.27099   0.82323   0.00000  Uiso   1.00
C148   C     0.53489   0.11896   0.10438   0.00000  Uiso   1.00
C149   C     0.49227   0.11847   0.09291   0.00000  Uiso   1.00
C150   C     0.47509   0.08630   0.00575   0.00000  Uiso   1.00
C151   C     0.43226   0.04083   0.87813   0.00000  Uiso   1.00
C152   C     0.60534   0.09500   0.05926   0.00000  Uiso   1.00
C153   C     0.61075   0.09237   0.22015   0.00000  Uiso   1.00
C154   C     0.63675   0.06352   0.29176   0.00000  Uiso   1.00
C155   C     0.63729   0.06630   0.43917   0.00000  Uiso   1.00
C156   C     0.61477   0.14276   0.01838   0.00000  Uiso   1.00
C157   C     0.64414   0.15628   0.92032   0.00000  Uiso   1.00
C158   C     0.64805   0.20148   0.89784   0.00000  Uiso   1.00
C159   C     0.55948   0.08841   0.03136   0.00000  Uiso   1.00
C160   C     0.54236   0.05624   0.94418   0.00000  Uiso   1.00
C161   C     0.49973   0.05570   0.93259   0.00000  Uiso   1.00
H162   H     0.54092   0.17502   0.25054   0.00000  Uiso   1.00
H163   H     0.56763   0.14939   0.49698   0.00000  Uiso   1.00
H164   H     0.57501   0.24213   0.12558   0.00000  Uiso   1.00
H165   H     0.47325   0.14211   0.14944   0.00000  Uiso   1.00
H166   H     0.60809   0.10751   0.73798   0.00000  Uiso   1.00
H167   H     0.62365   0.30306   0.95484   0.00000  Uiso   1.00
H168   H     0.40907   0.09215   0.00514   0.00000  Uiso   1.00
H169   H     0.62448   0.07121   0.00240   0.00000  Uiso   1.00
H170   H     0.65578   0.03988   0.23522   0.00000  Uiso   1.00
H171   H     0.66316   0.13263   0.86383   0.00000  Uiso   1.00
H172   H     0.56140   0.03261   0.88769   0.00000  Uiso   1.00
H173   H     0.67964   0.01863   0.52554   0.00000  Uiso   1.00
H174   H     0.69520   0.21418   0.74239   0.00000  Uiso   1.00
H175   H     0.48062   0.00327   0.79270   0.00000  Uiso   1.00
O176   O     0.66295   0.04434   0.78939   0.00000  Uiso   1.00
O177   O     0.68336   0.30090   0.76192   0.00000  Uiso   1.00
O178   O     0.40184   0.02419   0.82793   0.00000  Uiso   1.00
N179   N     0.62063   0.09089   0.65604   0.00000  Uiso   1.00
N180   N     0.63518   0.27372   0.92386   0.00000  Uiso   1.00
N181   N     0.43457   0.07654   0.97086   0.00000  Uiso   1.00
N182   N     0.65913   0.04306   0.54172   0.00000  Uiso   1.00
N183   N     0.67368   0.22589   0.80954   0.00000  Uiso   1.00
N184   N     0.47306   0.02871   0.85654   0.00000  Uiso   1.00
C185   C     0.36335   0.34707   0.26316   0.00000  Uiso   1.00
C186   C     0.34031   0.37754   0.36508   0.00000  Uiso   1.00
C187   C     0.34278   0.37641   0.51240   0.00000  Uiso   1.00
C188   C     0.31928   0.40707   0.58665   0.00000  Uiso   1.00
C189   C     0.28730   0.44969   0.75566   0.00000  Uiso   1.00
C190   C     0.33050   0.32508   0.17127   0.00000  Uiso   1.00
C191   C     0.32473   0.27985   0.15563   0.00000  Uiso   1.00
C192   C     0.29298   0.26634   0.06672   0.00000  Uiso   1.00
C193   C     0.24579   0.22752   0.93476   0.00000  Uiso   1.00
C194   C     0.38764   0.37728   0.16396   0.00000  Uiso   1.00
C195   C     0.42990   0.37594   0.14213   0.00000  Uiso   1.00
C196   C     0.44625   0.40638   0.04703   0.00000  Uiso   1.00
C197   C     0.48777   0.44862   0.90372   0.00000  Uiso   1.00
C198   C     0.31725   0.40352   0.13304   0.00000  Uiso   1.00
C199   C     0.31527   0.40820   0.29440   0.00000  Uiso   1.00
C200   C     0.29177   0.43886   0.36844   0.00000  Uiso   1.00
C201   C     0.29420   0.43778   0.51585   0.00000  Uiso   1.00
C202   C     0.30546   0.35574   0.10060   0.00000  Uiso   1.00
C203   C     0.27372   0.34230   0.01168   0.00000  Uiso   1.00
C204   C     0.26789   0.29705   0.99592   0.00000  Uiso   1.00
C205   C     0.36260   0.40794   0.09328   0.00000  Uiso   1.00
C206   C     0.37889   0.43839   0.99819   0.00000  Uiso   1.00
C207   C     0.42116   0.43709   0.97623   0.00000  Uiso   1.00
H208   H     0.38285   0.32320   0.31817   0.00000  Uiso   1.00
H209   H     0.36216   0.35268   0.56705   0.00000  Uiso   1.00
H210   H     0.34411   0.25613   0.21033   0.00000  Uiso   1.00
H211   H     0.44927   0.35221   0.19684   0.00000  Uiso   1.00
H212   H     0.32816   0.39887   0.81182   0.00000  Uiso   1.00
H213   H     0.29012   0.19528   0.05961   0.00000  Uiso   1.00
H214   H     0.51186   0.39789   0.03116   0.00000  Uiso   1.00
H215   H     0.29775   0.42739   0.07801   0.00000  Uiso   1.00
H216   H     0.27239   0.46258   0.31372   0.00000  Uiso   1.00
H217   H     0.25435   0.36603   0.95700   0.00000  Uiso   1.00
H218   H     0.35950   0.46211   0.94351   0.00000  Uiso   1.00
H219   H     0.25530   0.48807   0.60621   0.00000  Uiso   1.00
H220   H     0.21727   0.28448   0.85399   0.00000  Uiso   1.00
H221   H     0.43900   0.48709   0.82555   0.00000  Uiso   1.00
O222   O     0.27658   0.46473   0.86840   0.00000  Uiso   1.00
O223   O     0.22668   0.19764   0.88152   0.00000  Uiso   1.00
O224   O     0.51759   0.46345   0.84421   0.00000  Uiso   1.00
N225   N     0.31450   0.41504   0.73108   0.00000  Uiso   1.00
N226   N     0.27893   0.22470   0.02783   0.00000  Uiso   1.00
N227   N     0.48624   0.41411   0.00120   0.00000  Uiso   1.00
N228   N     0.27530   0.46304   0.62044   0.00000  Uiso   1.00
N229   N     0.23973   0.27270   0.91719   0.00000  Uiso   1.00
N230   N     0.44703   0.46211   0.89057   0.00000  Uiso   1.00
C231   C     0.06006   0.34876   0.80630   0.00000  Uiso   1.00
C232   C     0.08616   0.37709   0.70682   0.00000  Uiso   1.00
C233   C     0.08666   0.37426   0.55950   0.00000  Uiso   1.00
C234   C     0.11265   0.40309   0.48768   0.00000  Uiso   1.00
C235   C     0.14945   0.44241   0.32211   0.00000  Uiso   1.00
C236   C     0.09018   0.32670   0.90860   0.00000  Uiso   1.00
C237   C     0.09405   0.28150   0.93094   0.00000  Uiso   1.00
C238   C     0.12342   0.26792   0.02900   0.00000  Uiso   1.00
C239   C     0.16643   0.22901   0.17677   0.00000  Uiso   1.00
C240   C     0.03489   0.38104   0.89562   0.00000  Uiso   1.00
C241   C     0.99227   0.38153   0.90709   0.00000  Uiso   1.00
C242   C     0.97509   0.41370   0.99425   0.00000  Uiso   1.00
C243   C     0.93226   0.45917   0.12187   0.00000  Uiso   1.00
C244   C     0.10534   0.40500   0.94074   0.00000  Uiso   1.00
C245   C     0.11075   0.40763   0.77985   0.00000  Uiso   1.00
C246   C     0.13675   0.43648   0.70824   0.00000  Uiso   1.00
C247   C     0.13729   0.43370   0.56083   0.00000  Uiso   1.00
C248   C     0.11477   0.35724   0.98162   0.00000  Uiso   1.00
C249   C     0.14414   0.34372   0.07968   0.00000  Uiso   1.00
C250   C     0.14805   0.29852   0.10216   0.00000  Uiso   1.00
C251   C     0.05948   0.41159   0.96864   0.00000  Uiso   1.00
C252   C     0.04236   0.44376   0.05582   0.00000  Uiso   1.00
C253   C     0.99973   0.44430   0.06741   0.00000  Uiso   1.00
H254   H     0.04092   0.32498   0.74946   0.00000  Uiso   1.00
H255   H     0.06763   0.35061   0.50302   0.00000  Uiso   1.00
H256   H     0.07501   0.25787   0.87442   0.00000  Uiso   1.00
H257   H     0.97325   0.35789   0.85056   0.00000  Uiso   1.00
H258   H     0.10809   0.39249   0.26202   0.00000  Uiso   1.00
H259   H     0.12365   0.19694   0.04516   0.00000  Uiso   1.00
H260   H     0.90907   0.40785   0.99486   0.00000  Uiso   1.00
H261   H     0.12448   0.42879   0.99760   0.00000  Uiso   1.00
H262   H     0.15578   0.46012   0.76478   0.00000  Uiso   1.00
H263   H     0.16316   0.36737   0.13617   0.00000  Uiso   1.00
H264   H     0.06140   0.46739   0.11231   0.00000  Uiso   1.00
H265   H     0.17964   0.48137   0.47446   0.00000  Uiso   1.00
H266   H     0.19520   0.28582   0.25761   0.00000  Uiso   1.00
H267   H     0.98062   0.49673   0.20730   0.00000  Uiso   1.00
O268   O     0.16295   0.45566   0.21061   0.00000  Uiso   1.00
O269   O     0.18336   0.19910   0.23808   0.00000  Uiso   1.00
O270   O     0.90184   0.47581   0.17207   0.00000  Uiso   1.00
N271   N     0.12063   0.40911   0.34396   0.00000  Uiso   1.00
N272   N     0.13518   0.22628   0.07614   0.00000  Uiso   1.00
N273   N     0.93457   0.42346   0.02914   0.00000  Uiso   1.00
N274   N     0.15913   0.45694   0.45828   0.00000  Uiso   1.00
N275   N     0.17368   0.27411   0.19046   0.00000  Uiso   1.00
N276   N     0.97306   0.47129   0.14346   0.00000  Uiso   1.00
C277   C     0.13665   0.65293   0.76316   0.00000  Uiso   1.00
C278   C     0.15969   0.62246   0.86508   0.00000  Uiso   1.00
C279   C     0.15722   0.62359   0.01240   0.00000  Uiso   1.00
C280   C     0.18072   0.59293   0.08665   0.00000  Uiso   1.00
C281   C     0.21270   0.55031   0.25566   0.00000  Uiso   1.00
C282   C     0.16950   0.67492   0.67127   0.00000  Uiso   1.00
C283   C     0.17527   0.72015   0.65563   0.00000  Uiso   1.00
C284   C     0.20702   0.73366   0.56672   0.00000  Uiso   1.00
C285   C     0.25421   0.77248   0.43476   0.00000  Uiso   1.00
C286   C     0.11236   0.62272   0.66396   0.00000  Uiso   1.00
C287   C     0.07010   0.62406   0.64213   0.00000  Uiso   1.00
C288   C     0.05375   0.59362   0.54703   0.00000  Uiso   1.00
C289   C     0.01223   0.55138   0.40372   0.00000  Uiso   1.00
C290   C     0.18275   0.59648   0.63304   0.00000  Uiso   1.00
C291   C     0.18473   0.59180   0.79440   0.00000  Uiso   1.00
C292   C     0.20823   0.56114   0.86844   0.00000  Uiso   1.00
C293   C     0.20580   0.56222   0.01585   0.00000  Uiso   1.00
C294   C     0.19454   0.64426   0.60060   0.00000  Uiso   1.00
C295   C     0.22628   0.65770   0.51168   0.00000  Uiso   1.00
C296   C     0.23211   0.70295   0.49592   0.00000  Uiso   1.00
C297   C     0.13740   0.59206   0.59328   0.00000  Uiso   1.00
C298   C     0.12111   0.56161   0.49819   0.00000  Uiso   1.00
C299   C     0.07884   0.56291   0.47623   0.00000  Uiso   1.00
H300   H     0.11715   0.67680   0.81817   0.00000  Uiso   1.00
H301   H     0.13784   0.64732   0.06705   0.00000  Uiso   1.00
H302   H     0.15589   0.74387   0.71033   0.00000  Uiso   1.00
H303   H     0.05073   0.64779   0.69684   0.00000  Uiso   1.00
H304   H     0.17184   0.60113   0.31182   0.00000  Uiso   1.00
H305   H     0.20988   0.80472   0.55961   0.00000  Uiso   1.00
H306   H     0.98814   0.60211   0.53116   0.00000  Uiso   1.00
H307   H     0.20225   0.57261   0.57801   0.00000  Uiso   1.00
H308   H     0.22761   0.53742   0.81372   0.00000  Uiso   1.00
H309   H     0.24565   0.63397   0.45700   0.00000  Uiso   1.00
H310   H     0.14050   0.53789   0.44351   0.00000  Uiso   1.00
H311   H     0.24470   0.51193   0.10621   0.00000  Uiso   1.00
H312   H     0.28273   0.71552   0.35399   0.00000  Uiso   1.00
H313   H     0.06100   0.51291   0.32555   0.00000  Uiso   1.00
O314   O     0.22342   0.53527   0.36840   0.00000  Uiso   1.00
O315   O     0.27332   0.80236   0.38152   0.00000  Uiso   1.00
O316   O     0.98241   0.53655   0.34421   0.00000  Uiso   1.00
N317   N     0.18550   0.58496   0.23108   0.00000  Uiso   1.00
N318   N     0.22107   0.77530   0.52783   0.00000  Uiso   1.00
N319   N     0.01376   0.58589   0.50120   0.00000  Uiso   1.00
N320   N     0.22470   0.53696   0.12044   0.00000  Uiso   1.00
N321   N     0.26027   0.72730   0.41719   0.00000  Uiso   1.00
N322   N     0.05297   0.53789   0.39057   0.00000  Uiso   1.00
C323   C     0.43994   0.65124   0.30630   0.00000  Uiso   1.00
C324   C     0.41384   0.62291   0.20682   0.00000  Uiso   1.00
C325   C     0.41334   0.62574   0.05950   0.00000  Uiso   1.00
C326   C     0.38735   0.59691   0.98768   0.00000  Uiso   1.00
C327   C     0.35055   0.55759   0.82211   0.00000  Uiso   1.00
C328   C     0.40982   0.67330   0.40860   0.00000  Uiso   1.00
C329   C     0.40595   0.71850   0.43094   0.00000  Uiso   1.00
C330   C     0.37658   0.73208   0.52900   0.00000  Uiso   1.00
C331   C     0.33357   0.77099   0.67677   0.00000  Uiso   1.00
C332   C     0.46511   0.61896   0.39562   0.00000  Uiso   1.00
C333   C     0.50773   0.61847   0.40709   0.00000  Uiso   1.00
C334   C     0.52491   0.58630   0.49425   0.00000  Uiso   1.00
C335   C     0.56774   0.54083   0.62187   0.00000  Uiso   1.00
C336   C     0.39466   0.59500   0.44074   0.00000  Uiso   1.00
C337   C     0.38925   0.59237   0.27985   0.00000  Uiso   1.00
C338   C     0.36325   0.56352   0.20824   0.00000  Uiso   1.00
C339   C     0.36271   0.56630   0.06083   0.00000  Uiso   1.00
C340   C     0.38523   0.64276   0.48162   0.00000  Uiso   1.00
C341   C     0.35586   0.65628   0.57968   0.00000  Uiso   1.00
C342   C     0.35195   0.70148   0.60216   0.00000  Uiso   1.00
C343   C     0.44052   0.58841   0.46864   0.00000  Uiso   1.00
C344   C     0.45764   0.55624   0.55582   0.00000  Uiso   1.00
C345   C     0.50027   0.55570   0.56741   0.00000  Uiso   1.00
H346   H     0.45908   0.67502   0.24946   0.00000  Uiso   1.00
H347   H     0.43237   0.64939   0.00302   0.00000  Uiso   1.00
H348   H     0.42499   0.74213   0.37442   0.00000  Uiso   1.00
H349   H     0.52675   0.64211   0.35056   0.00000  Uiso   1.00
H350   H     0.39191   0.60751   0.76202   0.00000  Uiso   1.00
H351   H     0.37635   0.80306   0.54516   0.00000  Uiso   1.00
H352   H     0.59093   0.59215   0.49486   0.00000  Uiso   1.00
H353   H     0.37552   0.57121   0.49760   0.00000  Uiso   1.00
H354   H     0.34422   0.53988   0.26478   0.00000  Uiso   1.00
H355   H     0.33684   0.63263   0.63617   0.00000  Uiso   1.00
H356   H     0.43860   0.53261   0.61231   0.00000  Uiso   1.00
H357   H     0.32036   0.51863   0.97446   0.00000  Uiso   1.00
H358   H     0.30480   0.71418   0.75761   0.00000  Uiso   1.00
H359   H     0.51938   0.50327   0.70730   0.00000  Uiso   1.00
O360   O     0.33705   0.54434   0.71061   0.00000  Uiso   1.00
O361   O     0.31664   0.80090   0.73808   0.00000  Uiso   1.00
O362   O     0.59816   0.52419   0.67207   0.00000  Uiso   1.00
N363   N     0.37937   0.59089   0.84396   0.00000  Uiso   1.00
N364   N     0.36482   0.77372   0.57614   0.00000  Uiso   1.00
N365   N     0.56543   0.57654   0.52914   0.00000  Uiso   1.00
N366   N     0.34087   0.54306   0.95828   0.00000  Uiso   1.00
N367   N     0.32632   0.72589   0.69046   0.00000  Uiso   1.00
N368   N     0.52694   0.52871   0.64346   0.00000  Uiso   1.00
C369   C     0.36335   0.15293   0.76316   0.00000  Uiso   1.00
C370   C     0.34031   0.12246   0.86508   0.00000  Uiso   1.00
C371   C     0.34278   0.12359   0.01240   0.00000  Uiso   1.00
C372   C     0.31928   0.09293   0.08665   0.00000  Uiso   1.00
C373   C     0.28730   0.05031   0.25566   0.00000  Uiso   1.00
C374   C     0.33050   0.17492   0.67127   0.00000  Uiso   1.00
C375   C     0.32473   0.22015   0.65563   0.00000  Uiso   1.00
C376   C     0.29298   0.23366   0.56672   0.00000  Uiso   1.00
C377   C     0.24579   0.27248   0.43476   0.00000  Uiso   1.00
C378   C     0.38764   0.12272   0.66396   0.00000  Uiso   1.00
C379   C     0.42990   0.12406   0.64213   0.00000  Uiso   1.00
C380   C     0.44625   0.09362   0.54703   0.00000  Uiso   1.00
C381   C     0.48777   0.05138   0.40372   0.00000  Uiso   1.00
C382   C     0.31725   0.09648   0.63304   0.00000  Uiso   1.00
C383   C     0.31527   0.09180   0.79440   0.00000  Uiso   1.00
C384   C     0.29177   0.06114   0.86844   0.00000  Uiso   1.00
C385   C     0.29420   0.06222   0.01585   0.00000  Uiso   1.00
C386   C     0.30546   0.14426   0.60060   0.00000  Uiso   1.00
C387   C     0.27372   0.15770   0.51168   0.00000  Uiso   1.00
C388   C     0.26789   0.20295   0.49592   0.00000  Uiso   1.00
C389   C     0.36260   0.09206   0.59328   0.00000  Uiso   1.00
C390   C     0.37889   0.06161   0.49819   0.00000  Uiso   1.00
C391   C     0.42116   0.06291   0.47623   0.00000  Uiso   1.00
H392   H     0.38285   0.17680   0.81817   0.00000  Uiso   1.00
H393   H     0.36216   0.14732   0.06705   0.00000  Uiso   1.00
H394   H     0.34411   0.24387   0.71033   0.00000  Uiso   1.00
H395   H     0.44927   0.14779   0.69684   0.00000  Uiso   1.00
H396   H     0.32816   0.10113   0.31182   0.00000  Uiso   1.00
H397   H     0.29012   0.30472   0.55961   0.00000  Uiso   1.00
H398   H     0.51186   0.10211   0.53116   0.00000  Uiso   1.00
H399   H     0.29775   0.07261   0.57801   0.00000  Uiso   1.00
H400   H     0.27239   0.03742   0.81372   0.00000  Uiso   1.00
H401   H     0.25435   0.13397   0.45700   0.00000  Uiso   1.00
H402   H     0.35950   0.03789   0.44351   0.00000  Uiso   1.00
H403   H     0.25530   0.01193   0.10621   0.00000  Uiso   1.00
H404   H     0.21727   0.21552   0.35399   0.00000  Uiso   1.00
H405   H     0.43900   0.01291   0.32555   0.00000  Uiso   1.00
O406   O     0.27658   0.03527   0.36840   0.00000  Uiso   1.00
O407   O     0.22668   0.30236   0.38152   0.00000  Uiso   1.00
O408   O     0.51759   0.03655   0.34421   0.00000  Uiso   1.00
N409   N     0.31450   0.08496   0.23108   0.00000  Uiso   1.00
N410   N     0.27893   0.27530   0.52783   0.00000  Uiso   1.00
N411   N     0.48624   0.08589   0.50120   0.00000  Uiso   1.00
N412   N     0.27530   0.03696   0.12044   0.00000  Uiso   1.00
N413   N     0.23973   0.22730   0.41719   0.00000  Uiso   1.00
N414   N     0.44703   0.03789   0.39057   0.00000  Uiso   1.00
C415   C     0.06006   0.15124   0.30630   0.00000  Uiso   1.00
C416   C     0.08616   0.12291   0.20682   0.00000  Uiso   1.00
C417   C     0.08666   0.12574   0.05950   0.00000  Uiso   1.00
C418   C     0.11265   0.09691   0.98768   0.00000  Uiso   1.00
C419   C     0.14945   0.05759   0.82211   0.00000  Uiso   1.00
C420   C     0.09018   0.17330   0.40860   0.00000  Uiso   1.00
C421   C     0.09405   0.21850   0.43094   0.00000  Uiso   1.00
C422   C     0.12342   0.23208   0.52900   0.00000  Uiso   1.00
C423   C     0.16643   0.27099   0.67677   0.00000  Uiso   1.00
C424   C     0.03489   0.11896   0.39562   0.00000  Uiso   1.00
C425   C     0.99227   0.11847   0.40709   0.00000  Uiso   1.00
C426   C     0.97509   0.08630   0.49425   0.00000  Uiso   1.00
C427   C     0.93226   0.04083   0.62187   0.00000  Uiso   1.00
C428   C     0.10534   0.09500   0.44074   0.00000  Uiso   1.00
C429   C     0.11075   0.09237   0.27985   0.00000  Uiso   1.00
C430   C     0.13675   0.06352   0.20824   0.00000  Uiso   1.00
C431   C     0.13729   0.06630   0.06083   0.00000  Uiso   1.00
C432   C     0.11477   0.14276   0.48162   0.00000  Uiso   1.00
C433   C     0.14414   0.15628   0.57968   0.00000  Uiso   1.00
C434   C     0.14805   0.20148   0.60216   0.00000  Uiso   1.00
C435   C     0.05948   0.08841   0.46864   0.00000  Uiso   1.00
C436   C     0.04236   0.05624   0.55582   0.00000  Uiso   1.00
C437   C     0.99973   0.05570   0.56741   0.00000  Uiso   1.00
H438   H     0.04092   0.17502   0.24946   0.00000  Uiso   1.00
H439   H     0.06763   0.14939   0.00302   0.00000  Uiso   1.00
H440   H     0.07501   0.24213   0.37442   0.00000  Uiso   1.00
H441   H     0.97325   0.14211   0.35056   0.00000  Uiso   1.00
H442   H     0.10809   0.10751   0.76202   0.00000  Uiso   1.00
H443   H     0.12365   0.30306   0.54516   0.00000  Uiso   1.00
H444   H     0.90907   0.09215   0.49486   0.00000  Uiso   1.00
H445   H     0.12448   0.07121   0.49760   0.00000  Uiso   1.00
H446   H     0.15578   0.03988   0.26478   0.00000  Uiso   1.00
H447   H     0.16316   0.13263   0.63617   0.00000  Uiso   1.00
H448   H     0.06140   0.03261   0.61231   0.00000  Uiso   1.00
H449   H     0.17964   0.01863   0.97446   0.00000  Uiso   1.00
H450   H     0.19520   0.21418   0.75761   0.00000  Uiso   1.00
H451   H     0.98062   0.00327   0.70730   0.00000  Uiso   1.00
O452   O     0.16295   0.04434   0.71061   0.00000  Uiso   1.00
O453   O     0.18336   0.30090   0.73808   0.00000  Uiso   1.00
O454   O     0.90184   0.02419   0.67207   0.00000  Uiso   1.00
N455   N     0.12063   0.09089   0.84396   0.00000  Uiso   1.00
N456   N     0.13518   0.27372   0.57614   0.00000  Uiso   1.00
N457   N     0.93457   0.07654   0.52914   0.00000  Uiso   1.00
N458   N     0.15913   0.04306   0.95828   0.00000  Uiso   1.00
N459   N     0.17368   0.22589   0.69046   0.00000  Uiso   1.00
N460   N     0.97306   0.02871   0.64346   0.00000  Uiso   1.00
C461   C     0.13665   0.84707   0.26316   0.00000  Uiso   1.00
C462   C     0.15969   0.87754   0.36508   0.00000  Uiso   1.00
C463   C     0.15722   0.87641   0.51240   0.00000  Uiso   1.00
C464   C     0.18072   0.90707   0.58665   0.00000  Uiso   1.00
C465   C     0.21270   0.94969   0.75566   0.00000  Uiso   1.00
C466   C     0.16950   0.82508   0.17127   0.00000  Uiso   1.00
C467   C     0.17527   0.77985   0.15563   0.00000  Uiso   1.00
C468   C     0.20702   0.76634   0.06672   0.00000  Uiso   1.00
C469   C     0.25421   0.72752   0.93476   0.00000  Uiso   1.00
C470   C     0.11236   0.87728   0.16396   0.00000  Uiso   1.00
C471   C     0.07010   0.87594   0.14213   0.00000  Uiso   1.00
C472   C     0.05375   0.90638   0.04703   0.00000  Uiso   1.00
C473   C     0.01223   0.94862   0.90372   0.00000  Uiso   1.00
C474   C     0.18275   0.90352   0.13304   0.00000  Uiso   1.00
C475   C     0.18473   0.90820   0.29440   0.00000  Uiso   1.00
C476   C     0.20823   0.93886   0.36844   0.00000  Uiso   1.00
C477   C     0.20580   0.93778   0.51585   0.00000  Uiso   1.00
C478   C     0.19454   0.85574   0.10060   0.00000  Uiso   1.00
C479   C     0.22628   0.84230   0.01168   0.00000  Uiso   1.00
C480   C     0.23211   0.79705   0.99592   0.00000  Uiso   1.00
C481   C     0.13740   0.90794   0.09328   0.00000  Uiso   1.00
C482   C     0.12111   0.93839   0.99819   0.00000  Uiso   1.00
C483   C     0.07884   0.93709   0.97623   0.00000  Uiso   1.00
H484   H     0.11715   0.82320   0.31817   0.00000  Uiso   1.00
H485   H     0.13784   0.85268   0.56705   0.00000  Uiso   1.00
H486   H     0.15589   0.75613   0.21033   0.00000  Uiso   1.00
H487   H     0.05073   0.85221   0.19684   0.00000  Uiso   1.00
H488   H     0.17184   0.89887   0.81182   0.00000  Uiso   1.00
H489   H     0.20988   0.69528   0.05961   0.00000  Uiso   1.00
H490   H     0.98814   0.89789   0.03116   0.00000  Uiso   1.00
H491   H     0.20225   0.92739   0.07801   0.00000  Uiso   1.00
H492   H     0.22761   0.96258   0.31372   0.00000  Uiso   1.00
H493   H     0.24565   0.86603   0.95700   0.00000  Uiso   1.00
H494   H     0.14050   0.96211   0.94351   0.00000  Uiso   1.00
H495   H     0.24470   0.98807   0.60621   0.00000  Uiso   1.00
H496   H     0.28273   0.78448   0.85399   0.00000  Uiso   1.00
H497   H     0.06100   0.98709   0.82555   0.00000  Uiso   1.00
O498   O     0.22342   0.96473   0.86840   0.00000  Uiso   1.00
O499   O     0.27332   0.69764   0.88152   0.00000  Uiso   1.00
O500   O     0.98241   0.96345   0.84421   0.00000  Uiso   1.00
N501   N     0.18550   0.91504   0.73108   0.00000  Uiso   1.00
N502   N     0.22107   0.72470   0.02783   0.00000  Uiso   1.00
N503   N     0.01376   0.91411   0.00120   0.00000  Uiso   1.00
N504   N     0.22470   0.96304   0.62044   0.00000  Uiso   1.00
N505   N     0.26027   0.77270   0.91719   0.00000  Uiso   1.00
N506   N     0.05297   0.96211   0.89057   0.00000  Uiso   1.00
C507   C     0.43994   0.84876   0.80630   0.00000  Uiso   1.00
C508   C     0.41384   0.87709   0.70682   0.00000  Uiso   1.00
C509   C     0.41334   0.87426   0.55950   0.00000  Uiso   1.00
C510   C     0.38735   0.90309   0.48768   0.00000  Uiso   1.00
C511   C     0.35055   0.94241   0.32211   0.00000  Uiso   1.00
C512   C     0.40982   0.82670   0.90860   0.00000  Uiso   1.00
C513   C     0.40595   0.78150   0.93094   0.00000  Uiso   1.00
C514   C     0.37658   0.76792   0.02900   0.00000  Uiso   1.00
C515   C     0.33357   0.72901   0.17677   0.00000  Uiso   1.00
C516   C     0.46511   0.88104   0.89562   0.00000  Uiso   1.00
C517   C     0.50773   0.88153   0.90709   0.00000  Uiso   1.00
C518   C     0.52491   0.91370   0.99425   0.00000  Uiso   1.00
C519   C     0.56774   0.95917   0.12187   0.00000  Uiso   1.00
C520   C     0.39466   0.90500   0.94074   0.00000  Uiso   1.00
C521   C     0.38925   0.90763   0.77985   0.00000  Uiso   1.00
C522   C     0.36325   0.93648   0.70824   0.00000  Uiso   1.00
C523   C     0.36271   0.93370   0.56083   0.00000  Uiso   1.00
C524   C     0.38523   0.85724   0.98162   0.00000  Uiso   1.00
C525   C     0.35586   0.84372   0.07968   0.00000  Uiso   1.00
C526   C     0.35195   0.79852   0.10216   0.00000  Uiso   1.00
C527   C     0.44052   0.91159   0.96864   0.00000  Uiso   1.00
C528   C     0.45764   0.94376   0.05582   0.00000  Uiso   1.00
C529   C     0.50027   0.94430   0.06741   0.00000  Uiso   1.00
H530   H     0.45908   0.82498   0.74946   0.00000  Uiso   1.00
H531   H     0.43237   0.85061   0.50302   0.00000  Uiso   1.00
H532   H     0.42499   0.75787   0.87442   0.00000  Uiso   1.00
H533   H     0.52675   0.85789   0.85056   0.00000  Uiso   1.00
H534   H     0.39191   0.89249   0.26202   0.00000  Uiso   1.00
H535   H     0.37635   0.69694   0.04516   0.00000  Uiso   1.00
H536   H     0.59093   0.90785   0.99486   0.00000  Uiso   1.00
H537   H     0.37552   0.92879   0.99760   0.00000  Uiso   1.00
H538   H     0.34422   0.96012   0.76478   0.00000  Uiso   1.00
H539   H     0.33684   0.86737   0.13617   0.00000  Uiso   1.00
H540   H     0.43860   0.96739   0.11231   0.00000  Uiso   1.00
H541   H     0.32036   0.98137   0.47446   0.00000  Uiso   1.00
H542   H     0.30480   0.78582   0.25761   0.00000  Uiso   1.00
H543   H     0.51938   0.99673   0.20730   0.00000  Uiso   1.00
O544   O     0.33705   0.95566   0.21061   0.00000  Uiso   1.00
O545   O     0.31664   0.69910   0.23808   0.00000  Uiso   1.00
O546   O     0.59816   0.97581   0.17207   0.00000  Uiso   1.00
N547   N     0.37937   0.90911   0.34396   0.00000  Uiso   1.00
N548   N     0.36482   0.72628   0.07614   0.00000  Uiso   1.00
N549   N     0.56543   0.92346   0.02914   0.00000  Uiso   1.00
N550   N     0.34087   0.95694   0.45828   0.00000  Uiso   1.00
N551   N     0.32632   0.77411   0.19046   0.00000  Uiso   1.00
N552   N     0.52694   0.97129   0.14346   0.00000  Uiso   1.00
C553   C     0.63665   0.65293   0.73684   0.00000  Uiso   1.00
C554   C     0.65969   0.62246   0.63492   0.00000  Uiso   1.00
C555   C     0.65722   0.62359   0.48760   0.00000  Uiso   1.00
C556   C     0.68072   0.59293   0.41335   0.00000  Uiso   1.00
C557   C     0.71270   0.55031   0.24434   0.00000  Uiso   1.00
C558   C     0.66950   0.67492   0.82873   0.00000  Uiso   1.00
C559   C     0.67527   0.72015   0.84437   0.00000  Uiso   1.00
C560   C     0.70702   0.73366   0.93328   0.00000  Uiso   1.00
C561   C     0.75421   0.77248   0.06524   0.00000  Uiso   1.00
C562   C     0.61236   0.62272   0.83604   0.00000  Uiso   1.00
C563   C     0.57010   0.62406   0.85787   0.00000  Uiso   1.00
C564   C     0.55375   0.59362   0.95297   0.00000  Uiso   1.00
C565   C     0.51223   0.55138   0.09628   0.00000  Uiso   1.00
C566   C     0.68275   0.59648   0.86696   0.00000  Uiso   1.00
C567   C     0.68473   0.59180   0.70560   0.00000  Uiso   1.00
C568   C     0.70823   0.56114   0.63156   0.00000  Uiso   1.00
C569   C     0.70580   0.56222   0.48415   0.00000  Uiso   1.00
C570   C     0.69454   0.64426   0.89940   0.00000  Uiso   1.00
C571   C     0.72628   0.65770   0.98832   0.00000  Uiso   1.00
C572   C     0.73211   0.70295   0.00408   0.00000  Uiso   1.00
C573   C     0.63740   0.59206   0.90672   0.00000  Uiso   1.00
C574   C     0.62111   0.56161   0.00181   0.00000  Uiso   1.00
C575   C     0.57884   0.56291   0.02377   0.00000  Uiso   1.00
H576   H     0.61715   0.67680   0.68183   0.00000  Uiso   1.00
H577   H     0.63784   0.64732   0.43295   0.00000  Uiso   1.00
H578   H     0.65589   0.74387   0.78967   0.00000  Uiso   1.00
H579   H     0.55073   0.64779   0.80316   0.00000  Uiso   1.00
H580   H     0.67184   0.60113   0.18818   0.00000  Uiso   1.00
H581   H     0.70988   0.80472   0.94039   0.00000  Uiso   1.00
H582   H     0.48814   0.60211   0.96884   0.00000  Uiso   1.00
H583   H     0.70225   0.57261   0.92199   0.00000  Uiso   1.00
H584   H     0.72761   0.53742   0.68628   0.00000  Uiso   1.00
H585   H     0.74565   0.63397   0.04300   0.00000  Uiso   1.00
H586   H     0.64050   0.53789   0.05649   0.00000  Uiso   1.00
H587   H     0.74470   0.51193   0.39379   0.00000  Uiso   1.00
H588   H     0.78273   0.71552   0.14601   0.00000  Uiso   1.00
H589   H     0.56100   0.51291   0.17445   0.00000  Uiso   1.00
O590   O     0.72342   0.53527   0.13160   0.00000  Uiso   1.00
O591   O     0.77332   0.80236   0.11848   0.00000  Uiso   1.00
O592   O     0.48241   0.53655   0.15579   0.00000  Uiso   1.00
N593   N     0.68550   0.58496   0.26892   0.00000  Uiso   1.00
N594   N     0.72107   0.77530   0.97217   0.00000  Uiso   1.00
N595   N     0.51376   0.58589   0.99880   0.00000  Uiso   1.00
N596   N     0.72470   0.53696   0.37956   0.00000  Uiso   1.00
N597   N     0.76027   0.72730   0.08281   0.00000  Uiso   1.00
N598   N     0.55297   0.53789   0.10943   0.00000  Uiso   1.00
C599   C     0.93994   0.65124   0.19370   0.00000  Uiso   1.00
C600   C     0.91384   0.62291   0.29318   0.00000  Uiso   1.00
C601   C     0.91334   0.62574   0.44050   0.00000  Uiso   1.00
C602   C     0.88735   0.59691   0.51232   0.00000  Uiso   1.00
C603   C     0.85055   0.55759   0.67789   0.00000  Uiso   1.00
C604   C     0.90982   0.67330   0.09140   0.00000  Uiso   1.00
C605   C     0.90595   0.71850   0.06906   0.00000  Uiso   1.00
C606   C     0.87658   0.73208   0.97100   0.00000  Uiso   1.00
C607   C     0.83357   0.77099   0.82323   0.00000  Uiso   1.00
C608   C     0.96511   0.61896   0.10438   0.00000  Uiso   1.00
C609   C     0.00773   0.61847   0.09291   0.00000  Uiso   1.00
C610   C     0.02491   0.58630   0.00575   0.00000  Uiso   1.00
C611   C     0.06774   0.54083   0.87813   0.00000  Uiso   1.00
C612   C     0.89466   0.59500   0.05926   0.00000  Uiso   1.00
C613   C     0.88925   0.59237   0.22015   0.00000  Uiso   1.00
C614   C     0.86325   0.56352   0.29176   0.00000  Uiso   1.00
C615   C     0.86271   0.56630   0.43917   0.00000  Uiso   1.00
C616   C     0.88523   0.64276   0.01838   0.00000  Uiso   1.00
C617   C     0.85586   0.65628   0.92032   0.00000  Uiso   1.00
C618   C     0.85195   0.70148   0.89784   0.00000  Uiso   1.00
C619   C     0.94052   0.58841   0.03136   0.00000  Uiso   1.00
C620   C     0.95764   0.55624   0.94418   0.00000  Uiso   1.00
C621   C     0.00027   0.55570   0.93259   0.00000  Uiso   1.00
H622   H     0.95908   0.67502   0.25054   0.00000  Uiso   1.00
H623   H     0.93237   0.64939   0.49698   0.00000  Uiso   1.00
H624   H     0.92499   0.74213   0.12558   0.00000  Uiso   1.00
H625   H     0.02675   0.64211   0.14944   0.00000  Uiso   1.00
H626   H     0.89191   0.60751   0.73798   0.00000  Uiso   1.00
H627   H     0.87635   0.80306   0.95484   0.00000  Uiso   1.00
H628   H     0.09093   0.59215   0.00514   0.00000  Uiso   1.00
H629   H     0.87552   0.57121   0.00240   0.00000  Uiso   1.00
H630   H     0.84422   0.53988   0.23522   0.00000  Uiso   1.00
H631   H     0.83684   0.63263   0.86383   0.00000  Uiso   1.00
H632   H     0.93860   0.53261   0.88769   0.00000  Uiso   1.00
H633   H     0.82036   0.51863   0.52554   0.00000  Uiso   1.00
H634   H     0.80480   0.71418   0.74239   0.00000  Uiso   1.00
H635   H     0.01938   0.50327   0.79270   0.00000  Uiso   1.00
O636   O     0.83705   0.54434   0.78939   0.00000  Uiso   1.00
O637   O     0.81664   0.80090   0.76192   0.00000  Uiso   1.00
O638   O     0.09816   0.52419   0.82793   0.00000  Uiso   1.00
N639   N     0.87937   0.59089   0.65604   0.00000  Uiso   1.00
N640   N     0.86482   0.77372   0.92386   0.00000  Uiso   1.00
N641   N     0.06543   0.57654   0.97086   0.00000  Uiso   1.00
N642   N     0.84087   0.54306   0.54172   0.00000  Uiso   1.00
N643   N     0.82632   0.72589   0.80954   0.00000  Uiso   1.00
N644   N     0.02694   0.52871   0.85654   0.00000  Uiso   1.00
C645   C     0.86335   0.34707   0.23684   0.00000  Uiso   1.00
C646   C     0.84031   0.37754   0.13492   0.00000  Uiso   1.00
C647   C     0.84278   0.37641   0.98760   0.00000  Uiso   1.00
C648   C     0.81928   0.40707   0.91335   0.00000  Uiso   1.00
C649   C     0.78730   0.44969   0.74434   0.00000  Uiso   1.00
C650   C     0.83050   0.32508   0.32873   0.00000  Uiso   1.00
C651   C     0.82473   0.27985   0.34437   0.00000  Uiso   1.00
C652   C     0.79298   0.26634   0.43328   0.00000  Uiso   1.00
C653   C     0.74579   0.22752   0.56524   0.00000  Uiso   1.00
C654   C     0.88764   0.37728   0.33604   0.00000  Uiso   1.00
C655   C     0.92990   0.37594   0.35787   0.00000  Uiso   1.00
C656   C     0.94625   0.40638   0.45297   0.00000  Uiso   1.00
C657   C     0.98777   0.44862   0.59628   0.00000  Uiso   1.00
C658   C     0.81725   0.40352   0.36696   0.00000  Uiso   1.00
C659   C     0.81527   0.40820   0.20560   0.00000  Uiso   1.00
C660   C     0.79177   0.43886   0.13156   0.00000  Uiso   1.00
C661   C     0.79420   0.43778   0.98415   0.00000  Uiso   1.00
C662   C     0.80546   0.35574   0.39940   0.00000  Uiso   1.00
C663   C     0.77372   0.34230   0.48832   0.00000  Uiso   1.00
C664   C     0.76789   0.29705   0.50408   0.00000  Uiso   1.00
C665   C     0.86260   0.40794   0.40672   0.00000  Uiso   1.00
C666   C     0.87889   0.43839   0.50181   0.00000  Uiso   1.00
C667   C     0.92116   0.43709   0.52377   0.00000  Uiso   1.00
H668   H     0.88285   0.32320   0.18183   0.00000  Uiso   1.00
H669   H     0.86216   0.35268   0.93295   0.00000  Uiso   1.00
H670   H     0.84411   0.25613   0.28967   0.00000  Uiso   1.00
H671   H     0.94927   0.35221   0.30316   0.00000  Uiso   1.00
H672   H     0.82816   0.39887   0.68818   0.00000  Uiso   1.00
H673   H     0.79012   0.19528   0.44039   0.00000  Uiso   1.00
H674   H     0.01186   0.39789   0.46884   0.00000  Uiso   1.00
H675   H     0.79775   0.42739   0.42199   0.00000  Uiso   1.00
H676   H     0.77239   0.46258   0.18628   0.00000  Uiso   1.00
H677   H     0.75435   0.36603   0.54300   0.00000  Uiso   1.00
H678   H     0.85950   0.46211   0.55649   0.00000  Uiso   1.00
H679   H     0.75530   0.48807   0.89379   0.00000  Uiso   1.00
H680   H     0.71727   0.28448   0.64601   0.00000  Uiso   1.00
H681   H     0.93900   0.48709   0.67445   0.00000  Uiso   1.00
O682   O     0.77658   0.46473   0.63160   0.00000  Uiso   1.00
O683   O     0.72668   0.19764   0.61848   0.00000  Uiso   1.00
O684   O     0.01759   0.46345   0.65579   0.00000  Uiso   1.00
N685   N     0.81450   0.41504   0.76892   0.00000  Uiso   1.00
N686   N     0.77893   0.22470   0.47217   0.00000  Uiso   1.00
N687   N     0.98624   0.41411   0.49880   0.00000  Uiso   1.00
N688   N     0.77530   0.46304   0.87956   0.00000  Uiso   1.00
N689   N     0.73973   0.27270   0.58281   0.00000  Uiso   1.00
N690   N     0.94703   0.46211   0.60943   0.00000  Uiso   1.00
C691   C     0.56006   0.34876   0.69370   0.00000  Uiso   1.00
C692   C     0.58616   0.37709   0.79318   0.00000  Uiso   1.00
C693   C     0.58666   0.37426   0.94050   0.00000  Uiso   1.00
C694   C     0.61265   0.40309   0.01232   0.00000  Uiso   1.00
C695   C     0.64945   0.44241   0.17789   0.00000  Uiso   1.00
C696   C     0.59018   0.32670   0.59140   0.00000  Uiso   1.00
C697   C     0.59405   0.28150   0.56906   0.00000  Uiso   1.00
C698   C     0.62342   0.26792   0.47100   0.00000  Uiso   1.00
C699   C     0.66643   0.22901   0.32323   0.00000  Uiso   1.00
C700   C     0.53489   0.38104   0.60438   0.00000  Uiso   1.00
C701   C     0.49227   0.38153   0.59291   0.00000  Uiso   1.00
C702   C     0.47509   0.41370   0.50575   0.00000  Uiso   1.00
C703   C     0.43226   0.45917   0.37813   0.00000  Uiso   1.00
C704   C     0.60534   0.40500   0.55926   0.00000  Uiso   1.00
C705   C     0.61075   0.40763   0.72015   0.00000  Uiso   1.00
C706   C     0.63675   0.43648   0.79176   0.00000  Uiso   1.00
C707   C     0.63729   0.43370   0.93917   0.00000  Uiso   1.00
C708   C     0.61477   0.35724   0.51838   0.00000  Uiso   1.00
C709   C     0.64414   0.34372   0.42032   0.00000  Uiso   1.00
C710   C     0.64805   0.29852   0.39784   0.00000  Uiso   1.00
C711   C     0.55948   0.41159   0.53136   0.00000  Uiso   1.00
C712   C     0.54236   0.44376   0.44418   0.00000  Uiso   1.00
C713   C     0.49973   0.44430   0.43259   0.00000  Uiso   1.00
H714   H     0.54092   0.32498   0.75054   0.00000  Uiso   1.00
H715   H     0.56763   0.35061   0.99698   0.00000  Uiso   1.00
H716   H     0.57501   0.25787   0.62558   0.00000  Uiso   1.00
H717   H     0.47325   0.35789   0.64944   0.00000  Uiso   1.00
H718   H     0.60809   0.39249   0.23798   0.00000  Uiso   1.00
H719   H     0.62365   0.19694   0.45484   0.00000  Uiso   1.00
H720   H     0.40907   0.40785   0.50514   0.00000  Uiso   1.00
H721   H     0.62448   0.42879   0.50240   0.00000  Uiso   1.00
H722   H     0.65578   0.46012   0.73522   0.00000  Uiso   1.00
H723   H     0.66316   0.36737   0.36383   0.00000  Uiso   1.00
H724   H     0.56140   0.46739   0.38769   0.00000  Uiso   1.00
H725   H     0.67964   0.48137   0.02554   0.00000  Uiso   1.00
H726   H     0.69520   0.28582   0.24239   0.00000  Uiso   1.00
H727   H     0.48062   0.49673   0.29270   0.00000  Uiso   1.00
O728   O     0.66295   0.45566   0.28939   0.00000  Uiso   1.00
O729   O     0.68336   0.19910   0.26192   0.00000  Uiso   1.00
O730   O     0.40184   0.47581   0.32793   0.00000  Uiso   1.00
N731   N     0.62063   0.40911   0.15604   0.00000  Uiso   1.00
N732   N     0.63518   0.22628   0.42386   0.00000  Uiso   1.00
N733   N     0.43457   0.42346   0.47086   0.00000  Uiso   1.00
N734   N     0.65913   0.45694   0.04172   0.00000  Uiso   1.00
N735   N     0.67368   0.27411   0.30954   0.00000  Uiso   1.00
N736   N     0.47306   0.47129   0.35654   0.00000  Uiso   1.00
