data_job_03703
_audit_creation_date              2018-12-19
_audit_creation_method            'Materials Studio'
_symmetry_space_group_name_H-M    'P1'
_symmetry_Int_Tables_number       1
_symmetry_cell_setting            triclinic
loop_
_symmetry_equiv_pos_as_xyz
  x,y,z
_cell_length_a                    23.7386
_cell_length_b                    23.8459
_cell_length_c                    23.3789
_cell_angle_alpha                 90.0000
_cell_angle_beta                  90.0000
_cell_angle_gamma                 90.0000
loop_
_atom_site_label
_atom_site_type_symbol
_atom_site_fract_x
_atom_site_fract_y
_atom_site_fract_z
_atom_site_U_iso_or_equiv
_atom_site_adp_type
_atom_site_occupancy
C1     C     0.92004   0.45115   0.08576   0.00000  Uiso   1.00
C2     C     0.92044   0.42546   0.14549   0.00000  Uiso   1.00
C3     C     0.96671   0.42231   0.18162   0.00000  Uiso   1.00
C4     C     0.95844   0.39721   0.23454   0.00000  Uiso   1.00
C5     C     0.96707   0.36051   0.32482   0.00000  Uiso   1.00
C6     C     0.89894   0.40526   0.04569   0.00000  Uiso   1.00
C7     C     0.92715   0.38514   0.99792   0.00000  Uiso   1.00
C8     C     0.90078   0.34304   0.96683   0.00000  Uiso   1.00
C9     C     0.87603   0.27502   0.90215   0.00000  Uiso   1.00
C10    C     0.87427   0.49601   0.08647   0.00000  Uiso   1.00
C11    C     0.88173   0.55220   0.07296   0.00000  Uiso   1.00
C12    C     0.83458   0.58651   0.07619   0.00000  Uiso   1.00
C13    C     0.77152   0.65940   0.07481   0.00000  Uiso   1.00
C14    C     0.82305   0.41217   0.11549   0.00000  Uiso   1.00
C15    C     0.86776   0.40428   0.16164   0.00000  Uiso   1.00
C16    C     0.85941   0.37919   0.21452   0.00000  Uiso   1.00
C17    C     0.90566   0.37600   0.25072   0.00000  Uiso   1.00
C18    C     0.84627   0.38409   0.06184   0.00000  Uiso   1.00
C19    C     0.81985   0.34202   0.03082   0.00000  Uiso   1.00
C20    C     0.84800   0.32184   0.98301   0.00000  Uiso   1.00
C21    C     0.82159   0.47485   0.10262   0.00000  Uiso   1.00
C22    C     0.77442   0.50908   0.10586   0.00000  Uiso   1.00
C23    C     0.78180   0.56530   0.09237   0.00000  Uiso   1.00
H24    H     0.96105   0.46763   0.07318   0.00000  Uiso   1.00
H25    H     0.00747   0.43869   0.16910   0.00000  Uiso   1.00
H26    H     0.96791   0.40153   0.98543   0.00000  Uiso   1.00
H27    H     0.92250   0.56857   0.06046   0.00000  Uiso   1.00
H28    H     0.03571   0.39725   0.28256   0.00000  Uiso   1.00
H29    H     0.95229   0.31892   0.89526   0.00000  Uiso   1.00
H30    H     0.85652   0.67114   0.05348   0.00000  Uiso   1.00
H31    H     0.78204   0.39569   0.12807   0.00000  Uiso   1.00
H32    H     0.81864   0.36281   0.22701   0.00000  Uiso   1.00
H33    H     0.77908   0.32565   0.04333   0.00000  Uiso   1.00
H34    H     0.73366   0.49268   0.11836   0.00000  Uiso   1.00
H35    H     0.88245   0.33566   0.32956   0.00000  Uiso   1.00
H36    H     0.79902   0.25733   0.94225   0.00000  Uiso   1.00
H37    H     0.70326   0.60955   0.10048   0.00000  Uiso   1.00
O38    O     0.98639   0.34610   0.37015   0.00000  Uiso   1.00
O39    O     0.87694   0.24334   0.86201   0.00000  Uiso   1.00
O40    O     0.75130   0.70545   0.06960   0.00000  Uiso   1.00
N41    N     0.99462   0.38728   0.28005   0.00000  Uiso   1.00
N42    N     0.91662   0.31404   0.91795   0.00000  Uiso   1.00
N43    N     0.82709   0.64333   0.06586   0.00000  Uiso   1.00
N44    N     0.91215   0.35414   0.30534   0.00000  Uiso   1.00
N45    N     0.83415   0.28090   0.94324   0.00000  Uiso   1.00
N46    N     0.74462   0.61019   0.09115   0.00000  Uiso   1.00
C47    C     0.42004   0.95115   0.58576   0.00000  Uiso   1.00
C48    C     0.42044   0.92546   0.64549   0.00000  Uiso   1.00
C49    C     0.46671   0.92231   0.68162   0.00000  Uiso   1.00
C50    C     0.45844   0.89721   0.73454   0.00000  Uiso   1.00
C51    C     0.46707   0.86051   0.82482   0.00000  Uiso   1.00
C52    C     0.39894   0.90526   0.54569   0.00000  Uiso   1.00
C53    C     0.42715   0.88514   0.49792   0.00000  Uiso   1.00
C54    C     0.40078   0.84304   0.46683   0.00000  Uiso   1.00
C55    C     0.37603   0.77502   0.40215   0.00000  Uiso   1.00
C56    C     0.37427   0.99601   0.58647   0.00000  Uiso   1.00
C57    C     0.38173   0.05220   0.57296   0.00000  Uiso   1.00
C58    C     0.33458   0.08651   0.57619   0.00000  Uiso   1.00
C59    C     0.27152   0.15940   0.57481   0.00000  Uiso   1.00
C60    C     0.32305   0.91217   0.61549   0.00000  Uiso   1.00
C61    C     0.36776   0.90428   0.66164   0.00000  Uiso   1.00
C62    C     0.35941   0.87919   0.71452   0.00000  Uiso   1.00
C63    C     0.40566   0.87600   0.75072   0.00000  Uiso   1.00
C64    C     0.34627   0.88409   0.56184   0.00000  Uiso   1.00
C65    C     0.31985   0.84202   0.53082   0.00000  Uiso   1.00
C66    C     0.34800   0.82184   0.48301   0.00000  Uiso   1.00
C67    C     0.32159   0.97485   0.60262   0.00000  Uiso   1.00
C68    C     0.27442   0.00908   0.60586   0.00000  Uiso   1.00
C69    C     0.28180   0.06530   0.59237   0.00000  Uiso   1.00
H70    H     0.46105   0.96763   0.57318   0.00000  Uiso   1.00
H71    H     0.50747   0.93869   0.66910   0.00000  Uiso   1.00
H72    H     0.46791   0.90153   0.48543   0.00000  Uiso   1.00
H73    H     0.42250   0.06857   0.56046   0.00000  Uiso   1.00
H74    H     0.53571   0.89725   0.78256   0.00000  Uiso   1.00
H75    H     0.45229   0.81892   0.39526   0.00000  Uiso   1.00
H76    H     0.35652   0.17114   0.55348   0.00000  Uiso   1.00
H77    H     0.28204   0.89569   0.62807   0.00000  Uiso   1.00
H78    H     0.31864   0.86281   0.72701   0.00000  Uiso   1.00
H79    H     0.27908   0.82565   0.54333   0.00000  Uiso   1.00
H80    H     0.23366   0.99268   0.61836   0.00000  Uiso   1.00
H81    H     0.38245   0.83566   0.82956   0.00000  Uiso   1.00
H82    H     0.29902   0.75733   0.44225   0.00000  Uiso   1.00
H83    H     0.20326   0.10955   0.60048   0.00000  Uiso   1.00
O84    O     0.48639   0.84610   0.87015   0.00000  Uiso   1.00
O85    O     0.37694   0.74334   0.36201   0.00000  Uiso   1.00
O86    O     0.25130   0.20545   0.56960   0.00000  Uiso   1.00
N87    N     0.49462   0.88728   0.78005   0.00000  Uiso   1.00
N88    N     0.41662   0.81404   0.41795   0.00000  Uiso   1.00
N89    N     0.32709   0.14333   0.56586   0.00000  Uiso   1.00
N90    N     0.41215   0.85414   0.80534   0.00000  Uiso   1.00
N91    N     0.33415   0.78090   0.44324   0.00000  Uiso   1.00
N92    N     0.24462   0.11019   0.59115   0.00000  Uiso   1.00
C93    C     0.57996   0.54885   0.58576   0.00000  Uiso   1.00
C94    C     0.57956   0.57454   0.64549   0.00000  Uiso   1.00
C95    C     0.53329   0.57769   0.68162   0.00000  Uiso   1.00
C96    C     0.54156   0.60279   0.73454   0.00000  Uiso   1.00
C97    C     0.53293   0.63949   0.82482   0.00000  Uiso   1.00
C98    C     0.60106   0.59474   0.54569   0.00000  Uiso   1.00
C99    C     0.57285   0.61486   0.49792   0.00000  Uiso   1.00
C100   C     0.59922   0.65696   0.46683   0.00000  Uiso   1.00
C101   C     0.62397   0.72498   0.40215   0.00000  Uiso   1.00
C102   C     0.62573   0.50399   0.58647   0.00000  Uiso   1.00
C103   C     0.61827   0.44780   0.57296   0.00000  Uiso   1.00
C104   C     0.66542   0.41349   0.57619   0.00000  Uiso   1.00
C105   C     0.72848   0.34060   0.57481   0.00000  Uiso   1.00
C106   C     0.67695   0.58783   0.61549   0.00000  Uiso   1.00
C107   C     0.63224   0.59572   0.66164   0.00000  Uiso   1.00
C108   C     0.64059   0.62081   0.71452   0.00000  Uiso   1.00
C109   C     0.59434   0.62400   0.75072   0.00000  Uiso   1.00
C110   C     0.65373   0.61591   0.56184   0.00000  Uiso   1.00
C111   C     0.68015   0.65798   0.53082   0.00000  Uiso   1.00
C112   C     0.65200   0.67816   0.48301   0.00000  Uiso   1.00
C113   C     0.67841   0.52515   0.60262   0.00000  Uiso   1.00
C114   C     0.72558   0.49092   0.60586   0.00000  Uiso   1.00
C115   C     0.71820   0.43470   0.59237   0.00000  Uiso   1.00
H116   H     0.53895   0.53237   0.57318   0.00000  Uiso   1.00
H117   H     0.49253   0.56131   0.66910   0.00000  Uiso   1.00
H118   H     0.53209   0.59847   0.48543   0.00000  Uiso   1.00
H119   H     0.57750   0.43143   0.56046   0.00000  Uiso   1.00
H120   H     0.46429   0.60275   0.78256   0.00000  Uiso   1.00
H121   H     0.54771   0.68108   0.39526   0.00000  Uiso   1.00
H122   H     0.64348   0.32886   0.55348   0.00000  Uiso   1.00
H123   H     0.71796   0.60431   0.62807   0.00000  Uiso   1.00
H124   H     0.68136   0.63719   0.72701   0.00000  Uiso   1.00
H125   H     0.72092   0.67435   0.54333   0.00000  Uiso   1.00
H126   H     0.76634   0.50732   0.61836   0.00000  Uiso   1.00
H127   H     0.61755   0.66434   0.82956   0.00000  Uiso   1.00
H128   H     0.70098   0.74267   0.44225   0.00000  Uiso   1.00
H129   H     0.79674   0.39045   0.60048   0.00000  Uiso   1.00
O130   O     0.51361   0.65390   0.87015   0.00000  Uiso   1.00
O131   O     0.62306   0.75666   0.36201   0.00000  Uiso   1.00
O132   O     0.74870   0.29455   0.56960   0.00000  Uiso   1.00
N133   N     0.50538   0.61272   0.78005   0.00000  Uiso   1.00
N134   N     0.58338   0.68596   0.41795   0.00000  Uiso   1.00
N135   N     0.67291   0.35667   0.56586   0.00000  Uiso   1.00
N136   N     0.58785   0.64586   0.80534   0.00000  Uiso   1.00
N137   N     0.66585   0.71910   0.44324   0.00000  Uiso   1.00
N138   N     0.75538   0.38981   0.59115   0.00000  Uiso   1.00
C139   C     0.07996   0.04885   0.08576   0.00000  Uiso   1.00
C140   C     0.07956   0.07454   0.14549   0.00000  Uiso   1.00
C141   C     0.03329   0.07769   0.18162   0.00000  Uiso   1.00
C142   C     0.04156   0.10279   0.23454   0.00000  Uiso   1.00
C143   C     0.03293   0.13949   0.32482   0.00000  Uiso   1.00
C144   C     0.10106   0.09474   0.04569   0.00000  Uiso   1.00
C145   C     0.07285   0.11486   0.99792   0.00000  Uiso   1.00
C146   C     0.09922   0.15696   0.96683   0.00000  Uiso   1.00
C147   C     0.12397   0.22498   0.90215   0.00000  Uiso   1.00
C148   C     0.12573   0.00399   0.08647   0.00000  Uiso   1.00
C149   C     0.11827   0.94780   0.07296   0.00000  Uiso   1.00
C150   C     0.16542   0.91349   0.07619   0.00000  Uiso   1.00
C151   C     0.22848   0.84060   0.07481   0.00000  Uiso   1.00
C152   C     0.17695   0.08783   0.11549   0.00000  Uiso   1.00
C153   C     0.13224   0.09572   0.16164   0.00000  Uiso   1.00
C154   C     0.14059   0.12081   0.21452   0.00000  Uiso   1.00
C155   C     0.09434   0.12400   0.25072   0.00000  Uiso   1.00
C156   C     0.15373   0.11591   0.06184   0.00000  Uiso   1.00
C157   C     0.18015   0.15798   0.03082   0.00000  Uiso   1.00
C158   C     0.15200   0.17816   0.98301   0.00000  Uiso   1.00
C159   C     0.17841   0.02515   0.10262   0.00000  Uiso   1.00
C160   C     0.22558   0.99092   0.10586   0.00000  Uiso   1.00
C161   C     0.21820   0.93470   0.09237   0.00000  Uiso   1.00
H162   H     0.03895   0.03237   0.07318   0.00000  Uiso   1.00
H163   H     0.99253   0.06131   0.16910   0.00000  Uiso   1.00
H164   H     0.03209   0.09847   0.98543   0.00000  Uiso   1.00
H165   H     0.07750   0.93143   0.06046   0.00000  Uiso   1.00
H166   H     0.96429   0.10275   0.28256   0.00000  Uiso   1.00
H167   H     0.04771   0.18108   0.89526   0.00000  Uiso   1.00
H168   H     0.14348   0.82886   0.05348   0.00000  Uiso   1.00
H169   H     0.21796   0.10431   0.12807   0.00000  Uiso   1.00
H170   H     0.18136   0.13719   0.22701   0.00000  Uiso   1.00
H171   H     0.22092   0.17435   0.04333   0.00000  Uiso   1.00
H172   H     0.26634   0.00732   0.11836   0.00000  Uiso   1.00
H173   H     0.11755   0.16434   0.32956   0.00000  Uiso   1.00
H174   H     0.20098   0.24267   0.94225   0.00000  Uiso   1.00
H175   H     0.29674   0.89045   0.10048   0.00000  Uiso   1.00
O176   O     0.01361   0.15390   0.37015   0.00000  Uiso   1.00
O177   O     0.12306   0.25666   0.86201   0.00000  Uiso   1.00
O178   O     0.24870   0.79455   0.06960   0.00000  Uiso   1.00
N179   N     0.00538   0.11272   0.28005   0.00000  Uiso   1.00
N180   N     0.08338   0.18596   0.91795   0.00000  Uiso   1.00
N181   N     0.17291   0.85667   0.06586   0.00000  Uiso   1.00
N182   N     0.08785   0.14586   0.30534   0.00000  Uiso   1.00
N183   N     0.16585   0.21910   0.94324   0.00000  Uiso   1.00
N184   N     0.25538   0.88981   0.09115   0.00000  Uiso   1.00
C185   C     0.07996   0.95115   0.41424   0.00000  Uiso   1.00
C186   C     0.07956   0.92546   0.35451   0.00000  Uiso   1.00
C187   C     0.03329   0.92231   0.31838   0.00000  Uiso   1.00
C188   C     0.04156   0.89721   0.26546   0.00000  Uiso   1.00
C189   C     0.03293   0.86051   0.17518   0.00000  Uiso   1.00
C190   C     0.10106   0.90526   0.45431   0.00000  Uiso   1.00
C191   C     0.07285   0.88514   0.50208   0.00000  Uiso   1.00
C192   C     0.09922   0.84304   0.53317   0.00000  Uiso   1.00
C193   C     0.12397   0.77502   0.59785   0.00000  Uiso   1.00
C194   C     0.12573   0.99601   0.41353   0.00000  Uiso   1.00
C195   C     0.11827   0.05220   0.42704   0.00000  Uiso   1.00
C196   C     0.16542   0.08651   0.42381   0.00000  Uiso   1.00
C197   C     0.22848   0.15940   0.42519   0.00000  Uiso   1.00
C198   C     0.17695   0.91217   0.38451   0.00000  Uiso   1.00
C199   C     0.13224   0.90428   0.33836   0.00000  Uiso   1.00
C200   C     0.14059   0.87919   0.28548   0.00000  Uiso   1.00
C201   C     0.09434   0.87600   0.24928   0.00000  Uiso   1.00
C202   C     0.15373   0.88409   0.43816   0.00000  Uiso   1.00
C203   C     0.18015   0.84202   0.46918   0.00000  Uiso   1.00
C204   C     0.15200   0.82184   0.51699   0.00000  Uiso   1.00
C205   C     0.17841   0.97485   0.39738   0.00000  Uiso   1.00
C206   C     0.22558   0.00908   0.39414   0.00000  Uiso   1.00
C207   C     0.21820   0.06530   0.40763   0.00000  Uiso   1.00
H208   H     0.03895   0.96763   0.42682   0.00000  Uiso   1.00
H209   H     0.99253   0.93869   0.33090   0.00000  Uiso   1.00
H210   H     0.03209   0.90153   0.51457   0.00000  Uiso   1.00
H211   H     0.07750   0.06857   0.43954   0.00000  Uiso   1.00
H212   H     0.96429   0.89725   0.21744   0.00000  Uiso   1.00
H213   H     0.04771   0.81892   0.60474   0.00000  Uiso   1.00
H214   H     0.14348   0.17114   0.44652   0.00000  Uiso   1.00
H215   H     0.21796   0.89569   0.37193   0.00000  Uiso   1.00
H216   H     0.18136   0.86281   0.27299   0.00000  Uiso   1.00
H217   H     0.22092   0.82565   0.45667   0.00000  Uiso   1.00
H218   H     0.26634   0.99268   0.38164   0.00000  Uiso   1.00
H219   H     0.11755   0.83566   0.17044   0.00000  Uiso   1.00
H220   H     0.20098   0.75733   0.55775   0.00000  Uiso   1.00
H221   H     0.29674   0.10955   0.39952   0.00000  Uiso   1.00
O222   O     0.01361   0.84610   0.12985   0.00000  Uiso   1.00
O223   O     0.12306   0.74334   0.63799   0.00000  Uiso   1.00
O224   O     0.24870   0.20545   0.43040   0.00000  Uiso   1.00
N225   N     0.00538   0.88728   0.21995   0.00000  Uiso   1.00
N226   N     0.08338   0.81404   0.58205   0.00000  Uiso   1.00
N227   N     0.17291   0.14333   0.43414   0.00000  Uiso   1.00
N228   N     0.08785   0.85414   0.19466   0.00000  Uiso   1.00
N229   N     0.16585   0.78090   0.55676   0.00000  Uiso   1.00
N230   N     0.25538   0.11019   0.40885   0.00000  Uiso   1.00
C231   C     0.57996   0.45115   0.91424   0.00000  Uiso   1.00
C232   C     0.57956   0.42546   0.85451   0.00000  Uiso   1.00
C233   C     0.53329   0.42231   0.81838   0.00000  Uiso   1.00
C234   C     0.54156   0.39721   0.76546   0.00000  Uiso   1.00
C235   C     0.53293   0.36051   0.67518   0.00000  Uiso   1.00
C236   C     0.60106   0.40526   0.95431   0.00000  Uiso   1.00
C237   C     0.57285   0.38514   0.00208   0.00000  Uiso   1.00
C238   C     0.59922   0.34304   0.03317   0.00000  Uiso   1.00
C239   C     0.62397   0.27502   0.09785   0.00000  Uiso   1.00
C240   C     0.62573   0.49601   0.91353   0.00000  Uiso   1.00
C241   C     0.61827   0.55220   0.92704   0.00000  Uiso   1.00
C242   C     0.66542   0.58651   0.92381   0.00000  Uiso   1.00
C243   C     0.72848   0.65940   0.92519   0.00000  Uiso   1.00
C244   C     0.67695   0.41217   0.88451   0.00000  Uiso   1.00
C245   C     0.63224   0.40428   0.83836   0.00000  Uiso   1.00
C246   C     0.64059   0.37919   0.78548   0.00000  Uiso   1.00
C247   C     0.59434   0.37600   0.74928   0.00000  Uiso   1.00
C248   C     0.65373   0.38409   0.93816   0.00000  Uiso   1.00
C249   C     0.68015   0.34202   0.96918   0.00000  Uiso   1.00
C250   C     0.65200   0.32184   0.01699   0.00000  Uiso   1.00
C251   C     0.67841   0.47485   0.89738   0.00000  Uiso   1.00
C252   C     0.72558   0.50908   0.89414   0.00000  Uiso   1.00
C253   C     0.71820   0.56530   0.90763   0.00000  Uiso   1.00
H254   H     0.53895   0.46763   0.92682   0.00000  Uiso   1.00
H255   H     0.49253   0.43869   0.83090   0.00000  Uiso   1.00
H256   H     0.53209   0.40153   0.01457   0.00000  Uiso   1.00
H257   H     0.57750   0.56857   0.93954   0.00000  Uiso   1.00
H258   H     0.46429   0.39725   0.71744   0.00000  Uiso   1.00
H259   H     0.54771   0.31892   0.10474   0.00000  Uiso   1.00
H260   H     0.64348   0.67114   0.94652   0.00000  Uiso   1.00
H261   H     0.71796   0.39569   0.87193   0.00000  Uiso   1.00
H262   H     0.68136   0.36281   0.77299   0.00000  Uiso   1.00
H263   H     0.72092   0.32565   0.95667   0.00000  Uiso   1.00
H264   H     0.76634   0.49268   0.88164   0.00000  Uiso   1.00
H265   H     0.61755   0.33566   0.67044   0.00000  Uiso   1.00
H266   H     0.70098   0.25733   0.05775   0.00000  Uiso   1.00
H267   H     0.79674   0.60955   0.89952   0.00000  Uiso   1.00
O268   O     0.51361   0.34610   0.62985   0.00000  Uiso   1.00
O269   O     0.62306   0.24334   0.13799   0.00000  Uiso   1.00
O270   O     0.74870   0.70545   0.93040   0.00000  Uiso   1.00
N271   N     0.50538   0.38728   0.71995   0.00000  Uiso   1.00
N272   N     0.58338   0.31404   0.08205   0.00000  Uiso   1.00
N273   N     0.67291   0.64333   0.93414   0.00000  Uiso   1.00
N274   N     0.58785   0.35414   0.69466   0.00000  Uiso   1.00
N275   N     0.66585   0.28090   0.05676   0.00000  Uiso   1.00
N276   N     0.75538   0.61019   0.90885   0.00000  Uiso   1.00
C277   C     0.42004   0.04885   0.91424   0.00000  Uiso   1.00
C278   C     0.42044   0.07454   0.85451   0.00000  Uiso   1.00
C279   C     0.46671   0.07769   0.81838   0.00000  Uiso   1.00
C280   C     0.45844   0.10279   0.76546   0.00000  Uiso   1.00
C281   C     0.46707   0.13949   0.67518   0.00000  Uiso   1.00
C282   C     0.39894   0.09474   0.95431   0.00000  Uiso   1.00
C283   C     0.42715   0.11486   0.00208   0.00000  Uiso   1.00
C284   C     0.40078   0.15696   0.03317   0.00000  Uiso   1.00
C285   C     0.37603   0.22498   0.09785   0.00000  Uiso   1.00
C286   C     0.37427   0.00399   0.91353   0.00000  Uiso   1.00
C287   C     0.38173   0.94780   0.92704   0.00000  Uiso   1.00
C288   C     0.33458   0.91349   0.92381   0.00000  Uiso   1.00
C289   C     0.27152   0.84060   0.92519   0.00000  Uiso   1.00
C290   C     0.32305   0.08783   0.88451   0.00000  Uiso   1.00
C291   C     0.36776   0.09572   0.83836   0.00000  Uiso   1.00
C292   C     0.35941   0.12081   0.78548   0.00000  Uiso   1.00
C293   C     0.40566   0.12400   0.74928   0.00000  Uiso   1.00
C294   C     0.34627   0.11591   0.93816   0.00000  Uiso   1.00
C295   C     0.31985   0.15798   0.96918   0.00000  Uiso   1.00
C296   C     0.34800   0.17816   0.01699   0.00000  Uiso   1.00
C297   C     0.32159   0.02515   0.89738   0.00000  Uiso   1.00
C298   C     0.27442   0.99092   0.89414   0.00000  Uiso   1.00
C299   C     0.28180   0.93470   0.90763   0.00000  Uiso   1.00
H300   H     0.46105   0.03237   0.92682   0.00000  Uiso   1.00
H301   H     0.50747   0.06131   0.83090   0.00000  Uiso   1.00
H302   H     0.46791   0.09847   0.01457   0.00000  Uiso   1.00
H303   H     0.42250   0.93143   0.93954   0.00000  Uiso   1.00
H304   H     0.53571   0.10275   0.71744   0.00000  Uiso   1.00
H305   H     0.45229   0.18108   0.10474   0.00000  Uiso   1.00
H306   H     0.35652   0.82886   0.94652   0.00000  Uiso   1.00
H307   H     0.28204   0.10431   0.87193   0.00000  Uiso   1.00
H308   H     0.31864   0.13719   0.77299   0.00000  Uiso   1.00
H309   H     0.27908   0.17435   0.95667   0.00000  Uiso   1.00
H310   H     0.23366   0.00732   0.88164   0.00000  Uiso   1.00
H311   H     0.38245   0.16434   0.67044   0.00000  Uiso   1.00
H312   H     0.29902   0.24267   0.05775   0.00000  Uiso   1.00
H313   H     0.20326   0.89045   0.89952   0.00000  Uiso   1.00
O314   O     0.48639   0.15390   0.62985   0.00000  Uiso   1.00
O315   O     0.37694   0.25666   0.13799   0.00000  Uiso   1.00
O316   O     0.25130   0.79455   0.93040   0.00000  Uiso   1.00
N317   N     0.49462   0.11272   0.71995   0.00000  Uiso   1.00
N318   N     0.41662   0.18596   0.08205   0.00000  Uiso   1.00
N319   N     0.32709   0.85667   0.93414   0.00000  Uiso   1.00
N320   N     0.41215   0.14586   0.69466   0.00000  Uiso   1.00
N321   N     0.33415   0.21910   0.05676   0.00000  Uiso   1.00
N322   N     0.24462   0.88981   0.90885   0.00000  Uiso   1.00
C323   C     0.92004   0.54885   0.41424   0.00000  Uiso   1.00
C324   C     0.92044   0.57454   0.35451   0.00000  Uiso   1.00
C325   C     0.96671   0.57769   0.31838   0.00000  Uiso   1.00
C326   C     0.95844   0.60279   0.26546   0.00000  Uiso   1.00
C327   C     0.96707   0.63949   0.17518   0.00000  Uiso   1.00
C328   C     0.89894   0.59474   0.45431   0.00000  Uiso   1.00
C329   C     0.92715   0.61486   0.50208   0.00000  Uiso   1.00
C330   C     0.90078   0.65696   0.53317   0.00000  Uiso   1.00
C331   C     0.87603   0.72498   0.59785   0.00000  Uiso   1.00
C332   C     0.87427   0.50399   0.41353   0.00000  Uiso   1.00
C333   C     0.88173   0.44780   0.42704   0.00000  Uiso   1.00
C334   C     0.83458   0.41349   0.42381   0.00000  Uiso   1.00
C335   C     0.77152   0.34060   0.42519   0.00000  Uiso   1.00
C336   C     0.82305   0.58783   0.38451   0.00000  Uiso   1.00
C337   C     0.86776   0.59572   0.33836   0.00000  Uiso   1.00
C338   C     0.85941   0.62081   0.28548   0.00000  Uiso   1.00
C339   C     0.90566   0.62400   0.24928   0.00000  Uiso   1.00
C340   C     0.84627   0.61591   0.43816   0.00000  Uiso   1.00
C341   C     0.81985   0.65798   0.46918   0.00000  Uiso   1.00
C342   C     0.84800   0.67816   0.51699   0.00000  Uiso   1.00
C343   C     0.82159   0.52515   0.39738   0.00000  Uiso   1.00
C344   C     0.77442   0.49092   0.39414   0.00000  Uiso   1.00
C345   C     0.78180   0.43470   0.40763   0.00000  Uiso   1.00
H346   H     0.96105   0.53237   0.42682   0.00000  Uiso   1.00
H347   H     0.00747   0.56131   0.33090   0.00000  Uiso   1.00
H348   H     0.96791   0.59847   0.51457   0.00000  Uiso   1.00
H349   H     0.92250   0.43143   0.43954   0.00000  Uiso   1.00
H350   H     0.03571   0.60275   0.21744   0.00000  Uiso   1.00
H351   H     0.95229   0.68108   0.60474   0.00000  Uiso   1.00
H352   H     0.85652   0.32886   0.44652   0.00000  Uiso   1.00
H353   H     0.78204   0.60431   0.37193   0.00000  Uiso   1.00
H354   H     0.81864   0.63719   0.27299   0.00000  Uiso   1.00
H355   H     0.77908   0.67435   0.45667   0.00000  Uiso   1.00
H356   H     0.73366   0.50732   0.38164   0.00000  Uiso   1.00
H357   H     0.88245   0.66434   0.17044   0.00000  Uiso   1.00
H358   H     0.79902   0.74267   0.55775   0.00000  Uiso   1.00
H359   H     0.70326   0.39045   0.39952   0.00000  Uiso   1.00
O360   O     0.98639   0.65390   0.12985   0.00000  Uiso   1.00
O361   O     0.87694   0.75666   0.63799   0.00000  Uiso   1.00
O362   O     0.75130   0.29455   0.43040   0.00000  Uiso   1.00
N363   N     0.99462   0.61272   0.21995   0.00000  Uiso   1.00
N364   N     0.91662   0.68596   0.58205   0.00000  Uiso   1.00
N365   N     0.82709   0.35667   0.43414   0.00000  Uiso   1.00
N366   N     0.91215   0.64586   0.19466   0.00000  Uiso   1.00
N367   N     0.83415   0.71910   0.55676   0.00000  Uiso   1.00
N368   N     0.74462   0.38981   0.40885   0.00000  Uiso   1.00
C369   C     0.07996   0.54885   0.91424   0.00000  Uiso   1.00
C370   C     0.07956   0.57454   0.85451   0.00000  Uiso   1.00
C371   C     0.03329   0.57769   0.81838   0.00000  Uiso   1.00
C372   C     0.04156   0.60279   0.76546   0.00000  Uiso   1.00
C373   C     0.03293   0.63949   0.67518   0.00000  Uiso   1.00
C374   C     0.10106   0.59474   0.95431   0.00000  Uiso   1.00
C375   C     0.07285   0.61486   0.00208   0.00000  Uiso   1.00
C376   C     0.09922   0.65696   0.03317   0.00000  Uiso   1.00
C377   C     0.12397   0.72498   0.09785   0.00000  Uiso   1.00
C378   C     0.12573   0.50399   0.91353   0.00000  Uiso   1.00
C379   C     0.11827   0.44780   0.92704   0.00000  Uiso   1.00
C380   C     0.16542   0.41349   0.92381   0.00000  Uiso   1.00
C381   C     0.22848   0.34060   0.92519   0.00000  Uiso   1.00
C382   C     0.17695   0.58783   0.88451   0.00000  Uiso   1.00
C383   C     0.13224   0.59572   0.83836   0.00000  Uiso   1.00
C384   C     0.14059   0.62081   0.78548   0.00000  Uiso   1.00
C385   C     0.09434   0.62400   0.74928   0.00000  Uiso   1.00
C386   C     0.15373   0.61591   0.93816   0.00000  Uiso   1.00
C387   C     0.18015   0.65798   0.96918   0.00000  Uiso   1.00
C388   C     0.15200   0.67816   0.01699   0.00000  Uiso   1.00
C389   C     0.17841   0.52515   0.89738   0.00000  Uiso   1.00
C390   C     0.22558   0.49092   0.89414   0.00000  Uiso   1.00
C391   C     0.21820   0.43470   0.90763   0.00000  Uiso   1.00
H392   H     0.03895   0.53237   0.92682   0.00000  Uiso   1.00
H393   H     0.99253   0.56131   0.83090   0.00000  Uiso   1.00
H394   H     0.03209   0.59847   0.01457   0.00000  Uiso   1.00
H395   H     0.07750   0.43143   0.93954   0.00000  Uiso   1.00
H396   H     0.96429   0.60275   0.71744   0.00000  Uiso   1.00
H397   H     0.04771   0.68108   0.10474   0.00000  Uiso   1.00
H398   H     0.14348   0.32886   0.94652   0.00000  Uiso   1.00
H399   H     0.21796   0.60431   0.87193   0.00000  Uiso   1.00
H400   H     0.18136   0.63719   0.77299   0.00000  Uiso   1.00
H401   H     0.22092   0.67435   0.95667   0.00000  Uiso   1.00
H402   H     0.26634   0.50732   0.88164   0.00000  Uiso   1.00
H403   H     0.11755   0.66434   0.67044   0.00000  Uiso   1.00
H404   H     0.20098   0.74267   0.05775   0.00000  Uiso   1.00
H405   H     0.29674   0.39045   0.89952   0.00000  Uiso   1.00
O406   O     0.01361   0.65390   0.62985   0.00000  Uiso   1.00
O407   O     0.12306   0.75666   0.13799   0.00000  Uiso   1.00
O408   O     0.24870   0.29455   0.93040   0.00000  Uiso   1.00
N409   N     0.00538   0.61272   0.71995   0.00000  Uiso   1.00
N410   N     0.08338   0.68596   0.08205   0.00000  Uiso   1.00
N411   N     0.17291   0.35667   0.93414   0.00000  Uiso   1.00
N412   N     0.08785   0.64586   0.69466   0.00000  Uiso   1.00
N413   N     0.16585   0.71910   0.05676   0.00000  Uiso   1.00
N414   N     0.25538   0.38981   0.90885   0.00000  Uiso   1.00
C415   C     0.57996   0.04885   0.41424   0.00000  Uiso   1.00
C416   C     0.57956   0.07454   0.35451   0.00000  Uiso   1.00
C417   C     0.53329   0.07769   0.31838   0.00000  Uiso   1.00
C418   C     0.54156   0.10279   0.26546   0.00000  Uiso   1.00
C419   C     0.53293   0.13949   0.17518   0.00000  Uiso   1.00
C420   C     0.60106   0.09474   0.45431   0.00000  Uiso   1.00
C421   C     0.57285   0.11486   0.50208   0.00000  Uiso   1.00
C422   C     0.59922   0.15696   0.53317   0.00000  Uiso   1.00
C423   C     0.62397   0.22498   0.59785   0.00000  Uiso   1.00
C424   C     0.62573   0.00399   0.41353   0.00000  Uiso   1.00
C425   C     0.61827   0.94780   0.42704   0.00000  Uiso   1.00
C426   C     0.66542   0.91349   0.42381   0.00000  Uiso   1.00
C427   C     0.72848   0.84060   0.42519   0.00000  Uiso   1.00
C428   C     0.67695   0.08783   0.38451   0.00000  Uiso   1.00
C429   C     0.63224   0.09572   0.33836   0.00000  Uiso   1.00
C430   C     0.64059   0.12081   0.28548   0.00000  Uiso   1.00
C431   C     0.59434   0.12400   0.24928   0.00000  Uiso   1.00
C432   C     0.65373   0.11591   0.43816   0.00000  Uiso   1.00
C433   C     0.68015   0.15798   0.46918   0.00000  Uiso   1.00
C434   C     0.65200   0.17816   0.51699   0.00000  Uiso   1.00
C435   C     0.67841   0.02515   0.39738   0.00000  Uiso   1.00
C436   C     0.72558   0.99092   0.39414   0.00000  Uiso   1.00
C437   C     0.71820   0.93470   0.40763   0.00000  Uiso   1.00
H438   H     0.53895   0.03237   0.42682   0.00000  Uiso   1.00
H439   H     0.49253   0.06131   0.33090   0.00000  Uiso   1.00
H440   H     0.53209   0.09847   0.51457   0.00000  Uiso   1.00
H441   H     0.57750   0.93143   0.43954   0.00000  Uiso   1.00
H442   H     0.46429   0.10275   0.21744   0.00000  Uiso   1.00
H443   H     0.54771   0.18108   0.60474   0.00000  Uiso   1.00
H444   H     0.64348   0.82886   0.44652   0.00000  Uiso   1.00
H445   H     0.71796   0.10431   0.37193   0.00000  Uiso   1.00
H446   H     0.68136   0.13719   0.27299   0.00000  Uiso   1.00
H447   H     0.72092   0.17435   0.45667   0.00000  Uiso   1.00
H448   H     0.76634   0.00732   0.38164   0.00000  Uiso   1.00
H449   H     0.61755   0.16434   0.17044   0.00000  Uiso   1.00
H450   H     0.70098   0.24267   0.55775   0.00000  Uiso   1.00
H451   H     0.79674   0.89045   0.39952   0.00000  Uiso   1.00
O452   O     0.51361   0.15390   0.12985   0.00000  Uiso   1.00
O453   O     0.62306   0.25666   0.63799   0.00000  Uiso   1.00
O454   O     0.74870   0.79455   0.43040   0.00000  Uiso   1.00
N455   N     0.50538   0.11272   0.21995   0.00000  Uiso   1.00
N456   N     0.58338   0.18596   0.58205   0.00000  Uiso   1.00
N457   N     0.67291   0.85667   0.43414   0.00000  Uiso   1.00
N458   N     0.58785   0.14586   0.19466   0.00000  Uiso   1.00
N459   N     0.66585   0.21910   0.55676   0.00000  Uiso   1.00
N460   N     0.75538   0.88981   0.40885   0.00000  Uiso   1.00
C461   C     0.42004   0.45115   0.41424   0.00000  Uiso   1.00
C462   C     0.42044   0.42546   0.35451   0.00000  Uiso   1.00
C463   C     0.46671   0.42231   0.31838   0.00000  Uiso   1.00
C464   C     0.45844   0.39721   0.26546   0.00000  Uiso   1.00
C465   C     0.46707   0.36051   0.17518   0.00000  Uiso   1.00
C466   C     0.39894   0.40526   0.45431   0.00000  Uiso   1.00
C467   C     0.42715   0.38514   0.50208   0.00000  Uiso   1.00
C468   C     0.40078   0.34304   0.53317   0.00000  Uiso   1.00
C469   C     0.37603   0.27502   0.59785   0.00000  Uiso   1.00
C470   C     0.37427   0.49601   0.41353   0.00000  Uiso   1.00
C471   C     0.38173   0.55220   0.42704   0.00000  Uiso   1.00
C472   C     0.33458   0.58651   0.42381   0.00000  Uiso   1.00
C473   C     0.27152   0.65940   0.42519   0.00000  Uiso   1.00
C474   C     0.32305   0.41217   0.38451   0.00000  Uiso   1.00
C475   C     0.36776   0.40428   0.33836   0.00000  Uiso   1.00
C476   C     0.35941   0.37919   0.28548   0.00000  Uiso   1.00
C477   C     0.40566   0.37600   0.24928   0.00000  Uiso   1.00
C478   C     0.34627   0.38409   0.43816   0.00000  Uiso   1.00
C479   C     0.31985   0.34202   0.46918   0.00000  Uiso   1.00
C480   C     0.34800   0.32184   0.51699   0.00000  Uiso   1.00
C481   C     0.32159   0.47485   0.39738   0.00000  Uiso   1.00
C482   C     0.27442   0.50908   0.39414   0.00000  Uiso   1.00
C483   C     0.28180   0.56530   0.40763   0.00000  Uiso   1.00
H484   H     0.46105   0.46763   0.42682   0.00000  Uiso   1.00
H485   H     0.50747   0.43869   0.33090   0.00000  Uiso   1.00
H486   H     0.46791   0.40153   0.51457   0.00000  Uiso   1.00
H487   H     0.42250   0.56857   0.43954   0.00000  Uiso   1.00
H488   H     0.53571   0.39725   0.21744   0.00000  Uiso   1.00
H489   H     0.45229   0.31892   0.60474   0.00000  Uiso   1.00
H490   H     0.35652   0.67114   0.44652   0.00000  Uiso   1.00
H491   H     0.28204   0.39569   0.37193   0.00000  Uiso   1.00
H492   H     0.31864   0.36281   0.27299   0.00000  Uiso   1.00
H493   H     0.27908   0.32565   0.45667   0.00000  Uiso   1.00
H494   H     0.23366   0.49268   0.38164   0.00000  Uiso   1.00
H495   H     0.38245   0.33566   0.17044   0.00000  Uiso   1.00
H496   H     0.29902   0.25733   0.55775   0.00000  Uiso   1.00
H497   H     0.20326   0.60955   0.39952   0.00000  Uiso   1.00
O498   O     0.48639   0.34610   0.12985   0.00000  Uiso   1.00
O499   O     0.37694   0.24334   0.63799   0.00000  Uiso   1.00
O500   O     0.25130   0.70545   0.43040   0.00000  Uiso   1.00
N501   N     0.49462   0.38728   0.21995   0.00000  Uiso   1.00
N502   N     0.41662   0.31404   0.58205   0.00000  Uiso   1.00
N503   N     0.32709   0.64333   0.43414   0.00000  Uiso   1.00
N504   N     0.41215   0.35414   0.19466   0.00000  Uiso   1.00
N505   N     0.33415   0.28090   0.55676   0.00000  Uiso   1.00
N506   N     0.24462   0.61019   0.40885   0.00000  Uiso   1.00
C507   C     0.92004   0.95115   0.91424   0.00000  Uiso   1.00
C508   C     0.92044   0.92546   0.85451   0.00000  Uiso   1.00
C509   C     0.96671   0.92231   0.81838   0.00000  Uiso   1.00
C510   C     0.95844   0.89721   0.76546   0.00000  Uiso   1.00
C511   C     0.96707   0.86051   0.67518   0.00000  Uiso   1.00
C512   C     0.89894   0.90526   0.95431   0.00000  Uiso   1.00
C513   C     0.92715   0.88514   0.00208   0.00000  Uiso   1.00
C514   C     0.90078   0.84304   0.03317   0.00000  Uiso   1.00
C515   C     0.87603   0.77502   0.09785   0.00000  Uiso   1.00
C516   C     0.87427   0.99601   0.91353   0.00000  Uiso   1.00
C517   C     0.88173   0.05220   0.92704   0.00000  Uiso   1.00
C518   C     0.83458   0.08651   0.92381   0.00000  Uiso   1.00
C519   C     0.77152   0.15940   0.92519   0.00000  Uiso   1.00
C520   C     0.82305   0.91217   0.88451   0.00000  Uiso   1.00
C521   C     0.86776   0.90428   0.83836   0.00000  Uiso   1.00
C522   C     0.85941   0.87919   0.78548   0.00000  Uiso   1.00
C523   C     0.90566   0.87600   0.74928   0.00000  Uiso   1.00
C524   C     0.84627   0.88409   0.93816   0.00000  Uiso   1.00
C525   C     0.81985   0.84202   0.96918   0.00000  Uiso   1.00
C526   C     0.84800   0.82184   0.01699   0.00000  Uiso   1.00
C527   C     0.82159   0.97485   0.89738   0.00000  Uiso   1.00
C528   C     0.77442   0.00908   0.89414   0.00000  Uiso   1.00
C529   C     0.78180   0.06530   0.90763   0.00000  Uiso   1.00
H530   H     0.96105   0.96763   0.92682   0.00000  Uiso   1.00
H531   H     0.00747   0.93869   0.83090   0.00000  Uiso   1.00
H532   H     0.96791   0.90153   0.01457   0.00000  Uiso   1.00
H533   H     0.92250   0.06857   0.93954   0.00000  Uiso   1.00
H534   H     0.03571   0.89725   0.71744   0.00000  Uiso   1.00
H535   H     0.95229   0.81892   0.10474   0.00000  Uiso   1.00
H536   H     0.85652   0.17114   0.94652   0.00000  Uiso   1.00
H537   H     0.78204   0.89569   0.87193   0.00000  Uiso   1.00
H538   H     0.81864   0.86281   0.77299   0.00000  Uiso   1.00
H539   H     0.77908   0.82565   0.95667   0.00000  Uiso   1.00
H540   H     0.73366   0.99268   0.88164   0.00000  Uiso   1.00
H541   H     0.88245   0.83566   0.67044   0.00000  Uiso   1.00
H542   H     0.79902   0.75733   0.05775   0.00000  Uiso   1.00
H543   H     0.70326   0.10955   0.89952   0.00000  Uiso   1.00
O544   O     0.98639   0.84610   0.62985   0.00000  Uiso   1.00
O545   O     0.87694   0.74334   0.13799   0.00000  Uiso   1.00
O546   O     0.75130   0.20545   0.93040   0.00000  Uiso   1.00
N547   N     0.99462   0.88728   0.71995   0.00000  Uiso   1.00
N548   N     0.91662   0.81404   0.08205   0.00000  Uiso   1.00
N549   N     0.82709   0.14333   0.93414   0.00000  Uiso   1.00
N550   N     0.91215   0.85414   0.69466   0.00000  Uiso   1.00
N551   N     0.83415   0.78090   0.05676   0.00000  Uiso   1.00
N552   N     0.74462   0.11019   0.90885   0.00000  Uiso   1.00
C553   C     0.92004   0.04885   0.58576   0.00000  Uiso   1.00
C554   C     0.92044   0.07454   0.64549   0.00000  Uiso   1.00
C555   C     0.96671   0.07769   0.68162   0.00000  Uiso   1.00
C556   C     0.95844   0.10279   0.73454   0.00000  Uiso   1.00
C557   C     0.96707   0.13949   0.82482   0.00000  Uiso   1.00
C558   C     0.89894   0.09474   0.54569   0.00000  Uiso   1.00
C559   C     0.92715   0.11486   0.49792   0.00000  Uiso   1.00
C560   C     0.90078   0.15696   0.46683   0.00000  Uiso   1.00
C561   C     0.87603   0.22498   0.40215   0.00000  Uiso   1.00
C562   C     0.87427   0.00399   0.58647   0.00000  Uiso   1.00
C563   C     0.88173   0.94780   0.57296   0.00000  Uiso   1.00
C564   C     0.83458   0.91349   0.57619   0.00000  Uiso   1.00
C565   C     0.77152   0.84060   0.57481   0.00000  Uiso   1.00
C566   C     0.82305   0.08783   0.61549   0.00000  Uiso   1.00
C567   C     0.86776   0.09572   0.66164   0.00000  Uiso   1.00
C568   C     0.85941   0.12081   0.71452   0.00000  Uiso   1.00
C569   C     0.90566   0.12400   0.75072   0.00000  Uiso   1.00
C570   C     0.84627   0.11591   0.56184   0.00000  Uiso   1.00
C571   C     0.81985   0.15798   0.53082   0.00000  Uiso   1.00
C572   C     0.84800   0.17816   0.48301   0.00000  Uiso   1.00
C573   C     0.82159   0.02515   0.60262   0.00000  Uiso   1.00
C574   C     0.77442   0.99092   0.60586   0.00000  Uiso   1.00
C575   C     0.78180   0.93470   0.59237   0.00000  Uiso   1.00
H576   H     0.96105   0.03237   0.57318   0.00000  Uiso   1.00
H577   H     0.00747   0.06131   0.66910   0.00000  Uiso   1.00
H578   H     0.96791   0.09847   0.48543   0.00000  Uiso   1.00
H579   H     0.92250   0.93143   0.56046   0.00000  Uiso   1.00
H580   H     0.03571   0.10275   0.78256   0.00000  Uiso   1.00
H581   H     0.95229   0.18108   0.39526   0.00000  Uiso   1.00
H582   H     0.85652   0.82886   0.55348   0.00000  Uiso   1.00
H583   H     0.78204   0.10431   0.62807   0.00000  Uiso   1.00
H584   H     0.81864   0.13719   0.72701   0.00000  Uiso   1.00
H585   H     0.77908   0.17435   0.54333   0.00000  Uiso   1.00
H586   H     0.73366   0.00732   0.61836   0.00000  Uiso   1.00
H587   H     0.88245   0.16434   0.82956   0.00000  Uiso   1.00
H588   H     0.79902   0.24267   0.44225   0.00000  Uiso   1.00
H589   H     0.70326   0.89045   0.60048   0.00000  Uiso   1.00
O590   O     0.98639   0.15390   0.87015   0.00000  Uiso   1.00
O591   O     0.87694   0.25666   0.36201   0.00000  Uiso   1.00
O592   O     0.75130   0.79455   0.56960   0.00000  Uiso   1.00
N593   N     0.99462   0.11272   0.78005   0.00000  Uiso   1.00
N594   N     0.91662   0.18596   0.41795   0.00000  Uiso   1.00
N595   N     0.82709   0.85667   0.56586   0.00000  Uiso   1.00
N596   N     0.91215   0.14586   0.80534   0.00000  Uiso   1.00
N597   N     0.83415   0.21910   0.44324   0.00000  Uiso   1.00
N598   N     0.74462   0.88981   0.59115   0.00000  Uiso   1.00
C599   C     0.42004   0.54885   0.08576   0.00000  Uiso   1.00
C600   C     0.42044   0.57454   0.14549   0.00000  Uiso   1.00
C601   C     0.46671   0.57769   0.18162   0.00000  Uiso   1.00
C602   C     0.45844   0.60279   0.23454   0.00000  Uiso   1.00
C603   C     0.46707   0.63949   0.32482   0.00000  Uiso   1.00
C604   C     0.39894   0.59474   0.04569   0.00000  Uiso   1.00
C605   C     0.42715   0.61486   0.99792   0.00000  Uiso   1.00
C606   C     0.40078   0.65696   0.96683   0.00000  Uiso   1.00
C607   C     0.37603   0.72498   0.90215   0.00000  Uiso   1.00
C608   C     0.37427   0.50399   0.08647   0.00000  Uiso   1.00
C609   C     0.38173   0.44780   0.07296   0.00000  Uiso   1.00
C610   C     0.33458   0.41349   0.07619   0.00000  Uiso   1.00
C611   C     0.27152   0.34060   0.07481   0.00000  Uiso   1.00
C612   C     0.32305   0.58783   0.11549   0.00000  Uiso   1.00
C613   C     0.36776   0.59572   0.16164   0.00000  Uiso   1.00
C614   C     0.35941   0.62081   0.21452   0.00000  Uiso   1.00
C615   C     0.40566   0.62400   0.25072   0.00000  Uiso   1.00
C616   C     0.34627   0.61591   0.06184   0.00000  Uiso   1.00
C617   C     0.31985   0.65798   0.03082   0.00000  Uiso   1.00
C618   C     0.34800   0.67816   0.98301   0.00000  Uiso   1.00
C619   C     0.32159   0.52515   0.10262   0.00000  Uiso   1.00
C620   C     0.27442   0.49092   0.10586   0.00000  Uiso   1.00
C621   C     0.28180   0.43470   0.09237   0.00000  Uiso   1.00
H622   H     0.46105   0.53237   0.07318   0.00000  Uiso   1.00
H623   H     0.50747   0.56131   0.16910   0.00000  Uiso   1.00
H624   H     0.46791   0.59847   0.98543   0.00000  Uiso   1.00
H625   H     0.42250   0.43143   0.06046   0.00000  Uiso   1.00
H626   H     0.53571   0.60275   0.28256   0.00000  Uiso   1.00
H627   H     0.45229   0.68108   0.89526   0.00000  Uiso   1.00
H628   H     0.35652   0.32886   0.05348   0.00000  Uiso   1.00
H629   H     0.28204   0.60431   0.12807   0.00000  Uiso   1.00
H630   H     0.31864   0.63719   0.22701   0.00000  Uiso   1.00
H631   H     0.27908   0.67435   0.04333   0.00000  Uiso   1.00
H632   H     0.23366   0.50732   0.11836   0.00000  Uiso   1.00
H633   H     0.38245   0.66434   0.32956   0.00000  Uiso   1.00
H634   H     0.29902   0.74267   0.94225   0.00000  Uiso   1.00
H635   H     0.20326   0.39045   0.10048   0.00000  Uiso   1.00
O636   O     0.48639   0.65390   0.37015   0.00000  Uiso   1.00
O637   O     0.37694   0.75666   0.86201   0.00000  Uiso   1.00
O638   O     0.25130   0.29455   0.06960   0.00000  Uiso   1.00
N639   N     0.49462   0.61272   0.28005   0.00000  Uiso   1.00
N640   N     0.41662   0.68596   0.91795   0.00000  Uiso   1.00
N641   N     0.32709   0.35667   0.06586   0.00000  Uiso   1.00
N642   N     0.41215   0.64586   0.30534   0.00000  Uiso   1.00
N643   N     0.33415   0.71910   0.94324   0.00000  Uiso   1.00
N644   N     0.24462   0.38981   0.09115   0.00000  Uiso   1.00
C645   C     0.57996   0.95115   0.08576   0.00000  Uiso   1.00
C646   C     0.57956   0.92546   0.14549   0.00000  Uiso   1.00
C647   C     0.53329   0.92231   0.18162   0.00000  Uiso   1.00
C648   C     0.54156   0.89721   0.23454   0.00000  Uiso   1.00
C649   C     0.53293   0.86051   0.32482   0.00000  Uiso   1.00
C650   C     0.60106   0.90526   0.04569   0.00000  Uiso   1.00
C651   C     0.57285   0.88514   0.99792   0.00000  Uiso   1.00
C652   C     0.59922   0.84304   0.96683   0.00000  Uiso   1.00
C653   C     0.62397   0.77502   0.90215   0.00000  Uiso   1.00
C654   C     0.62573   0.99601   0.08647   0.00000  Uiso   1.00
C655   C     0.61827   0.05220   0.07296   0.00000  Uiso   1.00
C656   C     0.66542   0.08651   0.07619   0.00000  Uiso   1.00
C657   C     0.72848   0.15940   0.07481   0.00000  Uiso   1.00
C658   C     0.67695   0.91217   0.11549   0.00000  Uiso   1.00
C659   C     0.63224   0.90428   0.16164   0.00000  Uiso   1.00
C660   C     0.64059   0.87919   0.21452   0.00000  Uiso   1.00
C661   C     0.59434   0.87600   0.25072   0.00000  Uiso   1.00
C662   C     0.65373   0.88409   0.06184   0.00000  Uiso   1.00
C663   C     0.68015   0.84202   0.03082   0.00000  Uiso   1.00
C664   C     0.65200   0.82184   0.98301   0.00000  Uiso   1.00
C665   C     0.67841   0.97485   0.10262   0.00000  Uiso   1.00
C666   C     0.72558   0.00908   0.10586   0.00000  Uiso   1.00
C667   C     0.71820   0.06530   0.09237   0.00000  Uiso   1.00
H668   H     0.53895   0.96763   0.07318   0.00000  Uiso   1.00
H669   H     0.49253   0.93869   0.16910   0.00000  Uiso   1.00
H670   H     0.53209   0.90153   0.98543   0.00000  Uiso   1.00
H671   H     0.57750   0.06857   0.06046   0.00000  Uiso   1.00
H672   H     0.46429   0.89725   0.28256   0.00000  Uiso   1.00
H673   H     0.54771   0.81892   0.89526   0.00000  Uiso   1.00
H674   H     0.64348   0.17114   0.05348   0.00000  Uiso   1.00
H675   H     0.71796   0.89569   0.12807   0.00000  Uiso   1.00
H676   H     0.68136   0.86281   0.22701   0.00000  Uiso   1.00
H677   H     0.72092   0.82565   0.04333   0.00000  Uiso   1.00
H678   H     0.76634   0.99268   0.11836   0.00000  Uiso   1.00
H679   H     0.61755   0.83566   0.32956   0.00000  Uiso   1.00
H680   H     0.70098   0.75733   0.94225   0.00000  Uiso   1.00
H681   H     0.79674   0.10955   0.10048   0.00000  Uiso   1.00
O682   O     0.51361   0.84610   0.37015   0.00000  Uiso   1.00
O683   O     0.62306   0.74334   0.86201   0.00000  Uiso   1.00
O684   O     0.74870   0.20545   0.06960   0.00000  Uiso   1.00
N685   N     0.50538   0.88728   0.28005   0.00000  Uiso   1.00
N686   N     0.58338   0.81404   0.91795   0.00000  Uiso   1.00
N687   N     0.67291   0.14333   0.06586   0.00000  Uiso   1.00
N688   N     0.58785   0.85414   0.30534   0.00000  Uiso   1.00
N689   N     0.66585   0.78090   0.94324   0.00000  Uiso   1.00
N690   N     0.75538   0.11019   0.09115   0.00000  Uiso   1.00
C691   C     0.07996   0.45115   0.58576   0.00000  Uiso   1.00
C692   C     0.07956   0.42546   0.64549   0.00000  Uiso   1.00
C693   C     0.03329   0.42231   0.68162   0.00000  Uiso   1.00
C694   C     0.04156   0.39721   0.73454   0.00000  Uiso   1.00
C695   C     0.03293   0.36051   0.82482   0.00000  Uiso   1.00
C696   C     0.10106   0.40526   0.54569   0.00000  Uiso   1.00
C697   C     0.07285   0.38514   0.49792   0.00000  Uiso   1.00
C698   C     0.09922   0.34304   0.46683   0.00000  Uiso   1.00
C699   C     0.12397   0.27502   0.40215   0.00000  Uiso   1.00
C700   C     0.12573   0.49601   0.58647   0.00000  Uiso   1.00
C701   C     0.11827   0.55220   0.57296   0.00000  Uiso   1.00
C702   C     0.16542   0.58651   0.57619   0.00000  Uiso   1.00
C703   C     0.22848   0.65940   0.57481   0.00000  Uiso   1.00
C704   C     0.17695   0.41217   0.61549   0.00000  Uiso   1.00
C705   C     0.13224   0.40428   0.66164   0.00000  Uiso   1.00
C706   C     0.14059   0.37919   0.71452   0.00000  Uiso   1.00
C707   C     0.09434   0.37600   0.75072   0.00000  Uiso   1.00
C708   C     0.15373   0.38409   0.56184   0.00000  Uiso   1.00
C709   C     0.18015   0.34202   0.53082   0.00000  Uiso   1.00
C710   C     0.15200   0.32184   0.48301   0.00000  Uiso   1.00
C711   C     0.17841   0.47485   0.60262   0.00000  Uiso   1.00
C712   C     0.22558   0.50908   0.60586   0.00000  Uiso   1.00
C713   C     0.21820   0.56530   0.59237   0.00000  Uiso   1.00
H714   H     0.03895   0.46763   0.57318   0.00000  Uiso   1.00
H715   H     0.99253   0.43869   0.66910   0.00000  Uiso   1.00
H716   H     0.03209   0.40153   0.48543   0.00000  Uiso   1.00
H717   H     0.07750   0.56857   0.56046   0.00000  Uiso   1.00
H718   H     0.96429   0.39725   0.78256   0.00000  Uiso   1.00
H719   H     0.04771   0.31892   0.39526   0.00000  Uiso   1.00
H720   H     0.14348   0.67114   0.55348   0.00000  Uiso   1.00
H721   H     0.21796   0.39569   0.62807   0.00000  Uiso   1.00
H722   H     0.18136   0.36281   0.72701   0.00000  Uiso   1.00
H723   H     0.22092   0.32565   0.54333   0.00000  Uiso   1.00
H724   H     0.26634   0.49268   0.61836   0.00000  Uiso   1.00
H725   H     0.11755   0.33566   0.82956   0.00000  Uiso   1.00
H726   H     0.20098   0.25733   0.44225   0.00000  Uiso   1.00
H727   H     0.29674   0.60955   0.60048   0.00000  Uiso   1.00
O728   O     0.01361   0.34610   0.87015   0.00000  Uiso   1.00
O729   O     0.12306   0.24334   0.36201   0.00000  Uiso   1.00
O730   O     0.24870   0.70545   0.56960   0.00000  Uiso   1.00
N731   N     0.00538   0.38728   0.78005   0.00000  Uiso   1.00
N732   N     0.08338   0.31404   0.41795   0.00000  Uiso   1.00
N733   N     0.17291   0.64333   0.56586   0.00000  Uiso   1.00
N734   N     0.08785   0.35414   0.80534   0.00000  Uiso   1.00
N735   N     0.16585   0.28090   0.44324   0.00000  Uiso   1.00
N736   N     0.25538   0.61019   0.59115   0.00000  Uiso   1.00
