data_job_01675
_audit_creation_date              2018-12-19
_audit_creation_method            'Materials Studio'
_symmetry_space_group_name_H-M    'P1'
_symmetry_Int_Tables_number       1
_symmetry_cell_setting            triclinic
loop_
_symmetry_equiv_pos_as_xyz
  x,y,z
_cell_length_a                    37.0742
_cell_length_b                    37.0628
_cell_length_c                    7.2400
_cell_angle_alpha                 90.0000
_cell_angle_beta                  90.0000
_cell_angle_gamma                 90.0000
loop_
_atom_site_label
_atom_site_type_symbol
_atom_site_fract_x
_atom_site_fract_y
_atom_site_fract_z
_atom_site_U_iso_or_equiv
_atom_site_adp_type
_atom_site_occupancy
C1     C     0.37350   0.63512   0.51006   0.00000  Uiso   1.00
C2     C     0.41213   0.62321   0.54907   0.00000  Uiso   1.00
C3     C     0.43911   0.61884   0.41809   0.00000  Uiso   1.00
C4     C     0.47265   0.60775   0.48163   0.00000  Uiso   1.00
C5     C     0.53167   0.59023   0.51363   0.00000  Uiso   1.00
C6     C     0.34929   0.60560   0.58850   0.00000  Uiso   1.00
C7     C     0.32343   0.58643   0.49067   0.00000  Uiso   1.00
C8     C     0.30407   0.56051   0.58742   0.00000  Uiso   1.00
C9     C     0.26551   0.51567   0.68066   0.00000  Uiso   1.00
C10    C     0.36704   0.66838   0.62956   0.00000  Uiso   1.00
C11    C     0.35610   0.70199   0.56626   0.00000  Uiso   1.00
C12    C     0.35168   0.72893   0.69759   0.00000  Uiso   1.00
C13    C     0.34068   0.78155   0.85458   0.00000  Uiso   1.00
C14    C     0.38511   0.62321   0.85584   0.00000  Uiso   1.00
C15    C     0.41843   0.61674   0.73689   0.00000  Uiso   1.00
C16    C     0.45195   0.60566   0.80065   0.00000  Uiso   1.00
C17    C     0.47897   0.60127   0.66978   0.00000  Uiso   1.00
C18    C     0.35559   0.59913   0.77631   0.00000  Uiso   1.00
C19    C     0.33627   0.57324   0.87323   0.00000  Uiso   1.00
C20    C     0.31039   0.55403   0.77557   0.00000  Uiso   1.00
C21    C     0.37335   0.66191   0.81738   0.00000  Uiso   1.00
C22    C     0.36894   0.68880   0.94883   0.00000  Uiso   1.00
C23    C     0.35800   0.72244   0.88575   0.00000  Uiso   1.00
H24    H     0.36859   0.64016   0.36384   0.00000  Uiso   1.00
H25    H     0.43421   0.62385   0.27275   0.00000  Uiso   1.00
H26    H     0.31855   0.59144   0.34533   0.00000  Uiso   1.00
H27    H     0.35122   0.70698   0.42091   0.00000  Uiso   1.00
H28    H     0.50975   0.60290   0.25458   0.00000  Uiso   1.00
H29    H     0.26586   0.53458   0.40763   0.00000  Uiso   1.00
H30    H     0.33474   0.77822   0.56701   0.00000  Uiso   1.00
H31    H     0.39002   0.61817   0.00207   0.00000  Uiso   1.00
H32    H     0.45682   0.60065   0.94600   0.00000  Uiso   1.00
H33    H     0.34116   0.56824   0.01858   0.00000  Uiso   1.00
H34    H     0.37383   0.68378   0.09416   0.00000  Uiso   1.00
H35    H     0.52810   0.58407   0.80101   0.00000  Uiso   1.00
H36    H     0.28420   0.51575   0.95406   0.00000  Uiso   1.00
H37    H     0.35309   0.75939   0.11345   0.00000  Uiso   1.00
O38    O     0.56248   0.58235   0.47939   0.00000  Uiso   1.00
O39    O     0.24250   0.49272   0.68019   0.00000  Uiso   1.00
O40    O     0.33288   0.81237   0.88929   0.00000  Uiso   1.00
N41    N     0.50490   0.60088   0.39088   0.00000  Uiso   1.00
N42    N     0.27688   0.53700   0.53397   0.00000  Uiso   1.00
N43    N     0.34127   0.76478   0.68298   0.00000  Uiso   1.00
N44    N     0.51477   0.59075   0.68492   0.00000  Uiso   1.00
N45    N     0.28675   0.52686   0.82800   0.00000  Uiso   1.00
N46    N     0.35115   0.75465   0.97701   0.00000  Uiso   1.00
C47    C     0.37350   0.13512   0.01006   0.00000  Uiso   1.00
C48    C     0.41213   0.12321   0.04907   0.00000  Uiso   1.00
C49    C     0.43911   0.11884   0.91809   0.00000  Uiso   1.00
C50    C     0.47265   0.10775   0.98163   0.00000  Uiso   1.00
C51    C     0.53167   0.09023   0.01363   0.00000  Uiso   1.00
C52    C     0.34929   0.10560   0.08850   0.00000  Uiso   1.00
C53    C     0.32343   0.08643   0.99067   0.00000  Uiso   1.00
C54    C     0.30407   0.06051   0.08742   0.00000  Uiso   1.00
C55    C     0.26551   0.01567   0.18066   0.00000  Uiso   1.00
C56    C     0.36704   0.16838   0.12956   0.00000  Uiso   1.00
C57    C     0.35610   0.20199   0.06626   0.00000  Uiso   1.00
C58    C     0.35168   0.22893   0.19759   0.00000  Uiso   1.00
C59    C     0.34068   0.28155   0.35458   0.00000  Uiso   1.00
C60    C     0.38511   0.12321   0.35584   0.00000  Uiso   1.00
C61    C     0.41843   0.11674   0.23689   0.00000  Uiso   1.00
C62    C     0.45195   0.10566   0.30065   0.00000  Uiso   1.00
C63    C     0.47897   0.10127   0.16978   0.00000  Uiso   1.00
C64    C     0.35559   0.09913   0.27631   0.00000  Uiso   1.00
C65    C     0.33627   0.07324   0.37323   0.00000  Uiso   1.00
C66    C     0.31039   0.05403   0.27557   0.00000  Uiso   1.00
C67    C     0.37335   0.16191   0.31738   0.00000  Uiso   1.00
C68    C     0.36894   0.18880   0.44883   0.00000  Uiso   1.00
C69    C     0.35800   0.22244   0.38575   0.00000  Uiso   1.00
H70    H     0.36859   0.14016   0.86384   0.00000  Uiso   1.00
H71    H     0.43421   0.12385   0.77275   0.00000  Uiso   1.00
H72    H     0.31855   0.09144   0.84533   0.00000  Uiso   1.00
H73    H     0.35122   0.20698   0.92091   0.00000  Uiso   1.00
H74    H     0.50975   0.10290   0.75458   0.00000  Uiso   1.00
H75    H     0.26586   0.03458   0.90763   0.00000  Uiso   1.00
H76    H     0.33474   0.27822   0.06701   0.00000  Uiso   1.00
H77    H     0.39002   0.11817   0.50207   0.00000  Uiso   1.00
H78    H     0.45682   0.10065   0.44600   0.00000  Uiso   1.00
H79    H     0.34116   0.06824   0.51858   0.00000  Uiso   1.00
H80    H     0.37383   0.18378   0.59416   0.00000  Uiso   1.00
H81    H     0.52810   0.08407   0.30101   0.00000  Uiso   1.00
H82    H     0.28420   0.01575   0.45406   0.00000  Uiso   1.00
H83    H     0.35309   0.25939   0.61345   0.00000  Uiso   1.00
O84    O     0.56248   0.08235   0.97939   0.00000  Uiso   1.00
O85    O     0.24250   0.99272   0.18019   0.00000  Uiso   1.00
O86    O     0.33288   0.31237   0.38929   0.00000  Uiso   1.00
N87    N     0.50490   0.10088   0.89088   0.00000  Uiso   1.00
N88    N     0.27688   0.03700   0.03397   0.00000  Uiso   1.00
N89    N     0.34127   0.26478   0.18298   0.00000  Uiso   1.00
N90    N     0.51477   0.09075   0.18492   0.00000  Uiso   1.00
N91    N     0.28675   0.02686   0.32800   0.00000  Uiso   1.00
N92    N     0.35115   0.25465   0.47701   0.00000  Uiso   1.00
C93    C     0.87350   0.63512   0.01006   0.00000  Uiso   1.00
C94    C     0.91213   0.62321   0.04907   0.00000  Uiso   1.00
C95    C     0.93911   0.61884   0.91809   0.00000  Uiso   1.00
C96    C     0.97265   0.60775   0.98163   0.00000  Uiso   1.00
C97    C     0.03167   0.59023   0.01363   0.00000  Uiso   1.00
C98    C     0.84929   0.60560   0.08850   0.00000  Uiso   1.00
C99    C     0.82343   0.58643   0.99067   0.00000  Uiso   1.00
C100   C     0.80407   0.56051   0.08742   0.00000  Uiso   1.00
C101   C     0.76551   0.51567   0.18066   0.00000  Uiso   1.00
C102   C     0.86704   0.66838   0.12956   0.00000  Uiso   1.00
C103   C     0.85610   0.70199   0.06626   0.00000  Uiso   1.00
C104   C     0.85168   0.72893   0.19759   0.00000  Uiso   1.00
C105   C     0.84068   0.78155   0.35458   0.00000  Uiso   1.00
C106   C     0.88511   0.62321   0.35584   0.00000  Uiso   1.00
C107   C     0.91843   0.61674   0.23689   0.00000  Uiso   1.00
C108   C     0.95195   0.60566   0.30065   0.00000  Uiso   1.00
C109   C     0.97897   0.60127   0.16978   0.00000  Uiso   1.00
C110   C     0.85559   0.59913   0.27631   0.00000  Uiso   1.00
C111   C     0.83627   0.57324   0.37323   0.00000  Uiso   1.00
C112   C     0.81039   0.55403   0.27557   0.00000  Uiso   1.00
C113   C     0.87335   0.66191   0.31738   0.00000  Uiso   1.00
C114   C     0.86894   0.68880   0.44883   0.00000  Uiso   1.00
C115   C     0.85800   0.72244   0.38575   0.00000  Uiso   1.00
H116   H     0.86859   0.64016   0.86384   0.00000  Uiso   1.00
H117   H     0.93421   0.62385   0.77275   0.00000  Uiso   1.00
H118   H     0.81855   0.59144   0.84533   0.00000  Uiso   1.00
H119   H     0.85122   0.70698   0.92091   0.00000  Uiso   1.00
H120   H     0.00975   0.60290   0.75458   0.00000  Uiso   1.00
H121   H     0.76586   0.53458   0.90763   0.00000  Uiso   1.00
H122   H     0.83474   0.77822   0.06701   0.00000  Uiso   1.00
H123   H     0.89002   0.61817   0.50207   0.00000  Uiso   1.00
H124   H     0.95682   0.60065   0.44600   0.00000  Uiso   1.00
H125   H     0.84116   0.56824   0.51858   0.00000  Uiso   1.00
H126   H     0.87383   0.68378   0.59416   0.00000  Uiso   1.00
H127   H     0.02810   0.58407   0.30101   0.00000  Uiso   1.00
H128   H     0.78420   0.51575   0.45406   0.00000  Uiso   1.00
H129   H     0.85309   0.75939   0.61345   0.00000  Uiso   1.00
O130   O     0.06248   0.58235   0.97939   0.00000  Uiso   1.00
O131   O     0.74250   0.49272   0.18019   0.00000  Uiso   1.00
O132   O     0.83288   0.81237   0.38929   0.00000  Uiso   1.00
N133   N     0.00490   0.60088   0.89088   0.00000  Uiso   1.00
N134   N     0.77688   0.53700   0.03397   0.00000  Uiso   1.00
N135   N     0.84127   0.76478   0.18298   0.00000  Uiso   1.00
N136   N     0.01477   0.59075   0.18492   0.00000  Uiso   1.00
N137   N     0.78675   0.52686   0.32800   0.00000  Uiso   1.00
N138   N     0.85115   0.75465   0.47701   0.00000  Uiso   1.00
C139   C     0.87350   0.13512   0.51006   0.00000  Uiso   1.00
C140   C     0.91213   0.12321   0.54907   0.00000  Uiso   1.00
C141   C     0.93911   0.11884   0.41809   0.00000  Uiso   1.00
C142   C     0.97265   0.10775   0.48163   0.00000  Uiso   1.00
C143   C     0.03167   0.09023   0.51363   0.00000  Uiso   1.00
C144   C     0.84929   0.10560   0.58850   0.00000  Uiso   1.00
C145   C     0.82343   0.08643   0.49067   0.00000  Uiso   1.00
C146   C     0.80407   0.06051   0.58742   0.00000  Uiso   1.00
C147   C     0.76551   0.01567   0.68066   0.00000  Uiso   1.00
C148   C     0.86704   0.16838   0.62956   0.00000  Uiso   1.00
C149   C     0.85610   0.20199   0.56626   0.00000  Uiso   1.00
C150   C     0.85168   0.22893   0.69759   0.00000  Uiso   1.00
C151   C     0.84068   0.28155   0.85458   0.00000  Uiso   1.00
C152   C     0.88511   0.12321   0.85584   0.00000  Uiso   1.00
C153   C     0.91843   0.11674   0.73689   0.00000  Uiso   1.00
C154   C     0.95195   0.10566   0.80065   0.00000  Uiso   1.00
C155   C     0.97897   0.10127   0.66978   0.00000  Uiso   1.00
C156   C     0.85559   0.09913   0.77631   0.00000  Uiso   1.00
C157   C     0.83627   0.07324   0.87323   0.00000  Uiso   1.00
C158   C     0.81039   0.05403   0.77557   0.00000  Uiso   1.00
C159   C     0.87335   0.16191   0.81738   0.00000  Uiso   1.00
C160   C     0.86894   0.18880   0.94883   0.00000  Uiso   1.00
C161   C     0.85800   0.22244   0.88575   0.00000  Uiso   1.00
H162   H     0.86859   0.14016   0.36384   0.00000  Uiso   1.00
H163   H     0.93421   0.12385   0.27275   0.00000  Uiso   1.00
H164   H     0.81855   0.09144   0.34533   0.00000  Uiso   1.00
H165   H     0.85122   0.20698   0.42091   0.00000  Uiso   1.00
H166   H     0.00975   0.10290   0.25458   0.00000  Uiso   1.00
H167   H     0.76586   0.03458   0.40763   0.00000  Uiso   1.00
H168   H     0.83474   0.27822   0.56701   0.00000  Uiso   1.00
H169   H     0.89002   0.11817   0.00207   0.00000  Uiso   1.00
H170   H     0.95682   0.10065   0.94600   0.00000  Uiso   1.00
H171   H     0.84116   0.06824   0.01858   0.00000  Uiso   1.00
H172   H     0.87383   0.18378   0.09416   0.00000  Uiso   1.00
H173   H     0.02810   0.08407   0.80101   0.00000  Uiso   1.00
H174   H     0.78420   0.01575   0.95406   0.00000  Uiso   1.00
H175   H     0.85309   0.25939   0.11345   0.00000  Uiso   1.00
O176   O     0.06248   0.08235   0.47939   0.00000  Uiso   1.00
O177   O     0.74250   0.99272   0.68019   0.00000  Uiso   1.00
O178   O     0.83288   0.31237   0.88929   0.00000  Uiso   1.00
N179   N     0.00490   0.10088   0.39088   0.00000  Uiso   1.00
N180   N     0.77688   0.03700   0.53397   0.00000  Uiso   1.00
N181   N     0.84127   0.26478   0.68298   0.00000  Uiso   1.00
N182   N     0.01477   0.09075   0.68492   0.00000  Uiso   1.00
N183   N     0.78675   0.02686   0.82800   0.00000  Uiso   1.00
N184   N     0.85115   0.25465   0.97701   0.00000  Uiso   1.00
C185   C     0.62650   0.36488   0.51006   0.00000  Uiso   1.00
C186   C     0.58787   0.37679   0.54907   0.00000  Uiso   1.00
C187   C     0.56089   0.38116   0.41809   0.00000  Uiso   1.00
C188   C     0.52735   0.39225   0.48163   0.00000  Uiso   1.00
C189   C     0.46833   0.40977   0.51363   0.00000  Uiso   1.00
C190   C     0.65071   0.39440   0.58850   0.00000  Uiso   1.00
C191   C     0.67657   0.41357   0.49067   0.00000  Uiso   1.00
C192   C     0.69593   0.43949   0.58742   0.00000  Uiso   1.00
C193   C     0.73449   0.48433   0.68066   0.00000  Uiso   1.00
C194   C     0.63296   0.33162   0.62956   0.00000  Uiso   1.00
C195   C     0.64390   0.29801   0.56626   0.00000  Uiso   1.00
C196   C     0.64832   0.27107   0.69759   0.00000  Uiso   1.00
C197   C     0.65932   0.21845   0.85458   0.00000  Uiso   1.00
C198   C     0.61489   0.37679   0.85584   0.00000  Uiso   1.00
C199   C     0.58157   0.38326   0.73689   0.00000  Uiso   1.00
C200   C     0.54805   0.39434   0.80065   0.00000  Uiso   1.00
C201   C     0.52103   0.39873   0.66978   0.00000  Uiso   1.00
C202   C     0.64441   0.40087   0.77631   0.00000  Uiso   1.00
C203   C     0.66373   0.42676   0.87323   0.00000  Uiso   1.00
C204   C     0.68961   0.44597   0.77557   0.00000  Uiso   1.00
C205   C     0.62665   0.33809   0.81738   0.00000  Uiso   1.00
C206   C     0.63106   0.31120   0.94883   0.00000  Uiso   1.00
C207   C     0.64200   0.27756   0.88575   0.00000  Uiso   1.00
H208   H     0.63141   0.35984   0.36384   0.00000  Uiso   1.00
H209   H     0.56579   0.37615   0.27275   0.00000  Uiso   1.00
H210   H     0.68145   0.40856   0.34533   0.00000  Uiso   1.00
H211   H     0.64878   0.29302   0.42091   0.00000  Uiso   1.00
H212   H     0.49025   0.39710   0.25458   0.00000  Uiso   1.00
H213   H     0.73414   0.46542   0.40763   0.00000  Uiso   1.00
H214   H     0.66526   0.22178   0.56701   0.00000  Uiso   1.00
H215   H     0.60998   0.38183   0.00207   0.00000  Uiso   1.00
H216   H     0.54318   0.39935   0.94600   0.00000  Uiso   1.00
H217   H     0.65884   0.43176   0.01858   0.00000  Uiso   1.00
H218   H     0.62617   0.31622   0.09416   0.00000  Uiso   1.00
H219   H     0.47190   0.41593   0.80101   0.00000  Uiso   1.00
H220   H     0.71580   0.48425   0.95406   0.00000  Uiso   1.00
H221   H     0.64691   0.24061   0.11345   0.00000  Uiso   1.00
O222   O     0.43752   0.41765   0.47939   0.00000  Uiso   1.00
O223   O     0.75750   0.50728   0.68019   0.00000  Uiso   1.00
O224   O     0.66712   0.18763   0.88929   0.00000  Uiso   1.00
N225   N     0.49510   0.39912   0.39088   0.00000  Uiso   1.00
N226   N     0.72312   0.46300   0.53397   0.00000  Uiso   1.00
N227   N     0.65873   0.23522   0.68298   0.00000  Uiso   1.00
N228   N     0.48523   0.40925   0.68492   0.00000  Uiso   1.00
N229   N     0.71325   0.47314   0.82800   0.00000  Uiso   1.00
N230   N     0.64885   0.24535   0.97701   0.00000  Uiso   1.00
C231   C     0.62650   0.86488   0.01006   0.00000  Uiso   1.00
C232   C     0.58787   0.87679   0.04907   0.00000  Uiso   1.00
C233   C     0.56089   0.88116   0.91809   0.00000  Uiso   1.00
C234   C     0.52735   0.89225   0.98163   0.00000  Uiso   1.00
C235   C     0.46833   0.90977   0.01363   0.00000  Uiso   1.00
C236   C     0.65071   0.89440   0.08850   0.00000  Uiso   1.00
C237   C     0.67657   0.91357   0.99067   0.00000  Uiso   1.00
C238   C     0.69593   0.93949   0.08742   0.00000  Uiso   1.00
C239   C     0.73449   0.98433   0.18066   0.00000  Uiso   1.00
C240   C     0.63296   0.83162   0.12956   0.00000  Uiso   1.00
C241   C     0.64390   0.79801   0.06626   0.00000  Uiso   1.00
C242   C     0.64832   0.77107   0.19759   0.00000  Uiso   1.00
C243   C     0.65932   0.71845   0.35458   0.00000  Uiso   1.00
C244   C     0.61489   0.87679   0.35584   0.00000  Uiso   1.00
C245   C     0.58157   0.88326   0.23689   0.00000  Uiso   1.00
C246   C     0.54805   0.89434   0.30065   0.00000  Uiso   1.00
C247   C     0.52103   0.89873   0.16978   0.00000  Uiso   1.00
C248   C     0.64441   0.90087   0.27631   0.00000  Uiso   1.00
C249   C     0.66373   0.92676   0.37323   0.00000  Uiso   1.00
C250   C     0.68961   0.94597   0.27557   0.00000  Uiso   1.00
C251   C     0.62665   0.83809   0.31738   0.00000  Uiso   1.00
C252   C     0.63106   0.81120   0.44883   0.00000  Uiso   1.00
C253   C     0.64200   0.77756   0.38575   0.00000  Uiso   1.00
H254   H     0.63141   0.85984   0.86384   0.00000  Uiso   1.00
H255   H     0.56579   0.87615   0.77275   0.00000  Uiso   1.00
H256   H     0.68145   0.90856   0.84533   0.00000  Uiso   1.00
H257   H     0.64878   0.79302   0.92091   0.00000  Uiso   1.00
H258   H     0.49025   0.89710   0.75458   0.00000  Uiso   1.00
H259   H     0.73414   0.96542   0.90763   0.00000  Uiso   1.00
H260   H     0.66526   0.72178   0.06701   0.00000  Uiso   1.00
H261   H     0.60998   0.88183   0.50207   0.00000  Uiso   1.00
H262   H     0.54318   0.89935   0.44600   0.00000  Uiso   1.00
H263   H     0.65884   0.93176   0.51858   0.00000  Uiso   1.00
H264   H     0.62617   0.81622   0.59416   0.00000  Uiso   1.00
H265   H     0.47190   0.91593   0.30101   0.00000  Uiso   1.00
H266   H     0.71580   0.98425   0.45406   0.00000  Uiso   1.00
H267   H     0.64691   0.74061   0.61345   0.00000  Uiso   1.00
O268   O     0.43752   0.91765   0.97939   0.00000  Uiso   1.00
O269   O     0.75750   0.00728   0.18019   0.00000  Uiso   1.00
O270   O     0.66712   0.68763   0.38929   0.00000  Uiso   1.00
N271   N     0.49510   0.89912   0.89088   0.00000  Uiso   1.00
N272   N     0.72312   0.96300   0.03397   0.00000  Uiso   1.00
N273   N     0.65873   0.73522   0.18298   0.00000  Uiso   1.00
N274   N     0.48523   0.90925   0.18492   0.00000  Uiso   1.00
N275   N     0.71325   0.97314   0.32800   0.00000  Uiso   1.00
N276   N     0.64885   0.74535   0.47701   0.00000  Uiso   1.00
C277   C     0.12650   0.36488   0.01006   0.00000  Uiso   1.00
C278   C     0.08787   0.37679   0.04907   0.00000  Uiso   1.00
C279   C     0.06089   0.38116   0.91809   0.00000  Uiso   1.00
C280   C     0.02735   0.39225   0.98163   0.00000  Uiso   1.00
C281   C     0.96833   0.40977   0.01363   0.00000  Uiso   1.00
C282   C     0.15071   0.39440   0.08850   0.00000  Uiso   1.00
C283   C     0.17657   0.41357   0.99067   0.00000  Uiso   1.00
C284   C     0.19593   0.43949   0.08742   0.00000  Uiso   1.00
C285   C     0.23449   0.48433   0.18066   0.00000  Uiso   1.00
C286   C     0.13296   0.33162   0.12956   0.00000  Uiso   1.00
C287   C     0.14390   0.29801   0.06626   0.00000  Uiso   1.00
C288   C     0.14832   0.27107   0.19759   0.00000  Uiso   1.00
C289   C     0.15932   0.21845   0.35458   0.00000  Uiso   1.00
C290   C     0.11489   0.37679   0.35584   0.00000  Uiso   1.00
C291   C     0.08157   0.38326   0.23689   0.00000  Uiso   1.00
C292   C     0.04805   0.39434   0.30065   0.00000  Uiso   1.00
C293   C     0.02103   0.39873   0.16978   0.00000  Uiso   1.00
C294   C     0.14441   0.40087   0.27631   0.00000  Uiso   1.00
C295   C     0.16373   0.42676   0.37323   0.00000  Uiso   1.00
C296   C     0.18961   0.44597   0.27557   0.00000  Uiso   1.00
C297   C     0.12665   0.33809   0.31738   0.00000  Uiso   1.00
C298   C     0.13106   0.31120   0.44883   0.00000  Uiso   1.00
C299   C     0.14200   0.27756   0.38575   0.00000  Uiso   1.00
H300   H     0.13141   0.35984   0.86384   0.00000  Uiso   1.00
H301   H     0.06579   0.37615   0.77275   0.00000  Uiso   1.00
H302   H     0.18145   0.40856   0.84533   0.00000  Uiso   1.00
H303   H     0.14878   0.29302   0.92091   0.00000  Uiso   1.00
H304   H     0.99025   0.39710   0.75458   0.00000  Uiso   1.00
H305   H     0.23414   0.46542   0.90763   0.00000  Uiso   1.00
H306   H     0.16526   0.22178   0.06701   0.00000  Uiso   1.00
H307   H     0.10998   0.38183   0.50207   0.00000  Uiso   1.00
H308   H     0.04318   0.39935   0.44600   0.00000  Uiso   1.00
H309   H     0.15884   0.43176   0.51858   0.00000  Uiso   1.00
H310   H     0.12617   0.31622   0.59416   0.00000  Uiso   1.00
H311   H     0.97190   0.41593   0.30101   0.00000  Uiso   1.00
H312   H     0.21580   0.48425   0.45406   0.00000  Uiso   1.00
H313   H     0.14691   0.24061   0.61345   0.00000  Uiso   1.00
O314   O     0.93752   0.41765   0.97939   0.00000  Uiso   1.00
O315   O     0.25750   0.50728   0.18019   0.00000  Uiso   1.00
O316   O     0.16712   0.18763   0.38929   0.00000  Uiso   1.00
N317   N     0.99510   0.39912   0.89088   0.00000  Uiso   1.00
N318   N     0.22312   0.46300   0.03397   0.00000  Uiso   1.00
N319   N     0.15873   0.23522   0.18298   0.00000  Uiso   1.00
N320   N     0.98523   0.40925   0.18492   0.00000  Uiso   1.00
N321   N     0.21325   0.47314   0.32800   0.00000  Uiso   1.00
N322   N     0.14885   0.24535   0.47701   0.00000  Uiso   1.00
C323   C     0.12650   0.86488   0.51006   0.00000  Uiso   1.00
C324   C     0.08787   0.87679   0.54907   0.00000  Uiso   1.00
C325   C     0.06089   0.88116   0.41809   0.00000  Uiso   1.00
C326   C     0.02735   0.89225   0.48163   0.00000  Uiso   1.00
C327   C     0.96833   0.90977   0.51363   0.00000  Uiso   1.00
C328   C     0.15071   0.89440   0.58850   0.00000  Uiso   1.00
C329   C     0.17657   0.91357   0.49067   0.00000  Uiso   1.00
C330   C     0.19593   0.93949   0.58742   0.00000  Uiso   1.00
C331   C     0.23449   0.98433   0.68066   0.00000  Uiso   1.00
C332   C     0.13296   0.83162   0.62956   0.00000  Uiso   1.00
C333   C     0.14390   0.79801   0.56626   0.00000  Uiso   1.00
C334   C     0.14832   0.77107   0.69759   0.00000  Uiso   1.00
C335   C     0.15932   0.71845   0.85458   0.00000  Uiso   1.00
C336   C     0.11489   0.87679   0.85584   0.00000  Uiso   1.00
C337   C     0.08157   0.88326   0.73689   0.00000  Uiso   1.00
C338   C     0.04805   0.89434   0.80065   0.00000  Uiso   1.00
C339   C     0.02103   0.89873   0.66978   0.00000  Uiso   1.00
C340   C     0.14441   0.90087   0.77631   0.00000  Uiso   1.00
C341   C     0.16373   0.92676   0.87323   0.00000  Uiso   1.00
C342   C     0.18961   0.94597   0.77557   0.00000  Uiso   1.00
C343   C     0.12665   0.83809   0.81738   0.00000  Uiso   1.00
C344   C     0.13106   0.81120   0.94883   0.00000  Uiso   1.00
C345   C     0.14200   0.77756   0.88575   0.00000  Uiso   1.00
H346   H     0.13141   0.85984   0.36384   0.00000  Uiso   1.00
H347   H     0.06579   0.87615   0.27275   0.00000  Uiso   1.00
H348   H     0.18145   0.90856   0.34533   0.00000  Uiso   1.00
H349   H     0.14878   0.79302   0.42091   0.00000  Uiso   1.00
H350   H     0.99025   0.89710   0.25458   0.00000  Uiso   1.00
H351   H     0.23414   0.96542   0.40763   0.00000  Uiso   1.00
H352   H     0.16526   0.72178   0.56701   0.00000  Uiso   1.00
H353   H     0.10998   0.88183   0.00207   0.00000  Uiso   1.00
H354   H     0.04318   0.89935   0.94600   0.00000  Uiso   1.00
H355   H     0.15884   0.93176   0.01858   0.00000  Uiso   1.00
H356   H     0.12617   0.81622   0.09416   0.00000  Uiso   1.00
H357   H     0.97190   0.91593   0.80101   0.00000  Uiso   1.00
H358   H     0.21580   0.98425   0.95406   0.00000  Uiso   1.00
H359   H     0.14691   0.74061   0.11345   0.00000  Uiso   1.00
O360   O     0.93752   0.91765   0.47939   0.00000  Uiso   1.00
O361   O     0.25750   0.00728   0.68019   0.00000  Uiso   1.00
O362   O     0.16712   0.68763   0.88929   0.00000  Uiso   1.00
N363   N     0.99510   0.89912   0.39088   0.00000  Uiso   1.00
N364   N     0.22312   0.96300   0.53397   0.00000  Uiso   1.00
N365   N     0.15873   0.73522   0.68298   0.00000  Uiso   1.00
N366   N     0.98523   0.90925   0.68492   0.00000  Uiso   1.00
N367   N     0.21325   0.97314   0.82800   0.00000  Uiso   1.00
N368   N     0.14885   0.74535   0.97701   0.00000  Uiso   1.00
C369   C     0.62350   0.61488   0.76006   0.00000  Uiso   1.00
C370   C     0.66213   0.62679   0.79907   0.00000  Uiso   1.00
C371   C     0.68911   0.63116   0.66809   0.00000  Uiso   1.00
C372   C     0.72265   0.64225   0.73163   0.00000  Uiso   1.00
C373   C     0.78167   0.65977   0.76363   0.00000  Uiso   1.00
C374   C     0.59929   0.64440   0.83850   0.00000  Uiso   1.00
C375   C     0.57343   0.66357   0.74067   0.00000  Uiso   1.00
C376   C     0.55407   0.68949   0.83742   0.00000  Uiso   1.00
C377   C     0.51551   0.73433   0.93066   0.00000  Uiso   1.00
C378   C     0.61704   0.58162   0.87956   0.00000  Uiso   1.00
C379   C     0.60610   0.54801   0.81626   0.00000  Uiso   1.00
C380   C     0.60168   0.52107   0.94759   0.00000  Uiso   1.00
C381   C     0.59068   0.46845   0.10458   0.00000  Uiso   1.00
C382   C     0.63511   0.62679   0.10584   0.00000  Uiso   1.00
C383   C     0.66843   0.63326   0.98689   0.00000  Uiso   1.00
C384   C     0.70195   0.64434   0.05065   0.00000  Uiso   1.00
C385   C     0.72897   0.64873   0.91978   0.00000  Uiso   1.00
C386   C     0.60559   0.65087   0.02631   0.00000  Uiso   1.00
C387   C     0.58627   0.67676   0.12323   0.00000  Uiso   1.00
C388   C     0.56039   0.69597   0.02557   0.00000  Uiso   1.00
C389   C     0.62335   0.58809   0.06738   0.00000  Uiso   1.00
C390   C     0.61894   0.56120   0.19883   0.00000  Uiso   1.00
C391   C     0.60800   0.52756   0.13575   0.00000  Uiso   1.00
H392   H     0.61859   0.60984   0.61384   0.00000  Uiso   1.00
H393   H     0.68421   0.62615   0.52275   0.00000  Uiso   1.00
H394   H     0.56855   0.65856   0.59533   0.00000  Uiso   1.00
H395   H     0.60122   0.54302   0.67091   0.00000  Uiso   1.00
H396   H     0.75975   0.64710   0.50458   0.00000  Uiso   1.00
H397   H     0.51586   0.71542   0.65763   0.00000  Uiso   1.00
H398   H     0.58474   0.47178   0.81701   0.00000  Uiso   1.00
H399   H     0.64002   0.63183   0.25207   0.00000  Uiso   1.00
H400   H     0.70682   0.64935   0.19600   0.00000  Uiso   1.00
H401   H     0.59116   0.68176   0.26858   0.00000  Uiso   1.00
H402   H     0.62383   0.56622   0.34416   0.00000  Uiso   1.00
H403   H     0.77810   0.66593   0.05101   0.00000  Uiso   1.00
H404   H     0.53420   0.73425   0.20406   0.00000  Uiso   1.00
H405   H     0.60309   0.49061   0.36345   0.00000  Uiso   1.00
O406   O     0.81248   0.66765   0.72939   0.00000  Uiso   1.00
O407   O     0.49250   0.75728   0.93019   0.00000  Uiso   1.00
O408   O     0.58288   0.43763   0.13929   0.00000  Uiso   1.00
N409   N     0.75490   0.64912   0.64088   0.00000  Uiso   1.00
N410   N     0.52688   0.71300   0.78397   0.00000  Uiso   1.00
N411   N     0.59127   0.48522   0.93298   0.00000  Uiso   1.00
N412   N     0.76477   0.65925   0.93492   0.00000  Uiso   1.00
N413   N     0.53675   0.72314   0.07800   0.00000  Uiso   1.00
N414   N     0.60115   0.49535   0.22701   0.00000  Uiso   1.00
C415   C     0.62350   0.11488   0.26006   0.00000  Uiso   1.00
C416   C     0.66213   0.12679   0.29907   0.00000  Uiso   1.00
C417   C     0.68911   0.13116   0.16809   0.00000  Uiso   1.00
C418   C     0.72265   0.14225   0.23163   0.00000  Uiso   1.00
C419   C     0.78167   0.15977   0.26363   0.00000  Uiso   1.00
C420   C     0.59929   0.14440   0.33850   0.00000  Uiso   1.00
C421   C     0.57343   0.16357   0.24067   0.00000  Uiso   1.00
C422   C     0.55407   0.18949   0.33742   0.00000  Uiso   1.00
C423   C     0.51551   0.23433   0.43066   0.00000  Uiso   1.00
C424   C     0.61704   0.08162   0.37956   0.00000  Uiso   1.00
C425   C     0.60610   0.04801   0.31626   0.00000  Uiso   1.00
C426   C     0.60168   0.02107   0.44759   0.00000  Uiso   1.00
C427   C     0.59068   0.96845   0.60458   0.00000  Uiso   1.00
C428   C     0.63511   0.12679   0.60584   0.00000  Uiso   1.00
C429   C     0.66843   0.13326   0.48689   0.00000  Uiso   1.00
C430   C     0.70195   0.14434   0.55065   0.00000  Uiso   1.00
C431   C     0.72897   0.14873   0.41978   0.00000  Uiso   1.00
C432   C     0.60559   0.15087   0.52631   0.00000  Uiso   1.00
C433   C     0.58627   0.17676   0.62323   0.00000  Uiso   1.00
C434   C     0.56039   0.19597   0.52557   0.00000  Uiso   1.00
C435   C     0.62335   0.08809   0.56738   0.00000  Uiso   1.00
C436   C     0.61894   0.06120   0.69883   0.00000  Uiso   1.00
C437   C     0.60800   0.02756   0.63575   0.00000  Uiso   1.00
H438   H     0.61859   0.10984   0.11384   0.00000  Uiso   1.00
H439   H     0.68421   0.12615   0.02275   0.00000  Uiso   1.00
H440   H     0.56855   0.15856   0.09533   0.00000  Uiso   1.00
H441   H     0.60122   0.04302   0.17091   0.00000  Uiso   1.00
H442   H     0.75975   0.14710   0.00458   0.00000  Uiso   1.00
H443   H     0.51586   0.21542   0.15763   0.00000  Uiso   1.00
H444   H     0.58474   0.97178   0.31701   0.00000  Uiso   1.00
H445   H     0.64002   0.13183   0.75207   0.00000  Uiso   1.00
H446   H     0.70682   0.14935   0.69600   0.00000  Uiso   1.00
H447   H     0.59116   0.18176   0.76858   0.00000  Uiso   1.00
H448   H     0.62383   0.06622   0.84416   0.00000  Uiso   1.00
H449   H     0.77810   0.16593   0.55101   0.00000  Uiso   1.00
H450   H     0.53420   0.23425   0.70406   0.00000  Uiso   1.00
H451   H     0.60309   0.99061   0.86345   0.00000  Uiso   1.00
O452   O     0.81248   0.16765   0.22939   0.00000  Uiso   1.00
O453   O     0.49250   0.25728   0.43019   0.00000  Uiso   1.00
O454   O     0.58288   0.93763   0.63929   0.00000  Uiso   1.00
N455   N     0.75490   0.14912   0.14088   0.00000  Uiso   1.00
N456   N     0.52688   0.21300   0.28397   0.00000  Uiso   1.00
N457   N     0.59127   0.98522   0.43298   0.00000  Uiso   1.00
N458   N     0.76477   0.15925   0.43492   0.00000  Uiso   1.00
N459   N     0.53675   0.22314   0.57800   0.00000  Uiso   1.00
N460   N     0.60115   0.99535   0.72701   0.00000  Uiso   1.00
C461   C     0.12350   0.61488   0.26006   0.00000  Uiso   1.00
C462   C     0.16213   0.62679   0.29907   0.00000  Uiso   1.00
C463   C     0.18911   0.63116   0.16809   0.00000  Uiso   1.00
C464   C     0.22265   0.64225   0.23163   0.00000  Uiso   1.00
C465   C     0.28167   0.65977   0.26363   0.00000  Uiso   1.00
C466   C     0.09929   0.64440   0.33850   0.00000  Uiso   1.00
C467   C     0.07343   0.66357   0.24067   0.00000  Uiso   1.00
C468   C     0.05407   0.68949   0.33742   0.00000  Uiso   1.00
C469   C     0.01551   0.73433   0.43066   0.00000  Uiso   1.00
C470   C     0.11704   0.58162   0.37956   0.00000  Uiso   1.00
C471   C     0.10610   0.54801   0.31626   0.00000  Uiso   1.00
C472   C     0.10168   0.52107   0.44759   0.00000  Uiso   1.00
C473   C     0.09068   0.46845   0.60458   0.00000  Uiso   1.00
C474   C     0.13511   0.62679   0.60584   0.00000  Uiso   1.00
C475   C     0.16843   0.63326   0.48689   0.00000  Uiso   1.00
C476   C     0.20195   0.64434   0.55065   0.00000  Uiso   1.00
C477   C     0.22897   0.64873   0.41978   0.00000  Uiso   1.00
C478   C     0.10559   0.65087   0.52631   0.00000  Uiso   1.00
C479   C     0.08627   0.67676   0.62323   0.00000  Uiso   1.00
C480   C     0.06039   0.69597   0.52557   0.00000  Uiso   1.00
C481   C     0.12335   0.58809   0.56738   0.00000  Uiso   1.00
C482   C     0.11894   0.56120   0.69883   0.00000  Uiso   1.00
C483   C     0.10800   0.52756   0.63575   0.00000  Uiso   1.00
H484   H     0.11859   0.60984   0.11384   0.00000  Uiso   1.00
H485   H     0.18421   0.62615   0.02275   0.00000  Uiso   1.00
H486   H     0.06855   0.65856   0.09533   0.00000  Uiso   1.00
H487   H     0.10122   0.54302   0.17091   0.00000  Uiso   1.00
H488   H     0.25975   0.64710   0.00458   0.00000  Uiso   1.00
H489   H     0.01586   0.71542   0.15763   0.00000  Uiso   1.00
H490   H     0.08474   0.47178   0.31701   0.00000  Uiso   1.00
H491   H     0.14002   0.63183   0.75207   0.00000  Uiso   1.00
H492   H     0.20682   0.64935   0.69600   0.00000  Uiso   1.00
H493   H     0.09116   0.68176   0.76858   0.00000  Uiso   1.00
H494   H     0.12383   0.56622   0.84416   0.00000  Uiso   1.00
H495   H     0.27810   0.66593   0.55101   0.00000  Uiso   1.00
H496   H     0.03420   0.73425   0.70406   0.00000  Uiso   1.00
H497   H     0.10309   0.49061   0.86345   0.00000  Uiso   1.00
O498   O     0.31248   0.66765   0.22939   0.00000  Uiso   1.00
O499   O     0.99250   0.75728   0.43019   0.00000  Uiso   1.00
O500   O     0.08288   0.43763   0.63929   0.00000  Uiso   1.00
N501   N     0.25490   0.64912   0.14088   0.00000  Uiso   1.00
N502   N     0.02688   0.71300   0.28397   0.00000  Uiso   1.00
N503   N     0.09127   0.48522   0.43298   0.00000  Uiso   1.00
N504   N     0.26477   0.65925   0.43492   0.00000  Uiso   1.00
N505   N     0.03675   0.72314   0.57800   0.00000  Uiso   1.00
N506   N     0.10115   0.49535   0.72701   0.00000  Uiso   1.00
C507   C     0.12350   0.11488   0.76006   0.00000  Uiso   1.00
C508   C     0.16213   0.12679   0.79907   0.00000  Uiso   1.00
C509   C     0.18911   0.13116   0.66809   0.00000  Uiso   1.00
C510   C     0.22265   0.14225   0.73163   0.00000  Uiso   1.00
C511   C     0.28167   0.15977   0.76363   0.00000  Uiso   1.00
C512   C     0.09929   0.14440   0.83850   0.00000  Uiso   1.00
C513   C     0.07343   0.16357   0.74067   0.00000  Uiso   1.00
C514   C     0.05407   0.18949   0.83742   0.00000  Uiso   1.00
C515   C     0.01551   0.23433   0.93066   0.00000  Uiso   1.00
C516   C     0.11704   0.08162   0.87956   0.00000  Uiso   1.00
C517   C     0.10610   0.04801   0.81626   0.00000  Uiso   1.00
C518   C     0.10168   0.02107   0.94759   0.00000  Uiso   1.00
C519   C     0.09068   0.96845   0.10458   0.00000  Uiso   1.00
C520   C     0.13511   0.12679   0.10584   0.00000  Uiso   1.00
C521   C     0.16843   0.13326   0.98689   0.00000  Uiso   1.00
C522   C     0.20195   0.14434   0.05065   0.00000  Uiso   1.00
C523   C     0.22897   0.14873   0.91978   0.00000  Uiso   1.00
C524   C     0.10559   0.15087   0.02631   0.00000  Uiso   1.00
C525   C     0.08627   0.17676   0.12323   0.00000  Uiso   1.00
C526   C     0.06039   0.19597   0.02557   0.00000  Uiso   1.00
C527   C     0.12335   0.08809   0.06738   0.00000  Uiso   1.00
C528   C     0.11894   0.06120   0.19883   0.00000  Uiso   1.00
C529   C     0.10800   0.02756   0.13575   0.00000  Uiso   1.00
H530   H     0.11859   0.10984   0.61384   0.00000  Uiso   1.00
H531   H     0.18421   0.12615   0.52275   0.00000  Uiso   1.00
H532   H     0.06855   0.15856   0.59533   0.00000  Uiso   1.00
H533   H     0.10122   0.04302   0.67091   0.00000  Uiso   1.00
H534   H     0.25975   0.14710   0.50458   0.00000  Uiso   1.00
H535   H     0.01586   0.21542   0.65763   0.00000  Uiso   1.00
H536   H     0.08474   0.97178   0.81701   0.00000  Uiso   1.00
H537   H     0.14002   0.13183   0.25207   0.00000  Uiso   1.00
H538   H     0.20682   0.14935   0.19600   0.00000  Uiso   1.00
H539   H     0.09116   0.18176   0.26858   0.00000  Uiso   1.00
H540   H     0.12383   0.06622   0.34416   0.00000  Uiso   1.00
H541   H     0.27810   0.16593   0.05101   0.00000  Uiso   1.00
H542   H     0.03420   0.23425   0.20406   0.00000  Uiso   1.00
H543   H     0.10309   0.99061   0.36345   0.00000  Uiso   1.00
O544   O     0.31248   0.16765   0.72939   0.00000  Uiso   1.00
O545   O     0.99250   0.25728   0.93019   0.00000  Uiso   1.00
O546   O     0.08288   0.93763   0.13929   0.00000  Uiso   1.00
N547   N     0.25490   0.14912   0.64088   0.00000  Uiso   1.00
N548   N     0.02688   0.21300   0.78397   0.00000  Uiso   1.00
N549   N     0.09127   0.98522   0.93298   0.00000  Uiso   1.00
N550   N     0.26477   0.15925   0.93492   0.00000  Uiso   1.00
N551   N     0.03675   0.22314   0.07800   0.00000  Uiso   1.00
N552   N     0.10115   0.99535   0.22701   0.00000  Uiso   1.00
C553   C     0.87650   0.88512   0.76006   0.00000  Uiso   1.00
C554   C     0.83787   0.87321   0.79907   0.00000  Uiso   1.00
C555   C     0.81089   0.86884   0.66809   0.00000  Uiso   1.00
C556   C     0.77735   0.85775   0.73163   0.00000  Uiso   1.00
C557   C     0.71833   0.84023   0.76363   0.00000  Uiso   1.00
C558   C     0.90071   0.85560   0.83850   0.00000  Uiso   1.00
C559   C     0.92657   0.83643   0.74067   0.00000  Uiso   1.00
C560   C     0.94593   0.81051   0.83742   0.00000  Uiso   1.00
C561   C     0.98449   0.76567   0.93066   0.00000  Uiso   1.00
C562   C     0.88296   0.91838   0.87956   0.00000  Uiso   1.00
C563   C     0.89390   0.95199   0.81626   0.00000  Uiso   1.00
C564   C     0.89832   0.97893   0.94759   0.00000  Uiso   1.00
C565   C     0.90932   0.03155   0.10458   0.00000  Uiso   1.00
C566   C     0.86489   0.87321   0.10584   0.00000  Uiso   1.00
C567   C     0.83157   0.86674   0.98689   0.00000  Uiso   1.00
C568   C     0.79805   0.85566   0.05065   0.00000  Uiso   1.00
C569   C     0.77103   0.85127   0.91978   0.00000  Uiso   1.00
C570   C     0.89441   0.84913   0.02631   0.00000  Uiso   1.00
C571   C     0.91373   0.82324   0.12323   0.00000  Uiso   1.00
C572   C     0.93961   0.80403   0.02557   0.00000  Uiso   1.00
C573   C     0.87665   0.91191   0.06738   0.00000  Uiso   1.00
C574   C     0.88106   0.93880   0.19883   0.00000  Uiso   1.00
C575   C     0.89200   0.97244   0.13575   0.00000  Uiso   1.00
H576   H     0.88141   0.89016   0.61384   0.00000  Uiso   1.00
H577   H     0.81579   0.87385   0.52275   0.00000  Uiso   1.00
H578   H     0.93145   0.84144   0.59533   0.00000  Uiso   1.00
H579   H     0.89878   0.95698   0.67091   0.00000  Uiso   1.00
H580   H     0.74025   0.85290   0.50458   0.00000  Uiso   1.00
H581   H     0.98414   0.78458   0.65763   0.00000  Uiso   1.00
H582   H     0.91526   0.02822   0.81701   0.00000  Uiso   1.00
H583   H     0.85998   0.86817   0.25207   0.00000  Uiso   1.00
H584   H     0.79318   0.85065   0.19600   0.00000  Uiso   1.00
H585   H     0.90884   0.81824   0.26858   0.00000  Uiso   1.00
H586   H     0.87617   0.93378   0.34416   0.00000  Uiso   1.00
H587   H     0.72190   0.83407   0.05101   0.00000  Uiso   1.00
H588   H     0.96580   0.76575   0.20406   0.00000  Uiso   1.00
H589   H     0.89691   0.00939   0.36345   0.00000  Uiso   1.00
O590   O     0.68752   0.83235   0.72939   0.00000  Uiso   1.00
O591   O     0.00750   0.74272   0.93019   0.00000  Uiso   1.00
O592   O     0.91712   0.06237   0.13929   0.00000  Uiso   1.00
N593   N     0.74510   0.85088   0.64088   0.00000  Uiso   1.00
N594   N     0.97312   0.78700   0.78397   0.00000  Uiso   1.00
N595   N     0.90873   0.01478   0.93298   0.00000  Uiso   1.00
N596   N     0.73523   0.84075   0.93492   0.00000  Uiso   1.00
N597   N     0.96325   0.77686   0.07800   0.00000  Uiso   1.00
N598   N     0.89885   0.00465   0.22701   0.00000  Uiso   1.00
C599   C     0.87650   0.38512   0.26006   0.00000  Uiso   1.00
C600   C     0.83787   0.37321   0.29907   0.00000  Uiso   1.00
C601   C     0.81089   0.36884   0.16809   0.00000  Uiso   1.00
C602   C     0.77735   0.35775   0.23163   0.00000  Uiso   1.00
C603   C     0.71833   0.34023   0.26363   0.00000  Uiso   1.00
C604   C     0.90071   0.35560   0.33850   0.00000  Uiso   1.00
C605   C     0.92657   0.33643   0.24067   0.00000  Uiso   1.00
C606   C     0.94593   0.31051   0.33742   0.00000  Uiso   1.00
C607   C     0.98449   0.26567   0.43066   0.00000  Uiso   1.00
C608   C     0.88296   0.41838   0.37956   0.00000  Uiso   1.00
C609   C     0.89390   0.45199   0.31626   0.00000  Uiso   1.00
C610   C     0.89832   0.47893   0.44759   0.00000  Uiso   1.00
C611   C     0.90932   0.53155   0.60458   0.00000  Uiso   1.00
C612   C     0.86489   0.37321   0.60584   0.00000  Uiso   1.00
C613   C     0.83157   0.36674   0.48689   0.00000  Uiso   1.00
C614   C     0.79805   0.35566   0.55065   0.00000  Uiso   1.00
C615   C     0.77103   0.35127   0.41978   0.00000  Uiso   1.00
C616   C     0.89441   0.34913   0.52631   0.00000  Uiso   1.00
C617   C     0.91373   0.32324   0.62323   0.00000  Uiso   1.00
C618   C     0.93961   0.30403   0.52557   0.00000  Uiso   1.00
C619   C     0.87665   0.41191   0.56738   0.00000  Uiso   1.00
C620   C     0.88106   0.43880   0.69883   0.00000  Uiso   1.00
C621   C     0.89200   0.47244   0.63575   0.00000  Uiso   1.00
H622   H     0.88141   0.39016   0.11384   0.00000  Uiso   1.00
H623   H     0.81579   0.37385   0.02275   0.00000  Uiso   1.00
H624   H     0.93145   0.34144   0.09533   0.00000  Uiso   1.00
H625   H     0.89878   0.45698   0.17091   0.00000  Uiso   1.00
H626   H     0.74025   0.35290   0.00458   0.00000  Uiso   1.00
H627   H     0.98414   0.28458   0.15763   0.00000  Uiso   1.00
H628   H     0.91526   0.52822   0.31701   0.00000  Uiso   1.00
H629   H     0.85998   0.36817   0.75207   0.00000  Uiso   1.00
H630   H     0.79318   0.35065   0.69600   0.00000  Uiso   1.00
H631   H     0.90884   0.31824   0.76858   0.00000  Uiso   1.00
H632   H     0.87617   0.43378   0.84416   0.00000  Uiso   1.00
H633   H     0.72190   0.33407   0.55101   0.00000  Uiso   1.00
H634   H     0.96580   0.26575   0.70406   0.00000  Uiso   1.00
H635   H     0.89691   0.50939   0.86345   0.00000  Uiso   1.00
O636   O     0.68752   0.33235   0.22939   0.00000  Uiso   1.00
O637   O     0.00750   0.24272   0.43019   0.00000  Uiso   1.00
O638   O     0.91712   0.56237   0.63929   0.00000  Uiso   1.00
N639   N     0.74510   0.35088   0.14088   0.00000  Uiso   1.00
N640   N     0.97312   0.28700   0.28397   0.00000  Uiso   1.00
N641   N     0.90873   0.51478   0.43298   0.00000  Uiso   1.00
N642   N     0.73523   0.34075   0.43492   0.00000  Uiso   1.00
N643   N     0.96325   0.27686   0.57800   0.00000  Uiso   1.00
N644   N     0.89885   0.50465   0.72701   0.00000  Uiso   1.00
C645   C     0.37650   0.88512   0.26006   0.00000  Uiso   1.00
C646   C     0.33787   0.87321   0.29907   0.00000  Uiso   1.00
C647   C     0.31089   0.86884   0.16809   0.00000  Uiso   1.00
C648   C     0.27735   0.85775   0.23163   0.00000  Uiso   1.00
C649   C     0.21833   0.84023   0.26363   0.00000  Uiso   1.00
C650   C     0.40071   0.85560   0.33850   0.00000  Uiso   1.00
C651   C     0.42657   0.83643   0.24067   0.00000  Uiso   1.00
C652   C     0.44593   0.81051   0.33742   0.00000  Uiso   1.00
C653   C     0.48449   0.76567   0.43066   0.00000  Uiso   1.00
C654   C     0.38296   0.91838   0.37956   0.00000  Uiso   1.00
C655   C     0.39390   0.95199   0.31626   0.00000  Uiso   1.00
C656   C     0.39832   0.97893   0.44759   0.00000  Uiso   1.00
C657   C     0.40932   0.03155   0.60458   0.00000  Uiso   1.00
C658   C     0.36489   0.87321   0.60584   0.00000  Uiso   1.00
C659   C     0.33157   0.86674   0.48689   0.00000  Uiso   1.00
C660   C     0.29805   0.85566   0.55065   0.00000  Uiso   1.00
C661   C     0.27103   0.85127   0.41978   0.00000  Uiso   1.00
C662   C     0.39441   0.84913   0.52631   0.00000  Uiso   1.00
C663   C     0.41373   0.82324   0.62323   0.00000  Uiso   1.00
C664   C     0.43961   0.80403   0.52557   0.00000  Uiso   1.00
C665   C     0.37665   0.91191   0.56738   0.00000  Uiso   1.00
C666   C     0.38106   0.93880   0.69883   0.00000  Uiso   1.00
C667   C     0.39200   0.97244   0.63575   0.00000  Uiso   1.00
H668   H     0.38141   0.89016   0.11384   0.00000  Uiso   1.00
H669   H     0.31579   0.87385   0.02275   0.00000  Uiso   1.00
H670   H     0.43145   0.84144   0.09533   0.00000  Uiso   1.00
H671   H     0.39878   0.95698   0.17091   0.00000  Uiso   1.00
H672   H     0.24025   0.85290   0.00458   0.00000  Uiso   1.00
H673   H     0.48414   0.78458   0.15763   0.00000  Uiso   1.00
H674   H     0.41526   0.02822   0.31701   0.00000  Uiso   1.00
H675   H     0.35998   0.86817   0.75207   0.00000  Uiso   1.00
H676   H     0.29318   0.85065   0.69600   0.00000  Uiso   1.00
H677   H     0.40884   0.81824   0.76858   0.00000  Uiso   1.00
H678   H     0.37617   0.93378   0.84416   0.00000  Uiso   1.00
H679   H     0.22190   0.83407   0.55101   0.00000  Uiso   1.00
H680   H     0.46580   0.76575   0.70406   0.00000  Uiso   1.00
H681   H     0.39691   0.00939   0.86345   0.00000  Uiso   1.00
O682   O     0.18752   0.83235   0.22939   0.00000  Uiso   1.00
O683   O     0.50750   0.74272   0.43019   0.00000  Uiso   1.00
O684   O     0.41712   0.06237   0.63929   0.00000  Uiso   1.00
N685   N     0.24510   0.85088   0.14088   0.00000  Uiso   1.00
N686   N     0.47312   0.78700   0.28397   0.00000  Uiso   1.00
N687   N     0.40873   0.01478   0.43298   0.00000  Uiso   1.00
N688   N     0.23523   0.84075   0.43492   0.00000  Uiso   1.00
N689   N     0.46325   0.77686   0.57800   0.00000  Uiso   1.00
N690   N     0.39885   0.00465   0.72701   0.00000  Uiso   1.00
C691   C     0.37650   0.38512   0.76006   0.00000  Uiso   1.00
C692   C     0.33787   0.37321   0.79907   0.00000  Uiso   1.00
C693   C     0.31089   0.36884   0.66809   0.00000  Uiso   1.00
C694   C     0.27735   0.35775   0.73163   0.00000  Uiso   1.00
C695   C     0.21833   0.34023   0.76363   0.00000  Uiso   1.00
C696   C     0.40071   0.35560   0.83850   0.00000  Uiso   1.00
C697   C     0.42657   0.33643   0.74067   0.00000  Uiso   1.00
C698   C     0.44593   0.31051   0.83742   0.00000  Uiso   1.00
C699   C     0.48449   0.26567   0.93066   0.00000  Uiso   1.00
C700   C     0.38296   0.41838   0.87956   0.00000  Uiso   1.00
C701   C     0.39390   0.45199   0.81626   0.00000  Uiso   1.00
C702   C     0.39832   0.47893   0.94759   0.00000  Uiso   1.00
C703   C     0.40932   0.53155   0.10458   0.00000  Uiso   1.00
C704   C     0.36489   0.37321   0.10584   0.00000  Uiso   1.00
C705   C     0.33157   0.36674   0.98689   0.00000  Uiso   1.00
C706   C     0.29805   0.35566   0.05065   0.00000  Uiso   1.00
C707   C     0.27103   0.35127   0.91978   0.00000  Uiso   1.00
C708   C     0.39441   0.34913   0.02631   0.00000  Uiso   1.00
C709   C     0.41373   0.32324   0.12323   0.00000  Uiso   1.00
C710   C     0.43961   0.30403   0.02557   0.00000  Uiso   1.00
C711   C     0.37665   0.41191   0.06738   0.00000  Uiso   1.00
C712   C     0.38106   0.43880   0.19883   0.00000  Uiso   1.00
C713   C     0.39200   0.47244   0.13575   0.00000  Uiso   1.00
H714   H     0.38141   0.39016   0.61384   0.00000  Uiso   1.00
H715   H     0.31579   0.37385   0.52275   0.00000  Uiso   1.00
H716   H     0.43145   0.34144   0.59533   0.00000  Uiso   1.00
H717   H     0.39878   0.45698   0.67091   0.00000  Uiso   1.00
H718   H     0.24025   0.35290   0.50458   0.00000  Uiso   1.00
H719   H     0.48414   0.28458   0.65763   0.00000  Uiso   1.00
H720   H     0.41526   0.52822   0.81701   0.00000  Uiso   1.00
H721   H     0.35998   0.36817   0.25207   0.00000  Uiso   1.00
H722   H     0.29318   0.35065   0.19600   0.00000  Uiso   1.00
H723   H     0.40884   0.31824   0.26858   0.00000  Uiso   1.00
H724   H     0.37617   0.43378   0.34416   0.00000  Uiso   1.00
H725   H     0.22190   0.33407   0.05101   0.00000  Uiso   1.00
H726   H     0.46580   0.26575   0.20406   0.00000  Uiso   1.00
H727   H     0.39691   0.50939   0.36345   0.00000  Uiso   1.00
O728   O     0.18752   0.33235   0.72939   0.00000  Uiso   1.00
O729   O     0.50750   0.24272   0.93019   0.00000  Uiso   1.00
O730   O     0.41712   0.56237   0.13929   0.00000  Uiso   1.00
N731   N     0.24510   0.35088   0.64088   0.00000  Uiso   1.00
N732   N     0.47312   0.28700   0.78397   0.00000  Uiso   1.00
N733   N     0.40873   0.51478   0.93298   0.00000  Uiso   1.00
N734   N     0.23523   0.34075   0.93492   0.00000  Uiso   1.00
N735   N     0.46325   0.27686   0.07800   0.00000  Uiso   1.00
N736   N     0.39885   0.50465   0.22701   0.00000  Uiso   1.00
