data_job_05607
_audit_creation_date              2018-12-19
_audit_creation_method            'Materials Studio'
_symmetry_space_group_name_H-M    'P1'
_symmetry_Int_Tables_number       1
_symmetry_cell_setting            triclinic
loop_
_symmetry_equiv_pos_as_xyz
  x,y,z
_cell_length_a                    29.4221
_cell_length_b                    12.7403
_cell_length_c                    46.6900
_cell_angle_alpha                 90.0000
_cell_angle_beta                  128.9047
_cell_angle_gamma                 90.0000
loop_
_atom_site_label
_atom_site_type_symbol
_atom_site_fract_x
_atom_site_fract_y
_atom_site_fract_z
_atom_site_U_iso_or_equiv
_atom_site_adp_type
_atom_site_occupancy
C1     C     0.91572   0.77440   0.35003   0.00000  Uiso   1.00
C2     C     0.89704   0.66824   0.35463   0.00000  Uiso   1.00
C3     C     0.93097   0.60308   0.38510   0.00000  Uiso   1.00
C4     C     0.90594   0.50919   0.38398   0.00000  Uiso   1.00
C5     C     0.88560   0.34854   0.39576   0.00000  Uiso   1.00
C6     C     0.90809   0.76688   0.31464   0.00000  Uiso   1.00
C7     C     0.95132   0.78467   0.31148   0.00000  Uiso   1.00
C8     C     0.93559   0.77382   0.27669   0.00000  Uiso   1.00
C9     C     0.93240   0.76639   0.22636   0.00000  Uiso   1.00
C10    C     0.87021   0.85320   0.34234   0.00000  Uiso   1.00
C11    C     0.88159   0.94358   0.36247   0.00000  Uiso   1.00
C12    C     0.83397   0.00542   0.35100   0.00000  Uiso   1.00
C13    C     0.77198   0.13200   0.34368   0.00000  Uiso   1.00
C14    C     0.81093   0.72353   0.29386   0.00000  Uiso   1.00
C15    C     0.84012   0.64061   0.32412   0.00000  Uiso   1.00
C16    C     0.81503   0.54680   0.32296   0.00000  Uiso   1.00
C17    C     0.84892   0.48151   0.35342   0.00000  Uiso   1.00
C18    C     0.85118   0.73925   0.28413   0.00000  Uiso   1.00
C19    C     0.83538   0.72838   0.24933   0.00000  Uiso   1.00
C20    C     0.87857   0.74614   0.24612   0.00000  Uiso   1.00
C21    C     0.81329   0.82557   0.31183   0.00000  Uiso   1.00
C22    C     0.76565   0.88729   0.30032   0.00000  Uiso   1.00
C23    C     0.77695   0.97774   0.32043   0.00000  Uiso   1.00
H24    H     0.96003   0.79591   0.37379   0.00000  Uiso   1.00
H25    H     0.97502   0.62449   0.40871   0.00000  Uiso   1.00
H26    H     0.99536   0.80606   0.33509   0.00000  Uiso   1.00
H27    H     0.92564   0.96493   0.38608   0.00000  Uiso   1.00
H28    H     0.96654   0.42224   0.43396   0.00000  Uiso   1.00
H29    H     0.00943   0.80512   0.27874   0.00000  Uiso   1.00
H30    H     0.86242   0.14014   0.38625   0.00000  Uiso   1.00
H31    H     0.76661   0.70201   0.27011   0.00000  Uiso   1.00
H32    H     0.77098   0.52544   0.29934   0.00000  Uiso   1.00
H33    H     0.79133   0.70701   0.22573   0.00000  Uiso   1.00
H34    H     0.72161   0.86588   0.27671   0.00000  Uiso   1.00
H35    H     0.80094   0.34184   0.34520   0.00000  Uiso   1.00
H36    H     0.84383   0.72473   0.18997   0.00000  Uiso   1.00
H37    H     0.69682   0.05974   0.29748   0.00000  Uiso   1.00
O38    O     0.89011   0.26756   0.41068   0.00000  Uiso   1.00
O39    O     0.94638   0.76991   0.20703   0.00000  Uiso   1.00
O40    O     0.75350   0.20944   0.34808   0.00000  Uiso   1.00
N41    N     0.92696   0.42756   0.40906   0.00000  Uiso   1.00
N42    N     0.96706   0.78551   0.26394   0.00000  Uiso   1.00
N43    N     0.82962   0.09875   0.36445   0.00000  Uiso   1.00
N44    N     0.83785   0.38430   0.36130   0.00000  Uiso   1.00
N45    N     0.87795   0.74225   0.21618   0.00000  Uiso   1.00
N46    N     0.74051   0.05549   0.31668   0.00000  Uiso   1.00
C47    C     0.11083   0.77852   0.15123   0.00000  Uiso   1.00
C48    C     0.12802   0.67007   0.14709   0.00000  Uiso   1.00
C49    C     0.09310   0.60409   0.11695   0.00000  Uiso   1.00
C50    C     0.11683   0.50805   0.11847   0.00000  Uiso   1.00
C51    C     0.13491   0.34403   0.10739   0.00000  Uiso   1.00
C52    C     0.11866   0.77506   0.18675   0.00000  Uiso   1.00
C53    C     0.07587   0.79737   0.18997   0.00000  Uiso   1.00
C54    C     0.09172   0.78973   0.22487   0.00000  Uiso   1.00
C55    C     0.09527   0.78879   0.27538   0.00000  Uiso   1.00
C56    C     0.15724   0.85395   0.15841   0.00000  Uiso   1.00
C57    C     0.14688   0.94261   0.13781   0.00000  Uiso   1.00
C58    C     0.19521   0.00140   0.14885   0.00000  Uiso   1.00
C59    C     0.25865   0.12294   0.15536   0.00000  Uiso   1.00
C60    C     0.21507   0.72529   0.20749   0.00000  Uiso   1.00
C61    C     0.18465   0.64116   0.17765   0.00000  Uiso   1.00
C62    C     0.20844   0.54520   0.17920   0.00000  Uiso   1.00
C63    C     0.17356   0.47909   0.14908   0.00000  Uiso   1.00
C64    C     0.17528   0.74615   0.21731   0.00000  Uiso   1.00
C65    C     0.19120   0.73848   0.25221   0.00000  Uiso   1.00
C66    C     0.14845   0.76077   0.25548   0.00000  Uiso   1.00
C67    C     0.21386   0.82504   0.18897   0.00000  Uiso   1.00
C68    C     0.26221   0.88371   0.20005   0.00000  Uiso   1.00
C69    C     0.25193   0.97244   0.17947   0.00000  Uiso   1.00
H70    H     0.06675   0.80103   0.12744   0.00000  Uiso   1.00
H71    H     0.04928   0.62648   0.09331   0.00000  Uiso   1.00
H72    H     0.03206   0.81975   0.16631   0.00000  Uiso   1.00
H73    H     0.10306   0.96496   0.11416   0.00000  Uiso   1.00
H74    H     0.05488   0.42021   0.06896   0.00000  Uiso   1.00
H75    H     0.01857   0.82776   0.22289   0.00000  Uiso   1.00
H76    H     0.16828   0.13395   0.11291   0.00000  Uiso   1.00
H77    H     0.25916   0.70278   0.23129   0.00000  Uiso   1.00
H78    H     0.25225   0.52285   0.20286   0.00000  Uiso   1.00
H79    H     0.23503   0.71611   0.27586   0.00000  Uiso   1.00
H80    H     0.30602   0.86132   0.22370   0.00000  Uiso   1.00
H81    H     0.21962   0.33609   0.15787   0.00000  Uiso   1.00
H82    H     0.18330   0.74364   0.31180   0.00000  Uiso   1.00
H83    H     0.33302   0.04983   0.20182   0.00000  Uiso   1.00
O84    O     0.12923   0.26154   0.09284   0.00000  Uiso   1.00
O85    O     0.08159   0.79625   0.29479   0.00000  Uiso   1.00
O86    O     0.27801   0.19796   0.15051   0.00000  Uiso   1.00
N87    N     0.09461   0.42511   0.09378   0.00000  Uiso   1.00
N88    N     0.06065   0.80613   0.23769   0.00000  Uiso   1.00
N89    N     0.20062   0.09241   0.13488   0.00000  Uiso   1.00
N90    N     0.18325   0.37985   0.14162   0.00000  Uiso   1.00
N91    N     0.14929   0.76087   0.28554   0.00000  Uiso   1.00
N92    N     0.28926   0.04715   0.18273   0.00000  Uiso   1.00
C93    C     0.29529   0.93656   0.09937   0.00000  Uiso   1.00
C94    C     0.32234   0.82963   0.10379   0.00000  Uiso   1.00
C95    C     0.34844   0.76399   0.13410   0.00000  Uiso   1.00
C96    C     0.37058   0.66941   0.13284   0.00000  Uiso   1.00
C97    C     0.41314   0.50759   0.14434   0.00000  Uiso   1.00
C98    C     0.23240   0.93056   0.06385   0.00000  Uiso   1.00
C99    C     0.18288   0.94980   0.06058   0.00000  Uiso   1.00
C100   C     0.12930   0.94019   0.02569   0.00000  Uiso   1.00
C101   C     0.03223   0.93514   0.97518   0.00000  Uiso   1.00
C102   C     0.32626   0.01436   0.09199   0.00000  Uiso   1.00
C103   C     0.35565   0.10408   0.11237   0.00000  Uiso   1.00
C104   C     0.38108   0.16505   0.10117   0.00000  Uiso   1.00
C105   C     0.42974   0.29011   0.09435   0.00000  Uiso   1.00
C106   C     0.28819   0.88530   0.04325   0.00000  Uiso   1.00
C107   C     0.31848   0.80179   0.07331   0.00000  Uiso   1.00
C108   C     0.34058   0.70729   0.07201   0.00000  Uiso   1.00
C109   C     0.36671   0.64152   0.10230   0.00000  Uiso   1.00
C110   C     0.22854   0.90272   0.03337   0.00000  Uiso   1.00
C111   C     0.17502   0.89309   0.99849   0.00000  Uiso   1.00
C112   C     0.12543   0.91230   0.99516   0.00000  Uiso   1.00
C113   C     0.32240   0.98652   0.06151   0.00000  Uiso   1.00
C114   C     0.34779   0.04737   0.05028   0.00000  Uiso   1.00
C115   C     0.37721   0.13716   0.07064   0.00000  Uiso   1.00
H116   H     0.29829   0.95823   0.12310   0.00000  Uiso   1.00
H117   H     0.35142   0.78556   0.15768   0.00000  Uiso   1.00
H118   H     0.18588   0.97135   0.08417   0.00000  Uiso   1.00
H119   H     0.35862   0.12560   0.13595   0.00000  Uiso   1.00
H120   H     0.40859   0.58183   0.18257   0.00000  Uiso   1.00
H121   H     0.05955   0.97360   0.02757   0.00000  Uiso   1.00
H122   H     0.42381   0.29888   0.13677   0.00000  Uiso   1.00
H123   H     0.28518   0.86363   0.01952   0.00000  Uiso   1.00
H124   H     0.33759   0.68576   0.04842   0.00000  Uiso   1.00
H125   H     0.17205   0.87155   0.97490   0.00000  Uiso   1.00
H126   H     0.34480   0.02580   0.02669   0.00000  Uiso   1.00
H127   H     0.39737   0.50083   0.09389   0.00000  Uiso   1.00
H128   H     0.04833   0.89261   0.93889   0.00000  Uiso   1.00
H129   H     0.41259   0.21787   0.04809   0.00000  Uiso   1.00
O130   O     0.43767   0.42602   0.15910   0.00000  Uiso   1.00
O131   O     0.97975   0.94003   0.95575   0.00000  Uiso   1.00
O132   O     0.45765   0.36677   0.09902   0.00000  Uiso   1.00
N133   N     0.39877   0.58719   0.15774   0.00000  Uiso   1.00
N134   N     0.07244   0.95345   0.01282   0.00000  Uiso   1.00
N135   N     0.41298   0.25757   0.11491   0.00000  Uiso   1.00
N136   N     0.39273   0.54360   0.11002   0.00000  Uiso   1.00
N137   N     0.06640   0.90987   0.96510   0.00000  Uiso   1.00
N138   N     0.40694   0.21399   0.06719   0.00000  Uiso   1.00
C139   C     0.79585   0.60496   0.59945   0.00000  Uiso   1.00
C140   C     0.82233   0.49737   0.60390   0.00000  Uiso   1.00
C141   C     0.84810   0.43194   0.63422   0.00000  Uiso   1.00
C142   C     0.86972   0.33667   0.63298   0.00000  Uiso   1.00
C143   C     0.91141   0.17396   0.64453   0.00000  Uiso   1.00
C144   C     0.73292   0.59969   0.56395   0.00000  Uiso   1.00
C145   C     0.68352   0.62031   0.56068   0.00000  Uiso   1.00
C146   C     0.62988   0.61118   0.52580   0.00000  Uiso   1.00
C147   C     0.53277   0.60740   0.47531   0.00000  Uiso   1.00
C148   C     0.82721   0.68159   0.59204   0.00000  Uiso   1.00
C149   C     0.85708   0.77108   0.61238   0.00000  Uiso   1.00
C150   C     0.88282   0.83092   0.60116   0.00000  Uiso   1.00
C151   C     0.93212   0.95430   0.59428   0.00000  Uiso   1.00
C152   C     0.78843   0.55211   0.54333   0.00000  Uiso   1.00
C153   C     0.81829   0.46867   0.57342   0.00000  Uiso   1.00
C154   C     0.83988   0.37347   0.57213   0.00000  Uiso   1.00
C155   C     0.86568   0.30791   0.60245   0.00000  Uiso   1.00
C156   C     0.72889   0.57099   0.53346   0.00000  Uiso   1.00
C157   C     0.67531   0.56184   0.49859   0.00000  Uiso   1.00
C158   C     0.62584   0.58242   0.49526   0.00000  Uiso   1.00
C159   C     0.82318   0.65289   0.56156   0.00000  Uiso   1.00
C160   C     0.84887   0.71261   0.55030   0.00000  Uiso   1.00
C161   C     0.87878   0.80217   0.57062   0.00000  Uiso   1.00
H162   H     0.79899   0.62731   0.62318   0.00000  Uiso   1.00
H163   H     0.85120   0.45418   0.65781   0.00000  Uiso   1.00
H164   H     0.68665   0.64253   0.58427   0.00000  Uiso   1.00
H165   H     0.86019   0.79327   0.63597   0.00000  Uiso   1.00
H166   H     0.90730   0.24956   0.68275   0.00000  Uiso   1.00
H167   H     0.56034   0.64674   0.52769   0.00000  Uiso   1.00
H168   H     0.92628   0.96461   0.63671   0.00000  Uiso   1.00
H169   H     0.78529   0.52977   0.51960   0.00000  Uiso   1.00
H170   H     0.83676   0.35128   0.54854   0.00000  Uiso   1.00
H171   H     0.67220   0.53963   0.47500   0.00000  Uiso   1.00
H172   H     0.84574   0.69037   0.52671   0.00000  Uiso   1.00
H173   H     0.89557   0.16604   0.59407   0.00000  Uiso   1.00
H174   H     0.54861   0.56322   0.43901   0.00000  Uiso   1.00
H175   H     0.91455   0.88109   0.54803   0.00000  Uiso   1.00
O176   O     0.93552   0.09213   0.65931   0.00000  Uiso   1.00
O177   O     0.48032   0.61323   0.45588   0.00000  Uiso   1.00
O178   O     0.96043   0.03027   0.59892   0.00000  Uiso   1.00
N179   N     0.89748   0.25441   0.65791   0.00000  Uiso   1.00
N180   N     0.57310   0.62573   0.51294   0.00000  Uiso   1.00
N181   N     0.91521   0.92293   0.61486   0.00000  Uiso   1.00
N182   N     0.89118   0.20947   0.61019   0.00000  Uiso   1.00
N183   N     0.56679   0.58079   0.46522   0.00000  Uiso   1.00
N184   N     0.90890   0.87799   0.56714   0.00000  Uiso   1.00
C185   C     0.41572   0.27440   0.35003   0.00000  Uiso   1.00
C186   C     0.39704   0.16824   0.35463   0.00000  Uiso   1.00
C187   C     0.43097   0.10308   0.38510   0.00000  Uiso   1.00
C188   C     0.40594   0.00919   0.38398   0.00000  Uiso   1.00
C189   C     0.38560   0.84854   0.39576   0.00000  Uiso   1.00
C190   C     0.40809   0.26688   0.31464   0.00000  Uiso   1.00
C191   C     0.45132   0.28467   0.31148   0.00000  Uiso   1.00
C192   C     0.43559   0.27382   0.27669   0.00000  Uiso   1.00
C193   C     0.43240   0.26639   0.22636   0.00000  Uiso   1.00
C194   C     0.37021   0.35320   0.34234   0.00000  Uiso   1.00
C195   C     0.38159   0.44358   0.36247   0.00000  Uiso   1.00
C196   C     0.33397   0.50542   0.35100   0.00000  Uiso   1.00
C197   C     0.27198   0.63200   0.34368   0.00000  Uiso   1.00
C198   C     0.31093   0.22353   0.29386   0.00000  Uiso   1.00
C199   C     0.34012   0.14061   0.32412   0.00000  Uiso   1.00
C200   C     0.31503   0.04680   0.32296   0.00000  Uiso   1.00
C201   C     0.34892   0.98151   0.35342   0.00000  Uiso   1.00
C202   C     0.35118   0.23925   0.28413   0.00000  Uiso   1.00
C203   C     0.33538   0.22838   0.24933   0.00000  Uiso   1.00
C204   C     0.37857   0.24614   0.24612   0.00000  Uiso   1.00
C205   C     0.31329   0.32557   0.31183   0.00000  Uiso   1.00
C206   C     0.26565   0.38729   0.30032   0.00000  Uiso   1.00
C207   C     0.27695   0.47774   0.32043   0.00000  Uiso   1.00
H208   H     0.46003   0.29591   0.37379   0.00000  Uiso   1.00
H209   H     0.47502   0.12449   0.40871   0.00000  Uiso   1.00
H210   H     0.49536   0.30606   0.33509   0.00000  Uiso   1.00
H211   H     0.42564   0.46493   0.38608   0.00000  Uiso   1.00
H212   H     0.46654   0.92224   0.43396   0.00000  Uiso   1.00
H213   H     0.50943   0.30512   0.27874   0.00000  Uiso   1.00
H214   H     0.36242   0.64014   0.38625   0.00000  Uiso   1.00
H215   H     0.26661   0.20201   0.27011   0.00000  Uiso   1.00
H216   H     0.27098   0.02544   0.29934   0.00000  Uiso   1.00
H217   H     0.29133   0.20701   0.22573   0.00000  Uiso   1.00
H218   H     0.22161   0.36588   0.27671   0.00000  Uiso   1.00
H219   H     0.30094   0.84184   0.34520   0.00000  Uiso   1.00
H220   H     0.34383   0.22473   0.18997   0.00000  Uiso   1.00
H221   H     0.19682   0.55974   0.29748   0.00000  Uiso   1.00
O222   O     0.39011   0.76756   0.41068   0.00000  Uiso   1.00
O223   O     0.44638   0.26991   0.20703   0.00000  Uiso   1.00
O224   O     0.25350   0.70944   0.34808   0.00000  Uiso   1.00
N225   N     0.42696   0.92756   0.40906   0.00000  Uiso   1.00
N226   N     0.46706   0.28551   0.26394   0.00000  Uiso   1.00
N227   N     0.32962   0.59875   0.36445   0.00000  Uiso   1.00
N228   N     0.33785   0.88430   0.36130   0.00000  Uiso   1.00
N229   N     0.37795   0.24225   0.21618   0.00000  Uiso   1.00
N230   N     0.24051   0.55549   0.31668   0.00000  Uiso   1.00
C231   C     0.61083   0.27852   0.15123   0.00000  Uiso   1.00
C232   C     0.62802   0.17007   0.14709   0.00000  Uiso   1.00
C233   C     0.59310   0.10409   0.11695   0.00000  Uiso   1.00
C234   C     0.61683   0.00805   0.11847   0.00000  Uiso   1.00
C235   C     0.63491   0.84403   0.10739   0.00000  Uiso   1.00
C236   C     0.61866   0.27506   0.18675   0.00000  Uiso   1.00
C237   C     0.57587   0.29737   0.18997   0.00000  Uiso   1.00
C238   C     0.59172   0.28973   0.22487   0.00000  Uiso   1.00
C239   C     0.59527   0.28879   0.27538   0.00000  Uiso   1.00
C240   C     0.65724   0.35395   0.15841   0.00000  Uiso   1.00
C241   C     0.64688   0.44261   0.13781   0.00000  Uiso   1.00
C242   C     0.69521   0.50140   0.14885   0.00000  Uiso   1.00
C243   C     0.75865   0.62294   0.15536   0.00000  Uiso   1.00
C244   C     0.71507   0.22529   0.20749   0.00000  Uiso   1.00
C245   C     0.68465   0.14116   0.17765   0.00000  Uiso   1.00
C246   C     0.70844   0.04520   0.17920   0.00000  Uiso   1.00
C247   C     0.67356   0.97909   0.14908   0.00000  Uiso   1.00
C248   C     0.67528   0.24615   0.21731   0.00000  Uiso   1.00
C249   C     0.69120   0.23848   0.25221   0.00000  Uiso   1.00
C250   C     0.64845   0.26077   0.25548   0.00000  Uiso   1.00
C251   C     0.71386   0.32504   0.18897   0.00000  Uiso   1.00
C252   C     0.76221   0.38371   0.20005   0.00000  Uiso   1.00
C253   C     0.75193   0.47244   0.17947   0.00000  Uiso   1.00
H254   H     0.56675   0.30103   0.12744   0.00000  Uiso   1.00
H255   H     0.54928   0.12648   0.09331   0.00000  Uiso   1.00
H256   H     0.53206   0.31975   0.16631   0.00000  Uiso   1.00
H257   H     0.60306   0.46496   0.11416   0.00000  Uiso   1.00
H258   H     0.55488   0.92021   0.06896   0.00000  Uiso   1.00
H259   H     0.51857   0.32776   0.22289   0.00000  Uiso   1.00
H260   H     0.66828   0.63395   0.11291   0.00000  Uiso   1.00
H261   H     0.75916   0.20278   0.23129   0.00000  Uiso   1.00
H262   H     0.75225   0.02285   0.20286   0.00000  Uiso   1.00
H263   H     0.73503   0.21611   0.27586   0.00000  Uiso   1.00
H264   H     0.80602   0.36132   0.22370   0.00000  Uiso   1.00
H265   H     0.71962   0.83609   0.15787   0.00000  Uiso   1.00
H266   H     0.68330   0.24364   0.31180   0.00000  Uiso   1.00
H267   H     0.83302   0.54983   0.20182   0.00000  Uiso   1.00
O268   O     0.62923   0.76154   0.09284   0.00000  Uiso   1.00
O269   O     0.58159   0.29625   0.29479   0.00000  Uiso   1.00
O270   O     0.77801   0.69796   0.15051   0.00000  Uiso   1.00
N271   N     0.59461   0.92511   0.09378   0.00000  Uiso   1.00
N272   N     0.56065   0.30613   0.23769   0.00000  Uiso   1.00
N273   N     0.70062   0.59241   0.13488   0.00000  Uiso   1.00
N274   N     0.68325   0.87985   0.14162   0.00000  Uiso   1.00
N275   N     0.64929   0.26087   0.28554   0.00000  Uiso   1.00
N276   N     0.78926   0.54715   0.18273   0.00000  Uiso   1.00
C277   C     0.79529   0.43656   0.09937   0.00000  Uiso   1.00
C278   C     0.82234   0.32963   0.10379   0.00000  Uiso   1.00
C279   C     0.84844   0.26399   0.13410   0.00000  Uiso   1.00
C280   C     0.87058   0.16941   0.13284   0.00000  Uiso   1.00
C281   C     0.91314   0.00759   0.14434   0.00000  Uiso   1.00
C282   C     0.73240   0.43056   0.06385   0.00000  Uiso   1.00
C283   C     0.68288   0.44980   0.06058   0.00000  Uiso   1.00
C284   C     0.62930   0.44019   0.02569   0.00000  Uiso   1.00
C285   C     0.53223   0.43514   0.97518   0.00000  Uiso   1.00
C286   C     0.82626   0.51436   0.09199   0.00000  Uiso   1.00
C287   C     0.85565   0.60408   0.11237   0.00000  Uiso   1.00
C288   C     0.88108   0.66505   0.10117   0.00000  Uiso   1.00
C289   C     0.92974   0.79011   0.09435   0.00000  Uiso   1.00
C290   C     0.78819   0.38530   0.04325   0.00000  Uiso   1.00
C291   C     0.81848   0.30179   0.07331   0.00000  Uiso   1.00
C292   C     0.84058   0.20729   0.07201   0.00000  Uiso   1.00
C293   C     0.86671   0.14152   0.10230   0.00000  Uiso   1.00
C294   C     0.72854   0.40272   0.03337   0.00000  Uiso   1.00
C295   C     0.67502   0.39309   0.99849   0.00000  Uiso   1.00
C296   C     0.62543   0.41230   0.99516   0.00000  Uiso   1.00
C297   C     0.82240   0.48652   0.06151   0.00000  Uiso   1.00
C298   C     0.84779   0.54737   0.05028   0.00000  Uiso   1.00
C299   C     0.87721   0.63716   0.07064   0.00000  Uiso   1.00
H300   H     0.79829   0.45823   0.12310   0.00000  Uiso   1.00
H301   H     0.85142   0.28556   0.15768   0.00000  Uiso   1.00
H302   H     0.68588   0.47135   0.08417   0.00000  Uiso   1.00
H303   H     0.85862   0.62560   0.13595   0.00000  Uiso   1.00
H304   H     0.90859   0.08183   0.18257   0.00000  Uiso   1.00
H305   H     0.55955   0.47360   0.02757   0.00000  Uiso   1.00
H306   H     0.92381   0.79888   0.13677   0.00000  Uiso   1.00
H307   H     0.78518   0.36363   0.01952   0.00000  Uiso   1.00
H308   H     0.83759   0.18576   0.04842   0.00000  Uiso   1.00
H309   H     0.67205   0.37155   0.97490   0.00000  Uiso   1.00
H310   H     0.84480   0.52580   0.02669   0.00000  Uiso   1.00
H311   H     0.89737   0.00083   0.09389   0.00000  Uiso   1.00
H312   H     0.54833   0.39261   0.93889   0.00000  Uiso   1.00
H313   H     0.91259   0.71787   0.04809   0.00000  Uiso   1.00
O314   O     0.93767   0.92602   0.15910   0.00000  Uiso   1.00
O315   O     0.47975   0.44003   0.95575   0.00000  Uiso   1.00
O316   O     0.95765   0.86677   0.09902   0.00000  Uiso   1.00
N317   N     0.89877   0.08719   0.15774   0.00000  Uiso   1.00
N318   N     0.57244   0.45345   0.01282   0.00000  Uiso   1.00
N319   N     0.91298   0.75757   0.11491   0.00000  Uiso   1.00
N320   N     0.89273   0.04360   0.11002   0.00000  Uiso   1.00
N321   N     0.56640   0.40987   0.96510   0.00000  Uiso   1.00
N322   N     0.90694   0.71399   0.06719   0.00000  Uiso   1.00
C323   C     0.29585   0.10496   0.59945   0.00000  Uiso   1.00
C324   C     0.32233   0.99737   0.60390   0.00000  Uiso   1.00
C325   C     0.34810   0.93194   0.63422   0.00000  Uiso   1.00
C326   C     0.36972   0.83667   0.63298   0.00000  Uiso   1.00
C327   C     0.41141   0.67396   0.64453   0.00000  Uiso   1.00
C328   C     0.23292   0.09969   0.56395   0.00000  Uiso   1.00
C329   C     0.18352   0.12031   0.56068   0.00000  Uiso   1.00
C330   C     0.12988   0.11118   0.52580   0.00000  Uiso   1.00
C331   C     0.03277   0.10740   0.47531   0.00000  Uiso   1.00
C332   C     0.32721   0.18159   0.59204   0.00000  Uiso   1.00
C333   C     0.35708   0.27108   0.61238   0.00000  Uiso   1.00
C334   C     0.38282   0.33092   0.60116   0.00000  Uiso   1.00
C335   C     0.43212   0.45430   0.59428   0.00000  Uiso   1.00
C336   C     0.28843   0.05211   0.54333   0.00000  Uiso   1.00
C337   C     0.31829   0.96867   0.57342   0.00000  Uiso   1.00
C338   C     0.33988   0.87347   0.57213   0.00000  Uiso   1.00
C339   C     0.36568   0.80791   0.60245   0.00000  Uiso   1.00
C340   C     0.22889   0.07099   0.53346   0.00000  Uiso   1.00
C341   C     0.17531   0.06184   0.49859   0.00000  Uiso   1.00
C342   C     0.12584   0.08242   0.49526   0.00000  Uiso   1.00
C343   C     0.32318   0.15289   0.56156   0.00000  Uiso   1.00
C344   C     0.34887   0.21261   0.55030   0.00000  Uiso   1.00
C345   C     0.37878   0.30217   0.57062   0.00000  Uiso   1.00
H346   H     0.29899   0.12731   0.62318   0.00000  Uiso   1.00
H347   H     0.35120   0.95418   0.65781   0.00000  Uiso   1.00
H348   H     0.18665   0.14253   0.58427   0.00000  Uiso   1.00
H349   H     0.36019   0.29327   0.63597   0.00000  Uiso   1.00
H350   H     0.40730   0.74956   0.68275   0.00000  Uiso   1.00
H351   H     0.06034   0.14674   0.52769   0.00000  Uiso   1.00
H352   H     0.42628   0.46461   0.63671   0.00000  Uiso   1.00
H353   H     0.28529   0.02977   0.51960   0.00000  Uiso   1.00
H354   H     0.33676   0.85128   0.54854   0.00000  Uiso   1.00
H355   H     0.17220   0.03963   0.47500   0.00000  Uiso   1.00
H356   H     0.34574   0.19037   0.52671   0.00000  Uiso   1.00
H357   H     0.39557   0.66604   0.59407   0.00000  Uiso   1.00
H358   H     0.04861   0.06322   0.43901   0.00000  Uiso   1.00
H359   H     0.41455   0.38109   0.54803   0.00000  Uiso   1.00
O360   O     0.43552   0.59213   0.65931   0.00000  Uiso   1.00
O361   O     0.98032   0.11323   0.45588   0.00000  Uiso   1.00
O362   O     0.46043   0.53027   0.59892   0.00000  Uiso   1.00
N363   N     0.39748   0.75441   0.65791   0.00000  Uiso   1.00
N364   N     0.07310   0.12573   0.51294   0.00000  Uiso   1.00
N365   N     0.41521   0.42293   0.61486   0.00000  Uiso   1.00
N366   N     0.39118   0.70947   0.61019   0.00000  Uiso   1.00
N367   N     0.06679   0.08079   0.46522   0.00000  Uiso   1.00
N368   N     0.40890   0.37799   0.56714   0.00000  Uiso   1.00
C369   C     0.08428   0.77440   0.64997   0.00000  Uiso   1.00
C370   C     0.10296   0.66824   0.64537   0.00000  Uiso   1.00
C371   C     0.06903   0.60308   0.61490   0.00000  Uiso   1.00
C372   C     0.09406   0.50919   0.61602   0.00000  Uiso   1.00
C373   C     0.11440   0.34854   0.60424   0.00000  Uiso   1.00
C374   C     0.09191   0.76688   0.68536   0.00000  Uiso   1.00
C375   C     0.04868   0.78467   0.68852   0.00000  Uiso   1.00
C376   C     0.06441   0.77382   0.72331   0.00000  Uiso   1.00
C377   C     0.06760   0.76639   0.77364   0.00000  Uiso   1.00
C378   C     0.12979   0.85320   0.65766   0.00000  Uiso   1.00
C379   C     0.11841   0.94358   0.63753   0.00000  Uiso   1.00
C380   C     0.16603   0.00542   0.64900   0.00000  Uiso   1.00
C381   C     0.22802   0.13200   0.65632   0.00000  Uiso   1.00
C382   C     0.18907   0.72353   0.70614   0.00000  Uiso   1.00
C383   C     0.15988   0.64061   0.67588   0.00000  Uiso   1.00
C384   C     0.18497   0.54680   0.67704   0.00000  Uiso   1.00
C385   C     0.15108   0.48151   0.64658   0.00000  Uiso   1.00
C386   C     0.14882   0.73925   0.71587   0.00000  Uiso   1.00
C387   C     0.16462   0.72838   0.75067   0.00000  Uiso   1.00
C388   C     0.12143   0.74614   0.75388   0.00000  Uiso   1.00
C389   C     0.18671   0.82557   0.68817   0.00000  Uiso   1.00
C390   C     0.23435   0.88729   0.69968   0.00000  Uiso   1.00
C391   C     0.22305   0.97774   0.67957   0.00000  Uiso   1.00
H392   H     0.03997   0.79591   0.62621   0.00000  Uiso   1.00
H393   H     0.02498   0.62449   0.59129   0.00000  Uiso   1.00
H394   H     0.00464   0.80606   0.66491   0.00000  Uiso   1.00
H395   H     0.07436   0.96493   0.61392   0.00000  Uiso   1.00
H396   H     0.03346   0.42224   0.56604   0.00000  Uiso   1.00
H397   H     0.99057   0.80512   0.72126   0.00000  Uiso   1.00
H398   H     0.13758   0.14014   0.61375   0.00000  Uiso   1.00
H399   H     0.23339   0.70201   0.72989   0.00000  Uiso   1.00
H400   H     0.22902   0.52544   0.70066   0.00000  Uiso   1.00
H401   H     0.20867   0.70701   0.77427   0.00000  Uiso   1.00
H402   H     0.27839   0.86588   0.72329   0.00000  Uiso   1.00
H403   H     0.19906   0.34184   0.65480   0.00000  Uiso   1.00
H404   H     0.15617   0.72473   0.81003   0.00000  Uiso   1.00
H405   H     0.30318   0.05974   0.70252   0.00000  Uiso   1.00
O406   O     0.10989   0.26756   0.58932   0.00000  Uiso   1.00
O407   O     0.05362   0.76991   0.79297   0.00000  Uiso   1.00
O408   O     0.24650   0.20944   0.65192   0.00000  Uiso   1.00
N409   N     0.07304   0.42756   0.59094   0.00000  Uiso   1.00
N410   N     0.03294   0.78551   0.73606   0.00000  Uiso   1.00
N411   N     0.17038   0.09875   0.63555   0.00000  Uiso   1.00
N412   N     0.16215   0.38430   0.63870   0.00000  Uiso   1.00
N413   N     0.12205   0.74225   0.78382   0.00000  Uiso   1.00
N414   N     0.25949   0.05549   0.68332   0.00000  Uiso   1.00
C415   C     0.88917   0.77852   0.84877   0.00000  Uiso   1.00
C416   C     0.87198   0.67007   0.85291   0.00000  Uiso   1.00
C417   C     0.90690   0.60409   0.88305   0.00000  Uiso   1.00
C418   C     0.88317   0.50805   0.88153   0.00000  Uiso   1.00
C419   C     0.86509   0.34403   0.89261   0.00000  Uiso   1.00
C420   C     0.88134   0.77506   0.81325   0.00000  Uiso   1.00
C421   C     0.92413   0.79737   0.81003   0.00000  Uiso   1.00
C422   C     0.90828   0.78973   0.77513   0.00000  Uiso   1.00
C423   C     0.90473   0.78879   0.72462   0.00000  Uiso   1.00
C424   C     0.84276   0.85395   0.84159   0.00000  Uiso   1.00
C425   C     0.85312   0.94261   0.86219   0.00000  Uiso   1.00
C426   C     0.80479   0.00140   0.85115   0.00000  Uiso   1.00
C427   C     0.74135   0.12294   0.84464   0.00000  Uiso   1.00
C428   C     0.78493   0.72529   0.79251   0.00000  Uiso   1.00
C429   C     0.81535   0.64116   0.82235   0.00000  Uiso   1.00
C430   C     0.79156   0.54520   0.82080   0.00000  Uiso   1.00
C431   C     0.82644   0.47909   0.85092   0.00000  Uiso   1.00
C432   C     0.82472   0.74615   0.78269   0.00000  Uiso   1.00
C433   C     0.80880   0.73848   0.74779   0.00000  Uiso   1.00
C434   C     0.85155   0.76077   0.74452   0.00000  Uiso   1.00
C435   C     0.78614   0.82504   0.81103   0.00000  Uiso   1.00
C436   C     0.73779   0.88371   0.79995   0.00000  Uiso   1.00
C437   C     0.74807   0.97244   0.82053   0.00000  Uiso   1.00
H438   H     0.93325   0.80103   0.87256   0.00000  Uiso   1.00
H439   H     0.95072   0.62648   0.90669   0.00000  Uiso   1.00
H440   H     0.96794   0.81975   0.83369   0.00000  Uiso   1.00
H441   H     0.89694   0.96496   0.88584   0.00000  Uiso   1.00
H442   H     0.94512   0.42021   0.93104   0.00000  Uiso   1.00
H443   H     0.98143   0.82776   0.77711   0.00000  Uiso   1.00
H444   H     0.83172   0.13395   0.88709   0.00000  Uiso   1.00
H445   H     0.74084   0.70278   0.76871   0.00000  Uiso   1.00
H446   H     0.74775   0.52285   0.79714   0.00000  Uiso   1.00
H447   H     0.76497   0.71611   0.72414   0.00000  Uiso   1.00
H448   H     0.69398   0.86132   0.77630   0.00000  Uiso   1.00
H449   H     0.78038   0.33609   0.84213   0.00000  Uiso   1.00
H450   H     0.81670   0.74364   0.68820   0.00000  Uiso   1.00
H451   H     0.66698   0.04983   0.79818   0.00000  Uiso   1.00
O452   O     0.87077   0.26154   0.90716   0.00000  Uiso   1.00
O453   O     0.91841   0.79625   0.70521   0.00000  Uiso   1.00
O454   O     0.72199   0.19796   0.84949   0.00000  Uiso   1.00
N455   N     0.90539   0.42511   0.90622   0.00000  Uiso   1.00
N456   N     0.93935   0.80613   0.76231   0.00000  Uiso   1.00
N457   N     0.79938   0.09241   0.86512   0.00000  Uiso   1.00
N458   N     0.81675   0.37985   0.85838   0.00000  Uiso   1.00
N459   N     0.85071   0.76087   0.71446   0.00000  Uiso   1.00
N460   N     0.71074   0.04715   0.81727   0.00000  Uiso   1.00
C461   C     0.70471   0.93656   0.90063   0.00000  Uiso   1.00
C462   C     0.67766   0.82963   0.89621   0.00000  Uiso   1.00
C463   C     0.65156   0.76399   0.86590   0.00000  Uiso   1.00
C464   C     0.62942   0.66941   0.86716   0.00000  Uiso   1.00
C465   C     0.58686   0.50759   0.85566   0.00000  Uiso   1.00
C466   C     0.76760   0.93056   0.93615   0.00000  Uiso   1.00
C467   C     0.81712   0.94980   0.93942   0.00000  Uiso   1.00
C468   C     0.87070   0.94019   0.97431   0.00000  Uiso   1.00
C469   C     0.96777   0.93514   0.02482   0.00000  Uiso   1.00
C470   C     0.67374   0.01436   0.90801   0.00000  Uiso   1.00
C471   C     0.64435   0.10408   0.88763   0.00000  Uiso   1.00
C472   C     0.61892   0.16505   0.89883   0.00000  Uiso   1.00
C473   C     0.57026   0.29011   0.90565   0.00000  Uiso   1.00
C474   C     0.71181   0.88530   0.95675   0.00000  Uiso   1.00
C475   C     0.68152   0.80179   0.92669   0.00000  Uiso   1.00
C476   C     0.65942   0.70729   0.92799   0.00000  Uiso   1.00
C477   C     0.63329   0.64152   0.89770   0.00000  Uiso   1.00
C478   C     0.77146   0.90272   0.96663   0.00000  Uiso   1.00
C479   C     0.82498   0.89309   0.00151   0.00000  Uiso   1.00
C480   C     0.87457   0.91230   0.00484   0.00000  Uiso   1.00
C481   C     0.67760   0.98652   0.93849   0.00000  Uiso   1.00
C482   C     0.65221   0.04737   0.94972   0.00000  Uiso   1.00
C483   C     0.62279   0.13716   0.92936   0.00000  Uiso   1.00
H484   H     0.70171   0.95823   0.87690   0.00000  Uiso   1.00
H485   H     0.64858   0.78556   0.84232   0.00000  Uiso   1.00
H486   H     0.81412   0.97135   0.91583   0.00000  Uiso   1.00
H487   H     0.64138   0.12560   0.86405   0.00000  Uiso   1.00
H488   H     0.59141   0.58183   0.81743   0.00000  Uiso   1.00
H489   H     0.94045   0.97360   0.97243   0.00000  Uiso   1.00
H490   H     0.57619   0.29888   0.86323   0.00000  Uiso   1.00
H491   H     0.71482   0.86363   0.98048   0.00000  Uiso   1.00
H492   H     0.66241   0.68576   0.95158   0.00000  Uiso   1.00
H493   H     0.82795   0.87155   0.02510   0.00000  Uiso   1.00
H494   H     0.65520   0.02580   0.97331   0.00000  Uiso   1.00
H495   H     0.60263   0.50083   0.90611   0.00000  Uiso   1.00
H496   H     0.95167   0.89261   0.06111   0.00000  Uiso   1.00
H497   H     0.58741   0.21787   0.95191   0.00000  Uiso   1.00
O498   O     0.56233   0.42602   0.84090   0.00000  Uiso   1.00
O499   O     0.02025   0.94003   0.04425   0.00000  Uiso   1.00
O500   O     0.54235   0.36677   0.90098   0.00000  Uiso   1.00
N501   N     0.60123   0.58719   0.84226   0.00000  Uiso   1.00
N502   N     0.92756   0.95345   0.98718   0.00000  Uiso   1.00
N503   N     0.58702   0.25757   0.88509   0.00000  Uiso   1.00
N504   N     0.60727   0.54360   0.88998   0.00000  Uiso   1.00
N505   N     0.93360   0.90987   0.03490   0.00000  Uiso   1.00
N506   N     0.59306   0.21399   0.93281   0.00000  Uiso   1.00
C507   C     0.20415   0.60496   0.40055   0.00000  Uiso   1.00
C508   C     0.17767   0.49737   0.39610   0.00000  Uiso   1.00
C509   C     0.15190   0.43194   0.36578   0.00000  Uiso   1.00
C510   C     0.13028   0.33667   0.36702   0.00000  Uiso   1.00
C511   C     0.08859   0.17396   0.35547   0.00000  Uiso   1.00
C512   C     0.26708   0.59969   0.43605   0.00000  Uiso   1.00
C513   C     0.31648   0.62031   0.43932   0.00000  Uiso   1.00
C514   C     0.37012   0.61118   0.47420   0.00000  Uiso   1.00
C515   C     0.46723   0.60740   0.52469   0.00000  Uiso   1.00
C516   C     0.17279   0.68159   0.40796   0.00000  Uiso   1.00
C517   C     0.14292   0.77108   0.38762   0.00000  Uiso   1.00
C518   C     0.11718   0.83092   0.39884   0.00000  Uiso   1.00
C519   C     0.06788   0.95430   0.40572   0.00000  Uiso   1.00
C520   C     0.21157   0.55211   0.45667   0.00000  Uiso   1.00
C521   C     0.18171   0.46867   0.42658   0.00000  Uiso   1.00
C522   C     0.16012   0.37347   0.42787   0.00000  Uiso   1.00
C523   C     0.13432   0.30791   0.39755   0.00000  Uiso   1.00
C524   C     0.27111   0.57099   0.46654   0.00000  Uiso   1.00
C525   C     0.32469   0.56184   0.50141   0.00000  Uiso   1.00
C526   C     0.37416   0.58242   0.50474   0.00000  Uiso   1.00
C527   C     0.17682   0.65289   0.43844   0.00000  Uiso   1.00
C528   C     0.15113   0.71261   0.44970   0.00000  Uiso   1.00
C529   C     0.12122   0.80217   0.42938   0.00000  Uiso   1.00
H530   H     0.20101   0.62731   0.37682   0.00000  Uiso   1.00
H531   H     0.14880   0.45418   0.34219   0.00000  Uiso   1.00
H532   H     0.31335   0.64253   0.41573   0.00000  Uiso   1.00
H533   H     0.13981   0.79327   0.36403   0.00000  Uiso   1.00
H534   H     0.09270   0.24956   0.31725   0.00000  Uiso   1.00
H535   H     0.43966   0.64674   0.47231   0.00000  Uiso   1.00
H536   H     0.07372   0.96461   0.36329   0.00000  Uiso   1.00
H537   H     0.21471   0.52977   0.48040   0.00000  Uiso   1.00
H538   H     0.16324   0.35128   0.45146   0.00000  Uiso   1.00
H539   H     0.32780   0.53963   0.52500   0.00000  Uiso   1.00
H540   H     0.15426   0.69037   0.47329   0.00000  Uiso   1.00
H541   H     0.10443   0.16604   0.40593   0.00000  Uiso   1.00
H542   H     0.45139   0.56322   0.56099   0.00000  Uiso   1.00
H543   H     0.08545   0.88109   0.45197   0.00000  Uiso   1.00
O544   O     0.06448   0.09213   0.34069   0.00000  Uiso   1.00
O545   O     0.51968   0.61323   0.54412   0.00000  Uiso   1.00
O546   O     0.03957   0.03027   0.40108   0.00000  Uiso   1.00
N547   N     0.10252   0.25441   0.34209   0.00000  Uiso   1.00
N548   N     0.42690   0.62573   0.48706   0.00000  Uiso   1.00
N549   N     0.08479   0.92293   0.38514   0.00000  Uiso   1.00
N550   N     0.10882   0.20947   0.38981   0.00000  Uiso   1.00
N551   N     0.43321   0.58079   0.53478   0.00000  Uiso   1.00
N552   N     0.09110   0.87799   0.43286   0.00000  Uiso   1.00
C553   C     0.58428   0.27440   0.64997   0.00000  Uiso   1.00
C554   C     0.60296   0.16824   0.64537   0.00000  Uiso   1.00
C555   C     0.56903   0.10308   0.61490   0.00000  Uiso   1.00
C556   C     0.59406   0.00919   0.61602   0.00000  Uiso   1.00
C557   C     0.61440   0.84854   0.60424   0.00000  Uiso   1.00
C558   C     0.59191   0.26688   0.68536   0.00000  Uiso   1.00
C559   C     0.54868   0.28467   0.68852   0.00000  Uiso   1.00
C560   C     0.56441   0.27382   0.72331   0.00000  Uiso   1.00
C561   C     0.56760   0.26639   0.77364   0.00000  Uiso   1.00
C562   C     0.62979   0.35320   0.65766   0.00000  Uiso   1.00
C563   C     0.61841   0.44358   0.63753   0.00000  Uiso   1.00
C564   C     0.66603   0.50542   0.64900   0.00000  Uiso   1.00
C565   C     0.72802   0.63200   0.65632   0.00000  Uiso   1.00
C566   C     0.68907   0.22353   0.70614   0.00000  Uiso   1.00
C567   C     0.65988   0.14061   0.67588   0.00000  Uiso   1.00
C568   C     0.68497   0.04680   0.67704   0.00000  Uiso   1.00
C569   C     0.65108   0.98151   0.64658   0.00000  Uiso   1.00
C570   C     0.64882   0.23925   0.71587   0.00000  Uiso   1.00
C571   C     0.66462   0.22838   0.75067   0.00000  Uiso   1.00
C572   C     0.62143   0.24614   0.75388   0.00000  Uiso   1.00
C573   C     0.68671   0.32557   0.68817   0.00000  Uiso   1.00
C574   C     0.73435   0.38729   0.69968   0.00000  Uiso   1.00
C575   C     0.72305   0.47774   0.67957   0.00000  Uiso   1.00
H576   H     0.53997   0.29591   0.62621   0.00000  Uiso   1.00
H577   H     0.52498   0.12449   0.59129   0.00000  Uiso   1.00
H578   H     0.50464   0.30606   0.66491   0.00000  Uiso   1.00
H579   H     0.57436   0.46493   0.61392   0.00000  Uiso   1.00
H580   H     0.53346   0.92224   0.56604   0.00000  Uiso   1.00
H581   H     0.49057   0.30512   0.72126   0.00000  Uiso   1.00
H582   H     0.63758   0.64014   0.61375   0.00000  Uiso   1.00
H583   H     0.73339   0.20201   0.72989   0.00000  Uiso   1.00
H584   H     0.72902   0.02544   0.70066   0.00000  Uiso   1.00
H585   H     0.70867   0.20701   0.77427   0.00000  Uiso   1.00
H586   H     0.77839   0.36588   0.72329   0.00000  Uiso   1.00
H587   H     0.69906   0.84184   0.65480   0.00000  Uiso   1.00
H588   H     0.65617   0.22473   0.81003   0.00000  Uiso   1.00
H589   H     0.80318   0.55974   0.70252   0.00000  Uiso   1.00
O590   O     0.60989   0.76756   0.58932   0.00000  Uiso   1.00
O591   O     0.55362   0.26991   0.79297   0.00000  Uiso   1.00
O592   O     0.74650   0.70944   0.65192   0.00000  Uiso   1.00
N593   N     0.57304   0.92756   0.59094   0.00000  Uiso   1.00
N594   N     0.53294   0.28551   0.73606   0.00000  Uiso   1.00
N595   N     0.67038   0.59875   0.63555   0.00000  Uiso   1.00
N596   N     0.66215   0.88430   0.63870   0.00000  Uiso   1.00
N597   N     0.62205   0.24225   0.78382   0.00000  Uiso   1.00
N598   N     0.75949   0.55549   0.68332   0.00000  Uiso   1.00
C599   C     0.38917   0.27852   0.84877   0.00000  Uiso   1.00
C600   C     0.37198   0.17007   0.85291   0.00000  Uiso   1.00
C601   C     0.40690   0.10409   0.88305   0.00000  Uiso   1.00
C602   C     0.38317   0.00805   0.88153   0.00000  Uiso   1.00
C603   C     0.36509   0.84403   0.89261   0.00000  Uiso   1.00
C604   C     0.38134   0.27506   0.81325   0.00000  Uiso   1.00
C605   C     0.42413   0.29737   0.81003   0.00000  Uiso   1.00
C606   C     0.40828   0.28973   0.77513   0.00000  Uiso   1.00
C607   C     0.40473   0.28879   0.72462   0.00000  Uiso   1.00
C608   C     0.34276   0.35395   0.84159   0.00000  Uiso   1.00
C609   C     0.35312   0.44261   0.86219   0.00000  Uiso   1.00
C610   C     0.30479   0.50140   0.85115   0.00000  Uiso   1.00
C611   C     0.24135   0.62294   0.84464   0.00000  Uiso   1.00
C612   C     0.28493   0.22529   0.79251   0.00000  Uiso   1.00
C613   C     0.31535   0.14116   0.82235   0.00000  Uiso   1.00
C614   C     0.29156   0.04520   0.82080   0.00000  Uiso   1.00
C615   C     0.32644   0.97909   0.85092   0.00000  Uiso   1.00
C616   C     0.32472   0.24615   0.78269   0.00000  Uiso   1.00
C617   C     0.30880   0.23848   0.74779   0.00000  Uiso   1.00
C618   C     0.35155   0.26077   0.74452   0.00000  Uiso   1.00
C619   C     0.28614   0.32504   0.81103   0.00000  Uiso   1.00
C620   C     0.23779   0.38371   0.79995   0.00000  Uiso   1.00
C621   C     0.24807   0.47244   0.82053   0.00000  Uiso   1.00
H622   H     0.43325   0.30103   0.87256   0.00000  Uiso   1.00
H623   H     0.45072   0.12648   0.90669   0.00000  Uiso   1.00
H624   H     0.46794   0.31975   0.83369   0.00000  Uiso   1.00
H625   H     0.39694   0.46496   0.88584   0.00000  Uiso   1.00
H626   H     0.44512   0.92021   0.93104   0.00000  Uiso   1.00
H627   H     0.48143   0.32776   0.77711   0.00000  Uiso   1.00
H628   H     0.33172   0.63395   0.88709   0.00000  Uiso   1.00
H629   H     0.24084   0.20278   0.76871   0.00000  Uiso   1.00
H630   H     0.24775   0.02285   0.79714   0.00000  Uiso   1.00
H631   H     0.26497   0.21611   0.72414   0.00000  Uiso   1.00
H632   H     0.19398   0.36132   0.77630   0.00000  Uiso   1.00
H633   H     0.28038   0.83609   0.84213   0.00000  Uiso   1.00
H634   H     0.31670   0.24364   0.68820   0.00000  Uiso   1.00
H635   H     0.16698   0.54983   0.79818   0.00000  Uiso   1.00
O636   O     0.37077   0.76154   0.90716   0.00000  Uiso   1.00
O637   O     0.41841   0.29625   0.70521   0.00000  Uiso   1.00
O638   O     0.22199   0.69796   0.84949   0.00000  Uiso   1.00
N639   N     0.40539   0.92511   0.90622   0.00000  Uiso   1.00
N640   N     0.43935   0.30613   0.76231   0.00000  Uiso   1.00
N641   N     0.29938   0.59241   0.86512   0.00000  Uiso   1.00
N642   N     0.31675   0.87985   0.85838   0.00000  Uiso   1.00
N643   N     0.35071   0.26087   0.71446   0.00000  Uiso   1.00
N644   N     0.21074   0.54715   0.81727   0.00000  Uiso   1.00
C645   C     0.20471   0.43656   0.90063   0.00000  Uiso   1.00
C646   C     0.17766   0.32963   0.89621   0.00000  Uiso   1.00
C647   C     0.15156   0.26399   0.86590   0.00000  Uiso   1.00
C648   C     0.12942   0.16941   0.86716   0.00000  Uiso   1.00
C649   C     0.08686   0.00759   0.85566   0.00000  Uiso   1.00
C650   C     0.26760   0.43056   0.93615   0.00000  Uiso   1.00
C651   C     0.31712   0.44980   0.93942   0.00000  Uiso   1.00
C652   C     0.37070   0.44019   0.97431   0.00000  Uiso   1.00
C653   C     0.46777   0.43514   0.02482   0.00000  Uiso   1.00
C654   C     0.17374   0.51436   0.90801   0.00000  Uiso   1.00
C655   C     0.14435   0.60408   0.88763   0.00000  Uiso   1.00
C656   C     0.11892   0.66505   0.89883   0.00000  Uiso   1.00
C657   C     0.07026   0.79011   0.90565   0.00000  Uiso   1.00
C658   C     0.21181   0.38530   0.95675   0.00000  Uiso   1.00
C659   C     0.18152   0.30179   0.92669   0.00000  Uiso   1.00
C660   C     0.15942   0.20729   0.92799   0.00000  Uiso   1.00
C661   C     0.13329   0.14152   0.89770   0.00000  Uiso   1.00
C662   C     0.27146   0.40272   0.96663   0.00000  Uiso   1.00
C663   C     0.32498   0.39309   0.00151   0.00000  Uiso   1.00
C664   C     0.37457   0.41230   0.00484   0.00000  Uiso   1.00
C665   C     0.17760   0.48652   0.93849   0.00000  Uiso   1.00
C666   C     0.15221   0.54737   0.94972   0.00000  Uiso   1.00
C667   C     0.12279   0.63716   0.92936   0.00000  Uiso   1.00
H668   H     0.20171   0.45823   0.87690   0.00000  Uiso   1.00
H669   H     0.14858   0.28556   0.84232   0.00000  Uiso   1.00
H670   H     0.31412   0.47135   0.91583   0.00000  Uiso   1.00
H671   H     0.14138   0.62560   0.86405   0.00000  Uiso   1.00
H672   H     0.09141   0.08183   0.81743   0.00000  Uiso   1.00
H673   H     0.44045   0.47360   0.97243   0.00000  Uiso   1.00
H674   H     0.07619   0.79888   0.86323   0.00000  Uiso   1.00
H675   H     0.21482   0.36363   0.98048   0.00000  Uiso   1.00
H676   H     0.16241   0.18576   0.95158   0.00000  Uiso   1.00
H677   H     0.32795   0.37155   0.02510   0.00000  Uiso   1.00
H678   H     0.15520   0.52580   0.97331   0.00000  Uiso   1.00
H679   H     0.10263   0.00083   0.90611   0.00000  Uiso   1.00
H680   H     0.45167   0.39261   0.06111   0.00000  Uiso   1.00
H681   H     0.08741   0.71787   0.95191   0.00000  Uiso   1.00
O682   O     0.06233   0.92602   0.84090   0.00000  Uiso   1.00
O683   O     0.52025   0.44003   0.04425   0.00000  Uiso   1.00
O684   O     0.04235   0.86677   0.90098   0.00000  Uiso   1.00
N685   N     0.10123   0.08719   0.84226   0.00000  Uiso   1.00
N686   N     0.42756   0.45345   0.98718   0.00000  Uiso   1.00
N687   N     0.08702   0.75757   0.88509   0.00000  Uiso   1.00
N688   N     0.10727   0.04360   0.88998   0.00000  Uiso   1.00
N689   N     0.43360   0.40987   0.03490   0.00000  Uiso   1.00
N690   N     0.09306   0.71399   0.93281   0.00000  Uiso   1.00
C691   C     0.70415   0.10496   0.40055   0.00000  Uiso   1.00
C692   C     0.67767   0.99737   0.39610   0.00000  Uiso   1.00
C693   C     0.65190   0.93194   0.36578   0.00000  Uiso   1.00
C694   C     0.63028   0.83667   0.36702   0.00000  Uiso   1.00
C695   C     0.58859   0.67396   0.35547   0.00000  Uiso   1.00
C696   C     0.76708   0.09969   0.43605   0.00000  Uiso   1.00
C697   C     0.81648   0.12031   0.43932   0.00000  Uiso   1.00
C698   C     0.87012   0.11118   0.47420   0.00000  Uiso   1.00
C699   C     0.96723   0.10740   0.52469   0.00000  Uiso   1.00
C700   C     0.67279   0.18159   0.40796   0.00000  Uiso   1.00
C701   C     0.64292   0.27108   0.38762   0.00000  Uiso   1.00
C702   C     0.61718   0.33092   0.39884   0.00000  Uiso   1.00
C703   C     0.56788   0.45430   0.40572   0.00000  Uiso   1.00
C704   C     0.71157   0.05211   0.45667   0.00000  Uiso   1.00
C705   C     0.68171   0.96867   0.42658   0.00000  Uiso   1.00
C706   C     0.66012   0.87347   0.42787   0.00000  Uiso   1.00
C707   C     0.63432   0.80791   0.39755   0.00000  Uiso   1.00
C708   C     0.77111   0.07099   0.46654   0.00000  Uiso   1.00
C709   C     0.82469   0.06184   0.50141   0.00000  Uiso   1.00
C710   C     0.87416   0.08242   0.50474   0.00000  Uiso   1.00
C711   C     0.67682   0.15289   0.43844   0.00000  Uiso   1.00
C712   C     0.65113   0.21261   0.44970   0.00000  Uiso   1.00
C713   C     0.62122   0.30217   0.42938   0.00000  Uiso   1.00
H714   H     0.70101   0.12731   0.37682   0.00000  Uiso   1.00
H715   H     0.64880   0.95418   0.34219   0.00000  Uiso   1.00
H716   H     0.81335   0.14253   0.41573   0.00000  Uiso   1.00
H717   H     0.63981   0.29327   0.36403   0.00000  Uiso   1.00
H718   H     0.59270   0.74956   0.31725   0.00000  Uiso   1.00
H719   H     0.93966   0.14674   0.47231   0.00000  Uiso   1.00
H720   H     0.57372   0.46461   0.36329   0.00000  Uiso   1.00
H721   H     0.71471   0.02977   0.48040   0.00000  Uiso   1.00
H722   H     0.66324   0.85128   0.45146   0.00000  Uiso   1.00
H723   H     0.82780   0.03963   0.52500   0.00000  Uiso   1.00
H724   H     0.65426   0.19037   0.47329   0.00000  Uiso   1.00
H725   H     0.60443   0.66604   0.40593   0.00000  Uiso   1.00
H726   H     0.95139   0.06322   0.56099   0.00000  Uiso   1.00
H727   H     0.58545   0.38109   0.45197   0.00000  Uiso   1.00
O728   O     0.56448   0.59213   0.34069   0.00000  Uiso   1.00
O729   O     0.01968   0.11323   0.54412   0.00000  Uiso   1.00
O730   O     0.53957   0.53027   0.40108   0.00000  Uiso   1.00
N731   N     0.60252   0.75441   0.34209   0.00000  Uiso   1.00
N732   N     0.92690   0.12573   0.48706   0.00000  Uiso   1.00
N733   N     0.58479   0.42293   0.38514   0.00000  Uiso   1.00
N734   N     0.60882   0.70947   0.38981   0.00000  Uiso   1.00
N735   N     0.93321   0.08079   0.53478   0.00000  Uiso   1.00
N736   N     0.59110   0.37799   0.43286   0.00000  Uiso   1.00
