data_job_01406
_audit_creation_date              2018-12-19
_audit_creation_method            'Materials Studio'
_symmetry_space_group_name_H-M    'P1'
_symmetry_Int_Tables_number       1
_symmetry_cell_setting            triclinic
loop_
_symmetry_equiv_pos_as_xyz
  x,y,z
_cell_length_a                    11.5348
_cell_length_b                    34.5781
_cell_length_c                    34.0932
_cell_angle_alpha                 90.0000
_cell_angle_beta                  90.0000
_cell_angle_gamma                 90.0000
loop_
_atom_site_label
_atom_site_type_symbol
_atom_site_fract_x
_atom_site_fract_y
_atom_site_fract_z
_atom_site_U_iso_or_equiv
_atom_site_adp_type
_atom_site_occupancy
C1     C     0.02145   0.58261   0.93217   0.00000  Uiso   1.00
C2     C     0.97104   0.56433   0.89521   0.00000  Uiso   1.00
C3     C     0.89120   0.53432   0.89417   0.00000  Uiso   1.00
C4     C     0.85580   0.52166   0.85743   0.00000  Uiso   1.00
C5     C     0.77104   0.49071   0.80528   0.00000  Uiso   1.00
C6     C     0.15275   0.57895   0.92848   0.00000  Uiso   1.00
C7     C     0.22568   0.56125   0.95542   0.00000  Uiso   1.00
C8     C     0.34325   0.56092   0.94668   0.00000  Uiso   1.00
C9     C     0.54059   0.55270   0.94620   0.00000  Uiso   1.00
C10    C     0.99478   0.62571   0.92935   0.00000  Uiso   1.00
C11    C     0.93492   0.64733   0.95704   0.00000  Uiso   1.00
C12    C     0.91951   0.68637   0.94904   0.00000  Uiso   1.00
C13    C     0.87159   0.75075   0.94992   0.00000  Uiso   1.00
C14    C     0.10055   0.61350   0.86875   0.00000  Uiso   1.00
C15    C     0.01401   0.58110   0.86076   0.00000  Uiso   1.00
C16    C     0.97872   0.56849   0.82401   0.00000  Uiso   1.00
C17    C     0.89884   0.53847   0.82292   0.00000  Uiso   1.00
C18    C     0.19571   0.59573   0.89404   0.00000  Uiso   1.00
C19    C     0.31320   0.59542   0.88526   0.00000  Uiso   1.00
C20    C     0.38629   0.57772   0.91218   0.00000  Uiso   1.00
C21    C     0.03774   0.64249   0.89491   0.00000  Uiso   1.00
C22    C     0.02243   0.68150   0.88687   0.00000  Uiso   1.00
C23    C     0.96256   0.70317   0.91453   0.00000  Uiso   1.00
H24    H     0.98801   0.56955   0.95898   0.00000  Uiso   1.00
H25    H     0.85798   0.52134   0.92084   0.00000  Uiso   1.00
H26    H     0.19241   0.54827   0.98207   0.00000  Uiso   1.00
H27    H     0.90169   0.63434   0.98369   0.00000  Uiso   1.00
H28    H     0.73280   0.47528   0.86335   0.00000  Uiso   1.00
H29    H     0.43797   0.53208   0.99248   0.00000  Uiso   1.00
H30    H     0.82493   0.71357   0.99588   0.00000  Uiso   1.00
H31    H     0.13400   0.62656   0.84193   0.00000  Uiso   1.00
H32    H     0.01198   0.58148   0.79736   0.00000  Uiso   1.00
H33    H     0.34641   0.60841   0.85860   0.00000  Uiso   1.00
H34    H     0.05569   0.69448   0.86021   0.00000  Uiso   1.00
H35    H     0.85780   0.52409   0.76314   0.00000  Uiso   1.00
H36    H     0.56296   0.58090   0.89227   0.00000  Uiso   1.00
H37    H     0.94992   0.76238   0.89567   0.00000  Uiso   1.00
O38    O     0.71243   0.46900   0.78604   0.00000  Uiso   1.00
O39    O     0.63757   0.54352   0.95545   0.00000  Uiso   1.00
O40    O     0.83328   0.78162   0.95991   0.00000  Uiso   1.00
N41    N     0.77895   0.49296   0.84588   0.00000  Uiso   1.00
N42    N     0.43823   0.54606   0.96661   0.00000  Uiso   1.00
N43    N     0.86512   0.71574   0.96979   0.00000  Uiso   1.00
N44    N     0.84621   0.51923   0.79196   0.00000  Uiso   1.00
N45    N     0.50549   0.57233   0.91268   0.00000  Uiso   1.00
N46    N     0.93238   0.74200   0.91587   0.00000  Uiso   1.00
C47    C     0.06264   0.58366   0.06769   0.00000  Uiso   1.00
C48    C     0.11402   0.56600   0.10481   0.00000  Uiso   1.00
C49    C     0.19462   0.53623   0.10612   0.00000  Uiso   1.00
C50    C     0.23085   0.52415   0.14297   0.00000  Uiso   1.00
C51    C     0.31711   0.49411   0.19538   0.00000  Uiso   1.00
C52    C     0.93149   0.57969   0.07164   0.00000  Uiso   1.00
C53    C     0.85863   0.56144   0.04506   0.00000  Uiso   1.00
C54    C     0.74120   0.56089   0.05399   0.00000  Uiso   1.00
C55    C     0.54408   0.55213   0.05491   0.00000  Uiso   1.00
C56    C     0.08827   0.62687   0.06989   0.00000  Uiso   1.00
C57    C     0.14720   0.64829   0.04182   0.00000  Uiso   1.00
C58    C     0.16174   0.68746   0.04927   0.00000  Uiso   1.00
C59    C     0.20804   0.75196   0.04745   0.00000  Uiso   1.00
C60    C     0.98366   0.61515   0.13082   0.00000  Uiso   1.00
C61    C     0.07112   0.58310   0.13910   0.00000  Uiso   1.00
C62    C     0.10724   0.57107   0.17596   0.00000  Uiso   1.00
C63    C     0.18788   0.54129   0.17732   0.00000  Uiso   1.00
C64    C     0.88859   0.59679   0.10593   0.00000  Uiso   1.00
C65    C     0.77124   0.59628   0.11490   0.00000  Uiso   1.00
C66    C     0.69822   0.57802   0.08834   0.00000  Uiso   1.00
C67    C     0.04537   0.64397   0.10417   0.00000  Uiso   1.00
C68    C     0.05982   0.68313   0.11167   0.00000  Uiso   1.00
C69    C     0.11876   0.70460   0.08362   0.00000  Uiso   1.00
H70    H     0.09603   0.57034   0.04100   0.00000  Uiso   1.00
H71    H     0.22779   0.52300   0.07957   0.00000  Uiso   1.00
H72    H     0.89185   0.54820   0.01853   0.00000  Uiso   1.00
H73    H     0.18038   0.63504   0.01529   0.00000  Uiso   1.00
H74    H     0.35492   0.47804   0.13746   0.00000  Uiso   1.00
H75    H     0.64657   0.53120   0.00874   0.00000  Uiso   1.00
H76    H     0.25499   0.71431   0.00191   0.00000  Uiso   1.00
H77    H     0.95025   0.62847   0.15751   0.00000  Uiso   1.00
H78    H     0.07402   0.58431   0.20249   0.00000  Uiso   1.00
H79    H     0.73807   0.60952   0.14144   0.00000  Uiso   1.00
H80    H     0.02661   0.69635   0.13820   0.00000  Uiso   1.00
H81    H     0.23011   0.52780   0.23722   0.00000  Uiso   1.00
H82    H     0.52175   0.58097   0.10850   0.00000  Uiso   1.00
H83    H     0.13017   0.76408   0.10167   0.00000  Uiso   1.00
O84    O     0.37653   0.47282   0.21482   0.00000  Uiso   1.00
O85    O     0.44720   0.54257   0.04594   0.00000  Uiso   1.00
O86    O     0.24544   0.78281   0.03698   0.00000  Uiso   1.00
N87    N     0.30858   0.49582   0.15477   0.00000  Uiso   1.00
N88    N     0.64631   0.54551   0.03442   0.00000  Uiso   1.00
N89    N     0.21511   0.71671   0.02804   0.00000  Uiso   1.00
N90    N     0.24142   0.52259   0.20845   0.00000  Uiso   1.00
N91    N     0.57915   0.57229   0.08810   0.00000  Uiso   1.00
N92    N     0.14795   0.74349   0.08172   0.00000  Uiso   1.00
C93    C     0.02145   0.08261   0.43217   0.00000  Uiso   1.00
C94    C     0.97104   0.06433   0.39521   0.00000  Uiso   1.00
C95    C     0.89120   0.03432   0.39417   0.00000  Uiso   1.00
C96    C     0.85580   0.02166   0.35743   0.00000  Uiso   1.00
C97    C     0.77104   0.99071   0.30528   0.00000  Uiso   1.00
C98    C     0.15275   0.07895   0.42848   0.00000  Uiso   1.00
C99    C     0.22568   0.06125   0.45542   0.00000  Uiso   1.00
C100   C     0.34325   0.06092   0.44668   0.00000  Uiso   1.00
C101   C     0.54059   0.05270   0.44620   0.00000  Uiso   1.00
C102   C     0.99478   0.12571   0.42935   0.00000  Uiso   1.00
C103   C     0.93492   0.14733   0.45704   0.00000  Uiso   1.00
C104   C     0.91951   0.18637   0.44904   0.00000  Uiso   1.00
C105   C     0.87159   0.25075   0.44992   0.00000  Uiso   1.00
C106   C     0.10055   0.11350   0.36875   0.00000  Uiso   1.00
C107   C     0.01401   0.08110   0.36076   0.00000  Uiso   1.00
C108   C     0.97872   0.06849   0.32401   0.00000  Uiso   1.00
C109   C     0.89884   0.03847   0.32292   0.00000  Uiso   1.00
C110   C     0.19571   0.09573   0.39404   0.00000  Uiso   1.00
C111   C     0.31320   0.09542   0.38526   0.00000  Uiso   1.00
C112   C     0.38629   0.07772   0.41218   0.00000  Uiso   1.00
C113   C     0.03774   0.14249   0.39491   0.00000  Uiso   1.00
C114   C     0.02243   0.18150   0.38687   0.00000  Uiso   1.00
C115   C     0.96256   0.20317   0.41453   0.00000  Uiso   1.00
H116   H     0.98801   0.06955   0.45898   0.00000  Uiso   1.00
H117   H     0.85798   0.02134   0.42084   0.00000  Uiso   1.00
H118   H     0.19241   0.04827   0.48207   0.00000  Uiso   1.00
H119   H     0.90169   0.13434   0.48369   0.00000  Uiso   1.00
H120   H     0.73280   0.97528   0.36335   0.00000  Uiso   1.00
H121   H     0.43797   0.03208   0.49248   0.00000  Uiso   1.00
H122   H     0.82493   0.21357   0.49588   0.00000  Uiso   1.00
H123   H     0.13400   0.12656   0.34193   0.00000  Uiso   1.00
H124   H     0.01198   0.08148   0.29736   0.00000  Uiso   1.00
H125   H     0.34641   0.10841   0.35860   0.00000  Uiso   1.00
H126   H     0.05569   0.19448   0.36021   0.00000  Uiso   1.00
H127   H     0.85780   0.02409   0.26314   0.00000  Uiso   1.00
H128   H     0.56296   0.08090   0.39227   0.00000  Uiso   1.00
H129   H     0.94992   0.26238   0.39567   0.00000  Uiso   1.00
O130   O     0.71243   0.96900   0.28604   0.00000  Uiso   1.00
O131   O     0.63757   0.04352   0.45545   0.00000  Uiso   1.00
O132   O     0.83328   0.28162   0.45991   0.00000  Uiso   1.00
N133   N     0.77895   0.99296   0.34588   0.00000  Uiso   1.00
N134   N     0.43823   0.04606   0.46661   0.00000  Uiso   1.00
N135   N     0.86512   0.21574   0.46979   0.00000  Uiso   1.00
N136   N     0.84621   0.01923   0.29196   0.00000  Uiso   1.00
N137   N     0.50549   0.07233   0.41268   0.00000  Uiso   1.00
N138   N     0.93238   0.24200   0.41587   0.00000  Uiso   1.00
C139   C     0.06264   0.08366   0.56769   0.00000  Uiso   1.00
C140   C     0.11402   0.06600   0.60481   0.00000  Uiso   1.00
C141   C     0.19462   0.03623   0.60612   0.00000  Uiso   1.00
C142   C     0.23085   0.02415   0.64297   0.00000  Uiso   1.00
C143   C     0.31711   0.99411   0.69538   0.00000  Uiso   1.00
C144   C     0.93149   0.07969   0.57164   0.00000  Uiso   1.00
C145   C     0.85863   0.06144   0.54506   0.00000  Uiso   1.00
C146   C     0.74120   0.06089   0.55399   0.00000  Uiso   1.00
C147   C     0.54408   0.05213   0.55491   0.00000  Uiso   1.00
C148   C     0.08827   0.12687   0.56989   0.00000  Uiso   1.00
C149   C     0.14720   0.14829   0.54182   0.00000  Uiso   1.00
C150   C     0.16174   0.18746   0.54927   0.00000  Uiso   1.00
C151   C     0.20804   0.25196   0.54745   0.00000  Uiso   1.00
C152   C     0.98366   0.11515   0.63082   0.00000  Uiso   1.00
C153   C     0.07112   0.08310   0.63910   0.00000  Uiso   1.00
C154   C     0.10724   0.07107   0.67596   0.00000  Uiso   1.00
C155   C     0.18788   0.04129   0.67732   0.00000  Uiso   1.00
C156   C     0.88859   0.09679   0.60593   0.00000  Uiso   1.00
C157   C     0.77124   0.09628   0.61490   0.00000  Uiso   1.00
C158   C     0.69822   0.07802   0.58834   0.00000  Uiso   1.00
C159   C     0.04537   0.14397   0.60417   0.00000  Uiso   1.00
C160   C     0.05982   0.18313   0.61167   0.00000  Uiso   1.00
C161   C     0.11876   0.20460   0.58362   0.00000  Uiso   1.00
H162   H     0.09603   0.07034   0.54100   0.00000  Uiso   1.00
H163   H     0.22779   0.02300   0.57957   0.00000  Uiso   1.00
H164   H     0.89185   0.04820   0.51853   0.00000  Uiso   1.00
H165   H     0.18038   0.13504   0.51529   0.00000  Uiso   1.00
H166   H     0.35492   0.97804   0.63746   0.00000  Uiso   1.00
H167   H     0.64657   0.03120   0.50874   0.00000  Uiso   1.00
H168   H     0.25499   0.21431   0.50191   0.00000  Uiso   1.00
H169   H     0.95025   0.12847   0.65751   0.00000  Uiso   1.00
H170   H     0.07402   0.08431   0.70249   0.00000  Uiso   1.00
H171   H     0.73807   0.10952   0.64144   0.00000  Uiso   1.00
H172   H     0.02661   0.19635   0.63820   0.00000  Uiso   1.00
H173   H     0.23011   0.02780   0.73722   0.00000  Uiso   1.00
H174   H     0.52175   0.08097   0.60850   0.00000  Uiso   1.00
H175   H     0.13017   0.26408   0.60167   0.00000  Uiso   1.00
O176   O     0.37653   0.97282   0.71482   0.00000  Uiso   1.00
O177   O     0.44720   0.04257   0.54594   0.00000  Uiso   1.00
O178   O     0.24544   0.28281   0.53698   0.00000  Uiso   1.00
N179   N     0.30858   0.99582   0.65477   0.00000  Uiso   1.00
N180   N     0.64631   0.04551   0.53442   0.00000  Uiso   1.00
N181   N     0.21511   0.21671   0.52804   0.00000  Uiso   1.00
N182   N     0.24142   0.02259   0.70845   0.00000  Uiso   1.00
N183   N     0.57915   0.07229   0.58810   0.00000  Uiso   1.00
N184   N     0.14795   0.24349   0.58172   0.00000  Uiso   1.00
C185   C     0.97855   0.41739   0.93217   0.00000  Uiso   1.00
C186   C     0.02896   0.43567   0.89521   0.00000  Uiso   1.00
C187   C     0.10880   0.46568   0.89417   0.00000  Uiso   1.00
C188   C     0.14420   0.47834   0.85743   0.00000  Uiso   1.00
C189   C     0.22896   0.50929   0.80528   0.00000  Uiso   1.00
C190   C     0.84725   0.42105   0.92848   0.00000  Uiso   1.00
C191   C     0.77432   0.43875   0.95542   0.00000  Uiso   1.00
C192   C     0.65675   0.43908   0.94668   0.00000  Uiso   1.00
C193   C     0.45941   0.44730   0.94620   0.00000  Uiso   1.00
C194   C     0.00522   0.37429   0.92935   0.00000  Uiso   1.00
C195   C     0.06508   0.35267   0.95704   0.00000  Uiso   1.00
C196   C     0.08049   0.31363   0.94904   0.00000  Uiso   1.00
C197   C     0.12841   0.24925   0.94992   0.00000  Uiso   1.00
C198   C     0.89945   0.38650   0.86875   0.00000  Uiso   1.00
C199   C     0.98599   0.41890   0.86076   0.00000  Uiso   1.00
C200   C     0.02128   0.43151   0.82401   0.00000  Uiso   1.00
C201   C     0.10116   0.46153   0.82292   0.00000  Uiso   1.00
C202   C     0.80429   0.40427   0.89404   0.00000  Uiso   1.00
C203   C     0.68680   0.40458   0.88526   0.00000  Uiso   1.00
C204   C     0.61371   0.42228   0.91218   0.00000  Uiso   1.00
C205   C     0.96226   0.35751   0.89491   0.00000  Uiso   1.00
C206   C     0.97757   0.31850   0.88687   0.00000  Uiso   1.00
C207   C     0.03744   0.29683   0.91453   0.00000  Uiso   1.00
H208   H     0.01199   0.43045   0.95898   0.00000  Uiso   1.00
H209   H     0.14202   0.47866   0.92084   0.00000  Uiso   1.00
H210   H     0.80759   0.45173   0.98207   0.00000  Uiso   1.00
H211   H     0.09831   0.36566   0.98369   0.00000  Uiso   1.00
H212   H     0.26720   0.52472   0.86335   0.00000  Uiso   1.00
H213   H     0.56203   0.46792   0.99248   0.00000  Uiso   1.00
H214   H     0.17507   0.28643   0.99588   0.00000  Uiso   1.00
H215   H     0.86600   0.37344   0.84193   0.00000  Uiso   1.00
H216   H     0.98802   0.41852   0.79736   0.00000  Uiso   1.00
H217   H     0.65359   0.39159   0.85860   0.00000  Uiso   1.00
H218   H     0.94431   0.30552   0.86021   0.00000  Uiso   1.00
H219   H     0.14220   0.47591   0.76314   0.00000  Uiso   1.00
H220   H     0.43704   0.41910   0.89227   0.00000  Uiso   1.00
H221   H     0.05008   0.23762   0.89567   0.00000  Uiso   1.00
O222   O     0.28757   0.53100   0.78604   0.00000  Uiso   1.00
O223   O     0.36243   0.45648   0.95545   0.00000  Uiso   1.00
O224   O     0.16672   0.21838   0.95991   0.00000  Uiso   1.00
N225   N     0.22105   0.50704   0.84588   0.00000  Uiso   1.00
N226   N     0.56177   0.45394   0.96661   0.00000  Uiso   1.00
N227   N     0.13488   0.28426   0.96979   0.00000  Uiso   1.00
N228   N     0.15379   0.48077   0.79196   0.00000  Uiso   1.00
N229   N     0.49451   0.42767   0.91268   0.00000  Uiso   1.00
N230   N     0.06762   0.25800   0.91587   0.00000  Uiso   1.00
C231   C     0.93736   0.41634   0.06769   0.00000  Uiso   1.00
C232   C     0.88598   0.43400   0.10481   0.00000  Uiso   1.00
C233   C     0.80538   0.46377   0.10612   0.00000  Uiso   1.00
C234   C     0.76915   0.47585   0.14297   0.00000  Uiso   1.00
C235   C     0.68289   0.50589   0.19538   0.00000  Uiso   1.00
C236   C     0.06851   0.42031   0.07164   0.00000  Uiso   1.00
C237   C     0.14137   0.43856   0.04506   0.00000  Uiso   1.00
C238   C     0.25880   0.43911   0.05399   0.00000  Uiso   1.00
C239   C     0.45592   0.44787   0.05491   0.00000  Uiso   1.00
C240   C     0.91173   0.37313   0.06989   0.00000  Uiso   1.00
C241   C     0.85280   0.35171   0.04182   0.00000  Uiso   1.00
C242   C     0.83826   0.31254   0.04927   0.00000  Uiso   1.00
C243   C     0.79196   0.24804   0.04745   0.00000  Uiso   1.00
C244   C     0.01634   0.38485   0.13082   0.00000  Uiso   1.00
C245   C     0.92888   0.41690   0.13910   0.00000  Uiso   1.00
C246   C     0.89276   0.42893   0.17596   0.00000  Uiso   1.00
C247   C     0.81212   0.45871   0.17732   0.00000  Uiso   1.00
C248   C     0.11141   0.40321   0.10593   0.00000  Uiso   1.00
C249   C     0.22876   0.40372   0.11490   0.00000  Uiso   1.00
C250   C     0.30178   0.42198   0.08834   0.00000  Uiso   1.00
C251   C     0.95463   0.35603   0.10417   0.00000  Uiso   1.00
C252   C     0.94018   0.31687   0.11167   0.00000  Uiso   1.00
C253   C     0.88124   0.29540   0.08362   0.00000  Uiso   1.00
H254   H     0.90397   0.42966   0.04100   0.00000  Uiso   1.00
H255   H     0.77221   0.47700   0.07957   0.00000  Uiso   1.00
H256   H     0.10815   0.45180   0.01853   0.00000  Uiso   1.00
H257   H     0.81962   0.36496   0.01529   0.00000  Uiso   1.00
H258   H     0.64508   0.52196   0.13746   0.00000  Uiso   1.00
H259   H     0.35343   0.46880   0.00874   0.00000  Uiso   1.00
H260   H     0.74501   0.28569   0.00191   0.00000  Uiso   1.00
H261   H     0.04975   0.37153   0.15751   0.00000  Uiso   1.00
H262   H     0.92598   0.41569   0.20249   0.00000  Uiso   1.00
H263   H     0.26193   0.39048   0.14144   0.00000  Uiso   1.00
H264   H     0.97339   0.30365   0.13820   0.00000  Uiso   1.00
H265   H     0.76989   0.47220   0.23722   0.00000  Uiso   1.00
H266   H     0.47825   0.41903   0.10850   0.00000  Uiso   1.00
H267   H     0.86983   0.23592   0.10167   0.00000  Uiso   1.00
O268   O     0.62347   0.52718   0.21482   0.00000  Uiso   1.00
O269   O     0.55280   0.45743   0.04594   0.00000  Uiso   1.00
O270   O     0.75456   0.21719   0.03698   0.00000  Uiso   1.00
N271   N     0.69142   0.50418   0.15477   0.00000  Uiso   1.00
N272   N     0.35369   0.45449   0.03442   0.00000  Uiso   1.00
N273   N     0.78489   0.28329   0.02804   0.00000  Uiso   1.00
N274   N     0.75858   0.47741   0.20845   0.00000  Uiso   1.00
N275   N     0.42085   0.42771   0.08810   0.00000  Uiso   1.00
N276   N     0.85205   0.25651   0.08172   0.00000  Uiso   1.00
C277   C     0.97855   0.91739   0.43217   0.00000  Uiso   1.00
C278   C     0.02896   0.93567   0.39521   0.00000  Uiso   1.00
C279   C     0.10880   0.96568   0.39417   0.00000  Uiso   1.00
C280   C     0.14420   0.97834   0.35743   0.00000  Uiso   1.00
C281   C     0.22896   0.00929   0.30528   0.00000  Uiso   1.00
C282   C     0.84725   0.92105   0.42848   0.00000  Uiso   1.00
C283   C     0.77432   0.93875   0.45542   0.00000  Uiso   1.00
C284   C     0.65675   0.93908   0.44668   0.00000  Uiso   1.00
C285   C     0.45941   0.94730   0.44620   0.00000  Uiso   1.00
C286   C     0.00522   0.87429   0.42935   0.00000  Uiso   1.00
C287   C     0.06508   0.85267   0.45704   0.00000  Uiso   1.00
C288   C     0.08049   0.81363   0.44904   0.00000  Uiso   1.00
C289   C     0.12841   0.74925   0.44992   0.00000  Uiso   1.00
C290   C     0.89945   0.88650   0.36875   0.00000  Uiso   1.00
C291   C     0.98599   0.91890   0.36076   0.00000  Uiso   1.00
C292   C     0.02128   0.93151   0.32401   0.00000  Uiso   1.00
C293   C     0.10116   0.96153   0.32292   0.00000  Uiso   1.00
C294   C     0.80429   0.90427   0.39404   0.00000  Uiso   1.00
C295   C     0.68680   0.90458   0.38526   0.00000  Uiso   1.00
C296   C     0.61371   0.92228   0.41218   0.00000  Uiso   1.00
C297   C     0.96226   0.85751   0.39491   0.00000  Uiso   1.00
C298   C     0.97757   0.81850   0.38687   0.00000  Uiso   1.00
C299   C     0.03744   0.79683   0.41453   0.00000  Uiso   1.00
H300   H     0.01199   0.93045   0.45898   0.00000  Uiso   1.00
H301   H     0.14202   0.97866   0.42084   0.00000  Uiso   1.00
H302   H     0.80759   0.95173   0.48207   0.00000  Uiso   1.00
H303   H     0.09831   0.86566   0.48369   0.00000  Uiso   1.00
H304   H     0.26720   0.02472   0.36335   0.00000  Uiso   1.00
H305   H     0.56203   0.96792   0.49248   0.00000  Uiso   1.00
H306   H     0.17507   0.78643   0.49588   0.00000  Uiso   1.00
H307   H     0.86600   0.87344   0.34193   0.00000  Uiso   1.00
H308   H     0.98802   0.91852   0.29736   0.00000  Uiso   1.00
H309   H     0.65359   0.89159   0.35860   0.00000  Uiso   1.00
H310   H     0.94431   0.80552   0.36021   0.00000  Uiso   1.00
H311   H     0.14220   0.97591   0.26314   0.00000  Uiso   1.00
H312   H     0.43704   0.91910   0.39227   0.00000  Uiso   1.00
H313   H     0.05008   0.73762   0.39567   0.00000  Uiso   1.00
O314   O     0.28757   0.03100   0.28604   0.00000  Uiso   1.00
O315   O     0.36243   0.95648   0.45545   0.00000  Uiso   1.00
O316   O     0.16672   0.71838   0.45991   0.00000  Uiso   1.00
N317   N     0.22105   0.00704   0.34588   0.00000  Uiso   1.00
N318   N     0.56177   0.95394   0.46661   0.00000  Uiso   1.00
N319   N     0.13488   0.78426   0.46979   0.00000  Uiso   1.00
N320   N     0.15379   0.98077   0.29196   0.00000  Uiso   1.00
N321   N     0.49451   0.92767   0.41268   0.00000  Uiso   1.00
N322   N     0.06762   0.75800   0.41587   0.00000  Uiso   1.00
C323   C     0.93736   0.91634   0.56769   0.00000  Uiso   1.00
C324   C     0.88598   0.93400   0.60481   0.00000  Uiso   1.00
C325   C     0.80538   0.96377   0.60612   0.00000  Uiso   1.00
C326   C     0.76915   0.97585   0.64297   0.00000  Uiso   1.00
C327   C     0.68289   0.00589   0.69538   0.00000  Uiso   1.00
C328   C     0.06851   0.92031   0.57164   0.00000  Uiso   1.00
C329   C     0.14137   0.93856   0.54506   0.00000  Uiso   1.00
C330   C     0.25880   0.93911   0.55399   0.00000  Uiso   1.00
C331   C     0.45592   0.94787   0.55491   0.00000  Uiso   1.00
C332   C     0.91173   0.87313   0.56989   0.00000  Uiso   1.00
C333   C     0.85280   0.85171   0.54182   0.00000  Uiso   1.00
C334   C     0.83826   0.81254   0.54927   0.00000  Uiso   1.00
C335   C     0.79196   0.74804   0.54745   0.00000  Uiso   1.00
C336   C     0.01634   0.88485   0.63082   0.00000  Uiso   1.00
C337   C     0.92888   0.91690   0.63910   0.00000  Uiso   1.00
C338   C     0.89276   0.92893   0.67596   0.00000  Uiso   1.00
C339   C     0.81212   0.95871   0.67732   0.00000  Uiso   1.00
C340   C     0.11141   0.90321   0.60593   0.00000  Uiso   1.00
C341   C     0.22876   0.90372   0.61490   0.00000  Uiso   1.00
C342   C     0.30178   0.92198   0.58834   0.00000  Uiso   1.00
C343   C     0.95463   0.85603   0.60417   0.00000  Uiso   1.00
C344   C     0.94018   0.81687   0.61167   0.00000  Uiso   1.00
C345   C     0.88124   0.79540   0.58362   0.00000  Uiso   1.00
H346   H     0.90397   0.92966   0.54100   0.00000  Uiso   1.00
H347   H     0.77221   0.97700   0.57957   0.00000  Uiso   1.00
H348   H     0.10815   0.95180   0.51853   0.00000  Uiso   1.00
H349   H     0.81962   0.86496   0.51529   0.00000  Uiso   1.00
H350   H     0.64508   0.02196   0.63746   0.00000  Uiso   1.00
H351   H     0.35343   0.96880   0.50874   0.00000  Uiso   1.00
H352   H     0.74501   0.78569   0.50191   0.00000  Uiso   1.00
H353   H     0.04975   0.87153   0.65751   0.00000  Uiso   1.00
H354   H     0.92598   0.91569   0.70249   0.00000  Uiso   1.00
H355   H     0.26193   0.89048   0.64144   0.00000  Uiso   1.00
H356   H     0.97339   0.80365   0.63820   0.00000  Uiso   1.00
H357   H     0.76989   0.97220   0.73722   0.00000  Uiso   1.00
H358   H     0.47825   0.91903   0.60850   0.00000  Uiso   1.00
H359   H     0.86983   0.73592   0.60167   0.00000  Uiso   1.00
O360   O     0.62347   0.02718   0.71482   0.00000  Uiso   1.00
O361   O     0.55280   0.95743   0.54594   0.00000  Uiso   1.00
O362   O     0.75456   0.71719   0.53698   0.00000  Uiso   1.00
N363   N     0.69142   0.00418   0.65477   0.00000  Uiso   1.00
N364   N     0.35369   0.95449   0.53442   0.00000  Uiso   1.00
N365   N     0.78489   0.78329   0.52804   0.00000  Uiso   1.00
N366   N     0.75858   0.97741   0.70845   0.00000  Uiso   1.00
N367   N     0.42085   0.92771   0.58810   0.00000  Uiso   1.00
N368   N     0.85205   0.75651   0.58172   0.00000  Uiso   1.00
C369   C     0.52145   0.91739   0.93217   0.00000  Uiso   1.00
C370   C     0.47104   0.93567   0.89521   0.00000  Uiso   1.00
C371   C     0.39120   0.96568   0.89417   0.00000  Uiso   1.00
C372   C     0.35580   0.97834   0.85743   0.00000  Uiso   1.00
C373   C     0.27104   0.00929   0.80528   0.00000  Uiso   1.00
C374   C     0.65275   0.92105   0.92848   0.00000  Uiso   1.00
C375   C     0.72568   0.93875   0.95542   0.00000  Uiso   1.00
C376   C     0.84325   0.93908   0.94668   0.00000  Uiso   1.00
C377   C     0.04059   0.94730   0.94620   0.00000  Uiso   1.00
C378   C     0.49478   0.87429   0.92935   0.00000  Uiso   1.00
C379   C     0.43492   0.85267   0.95704   0.00000  Uiso   1.00
C380   C     0.41951   0.81363   0.94904   0.00000  Uiso   1.00
C381   C     0.37159   0.74925   0.94992   0.00000  Uiso   1.00
C382   C     0.60055   0.88650   0.86875   0.00000  Uiso   1.00
C383   C     0.51401   0.91890   0.86076   0.00000  Uiso   1.00
C384   C     0.47872   0.93151   0.82401   0.00000  Uiso   1.00
C385   C     0.39884   0.96153   0.82292   0.00000  Uiso   1.00
C386   C     0.69571   0.90427   0.89404   0.00000  Uiso   1.00
C387   C     0.81320   0.90458   0.88526   0.00000  Uiso   1.00
C388   C     0.88629   0.92228   0.91218   0.00000  Uiso   1.00
C389   C     0.53774   0.85751   0.89491   0.00000  Uiso   1.00
C390   C     0.52243   0.81850   0.88687   0.00000  Uiso   1.00
C391   C     0.46256   0.79683   0.91453   0.00000  Uiso   1.00
H392   H     0.48801   0.93045   0.95898   0.00000  Uiso   1.00
H393   H     0.35798   0.97866   0.92084   0.00000  Uiso   1.00
H394   H     0.69241   0.95173   0.98207   0.00000  Uiso   1.00
H395   H     0.40169   0.86566   0.98369   0.00000  Uiso   1.00
H396   H     0.23280   0.02472   0.86335   0.00000  Uiso   1.00
H397   H     0.93797   0.96792   0.99248   0.00000  Uiso   1.00
H398   H     0.32493   0.78643   0.99588   0.00000  Uiso   1.00
H399   H     0.63400   0.87344   0.84193   0.00000  Uiso   1.00
H400   H     0.51198   0.91852   0.79736   0.00000  Uiso   1.00
H401   H     0.84641   0.89159   0.85860   0.00000  Uiso   1.00
H402   H     0.55569   0.80552   0.86021   0.00000  Uiso   1.00
H403   H     0.35780   0.97591   0.76314   0.00000  Uiso   1.00
H404   H     0.06296   0.91910   0.89227   0.00000  Uiso   1.00
H405   H     0.44992   0.73762   0.89567   0.00000  Uiso   1.00
O406   O     0.21243   0.03100   0.78604   0.00000  Uiso   1.00
O407   O     0.13757   0.95648   0.95545   0.00000  Uiso   1.00
O408   O     0.33328   0.71838   0.95991   0.00000  Uiso   1.00
N409   N     0.27895   0.00704   0.84588   0.00000  Uiso   1.00
N410   N     0.93823   0.95394   0.96661   0.00000  Uiso   1.00
N411   N     0.36512   0.78426   0.96979   0.00000  Uiso   1.00
N412   N     0.34621   0.98077   0.79196   0.00000  Uiso   1.00
N413   N     0.00549   0.92767   0.91268   0.00000  Uiso   1.00
N414   N     0.43238   0.75800   0.91587   0.00000  Uiso   1.00
C415   C     0.56264   0.91634   0.06769   0.00000  Uiso   1.00
C416   C     0.61402   0.93400   0.10481   0.00000  Uiso   1.00
C417   C     0.69462   0.96377   0.10612   0.00000  Uiso   1.00
C418   C     0.73085   0.97585   0.14297   0.00000  Uiso   1.00
C419   C     0.81711   0.00589   0.19538   0.00000  Uiso   1.00
C420   C     0.43149   0.92031   0.07164   0.00000  Uiso   1.00
C421   C     0.35863   0.93856   0.04506   0.00000  Uiso   1.00
C422   C     0.24120   0.93911   0.05399   0.00000  Uiso   1.00
C423   C     0.04408   0.94787   0.05491   0.00000  Uiso   1.00
C424   C     0.58827   0.87313   0.06989   0.00000  Uiso   1.00
C425   C     0.64720   0.85171   0.04182   0.00000  Uiso   1.00
C426   C     0.66174   0.81254   0.04927   0.00000  Uiso   1.00
C427   C     0.70804   0.74804   0.04745   0.00000  Uiso   1.00
C428   C     0.48366   0.88485   0.13082   0.00000  Uiso   1.00
C429   C     0.57112   0.91690   0.13910   0.00000  Uiso   1.00
C430   C     0.60724   0.92893   0.17596   0.00000  Uiso   1.00
C431   C     0.68788   0.95871   0.17732   0.00000  Uiso   1.00
C432   C     0.38859   0.90321   0.10593   0.00000  Uiso   1.00
C433   C     0.27124   0.90372   0.11490   0.00000  Uiso   1.00
C434   C     0.19822   0.92198   0.08834   0.00000  Uiso   1.00
C435   C     0.54537   0.85603   0.10417   0.00000  Uiso   1.00
C436   C     0.55982   0.81687   0.11167   0.00000  Uiso   1.00
C437   C     0.61876   0.79540   0.08362   0.00000  Uiso   1.00
H438   H     0.59603   0.92966   0.04100   0.00000  Uiso   1.00
H439   H     0.72779   0.97700   0.07957   0.00000  Uiso   1.00
H440   H     0.39185   0.95180   0.01853   0.00000  Uiso   1.00
H441   H     0.68038   0.86496   0.01529   0.00000  Uiso   1.00
H442   H     0.85492   0.02196   0.13746   0.00000  Uiso   1.00
H443   H     0.14657   0.96880   0.00874   0.00000  Uiso   1.00
H444   H     0.75499   0.78569   0.00191   0.00000  Uiso   1.00
H445   H     0.45025   0.87153   0.15751   0.00000  Uiso   1.00
H446   H     0.57402   0.91569   0.20249   0.00000  Uiso   1.00
H447   H     0.23807   0.89048   0.14144   0.00000  Uiso   1.00
H448   H     0.52661   0.80365   0.13820   0.00000  Uiso   1.00
H449   H     0.73011   0.97220   0.23722   0.00000  Uiso   1.00
H450   H     0.02175   0.91903   0.10850   0.00000  Uiso   1.00
H451   H     0.63017   0.73592   0.10167   0.00000  Uiso   1.00
O452   O     0.87653   0.02718   0.21482   0.00000  Uiso   1.00
O453   O     0.94720   0.95743   0.04594   0.00000  Uiso   1.00
O454   O     0.74544   0.71719   0.03698   0.00000  Uiso   1.00
N455   N     0.80858   0.00418   0.15477   0.00000  Uiso   1.00
N456   N     0.14631   0.95449   0.03442   0.00000  Uiso   1.00
N457   N     0.71511   0.78329   0.02804   0.00000  Uiso   1.00
N458   N     0.74142   0.97741   0.20845   0.00000  Uiso   1.00
N459   N     0.07915   0.92771   0.08810   0.00000  Uiso   1.00
N460   N     0.64795   0.75651   0.08172   0.00000  Uiso   1.00
C461   C     0.52145   0.41739   0.43217   0.00000  Uiso   1.00
C462   C     0.47104   0.43567   0.39521   0.00000  Uiso   1.00
C463   C     0.39120   0.46568   0.39417   0.00000  Uiso   1.00
C464   C     0.35580   0.47834   0.35743   0.00000  Uiso   1.00
C465   C     0.27104   0.50929   0.30528   0.00000  Uiso   1.00
C466   C     0.65275   0.42105   0.42848   0.00000  Uiso   1.00
C467   C     0.72568   0.43875   0.45542   0.00000  Uiso   1.00
C468   C     0.84325   0.43908   0.44668   0.00000  Uiso   1.00
C469   C     0.04059   0.44730   0.44620   0.00000  Uiso   1.00
C470   C     0.49478   0.37429   0.42935   0.00000  Uiso   1.00
C471   C     0.43492   0.35267   0.45704   0.00000  Uiso   1.00
C472   C     0.41951   0.31363   0.44904   0.00000  Uiso   1.00
C473   C     0.37159   0.24925   0.44992   0.00000  Uiso   1.00
C474   C     0.60055   0.38650   0.36875   0.00000  Uiso   1.00
C475   C     0.51401   0.41890   0.36076   0.00000  Uiso   1.00
C476   C     0.47872   0.43151   0.32401   0.00000  Uiso   1.00
C477   C     0.39884   0.46153   0.32292   0.00000  Uiso   1.00
C478   C     0.69571   0.40427   0.39404   0.00000  Uiso   1.00
C479   C     0.81320   0.40458   0.38526   0.00000  Uiso   1.00
C480   C     0.88629   0.42228   0.41218   0.00000  Uiso   1.00
C481   C     0.53774   0.35751   0.39491   0.00000  Uiso   1.00
C482   C     0.52243   0.31850   0.38687   0.00000  Uiso   1.00
C483   C     0.46256   0.29683   0.41453   0.00000  Uiso   1.00
H484   H     0.48801   0.43045   0.45898   0.00000  Uiso   1.00
H485   H     0.35798   0.47866   0.42084   0.00000  Uiso   1.00
H486   H     0.69241   0.45173   0.48207   0.00000  Uiso   1.00
H487   H     0.40169   0.36566   0.48369   0.00000  Uiso   1.00
H488   H     0.23280   0.52472   0.36335   0.00000  Uiso   1.00
H489   H     0.93797   0.46792   0.49248   0.00000  Uiso   1.00
H490   H     0.32493   0.28643   0.49588   0.00000  Uiso   1.00
H491   H     0.63400   0.37344   0.34193   0.00000  Uiso   1.00
H492   H     0.51198   0.41852   0.29736   0.00000  Uiso   1.00
H493   H     0.84641   0.39159   0.35860   0.00000  Uiso   1.00
H494   H     0.55569   0.30552   0.36021   0.00000  Uiso   1.00
H495   H     0.35780   0.47591   0.26314   0.00000  Uiso   1.00
H496   H     0.06296   0.41910   0.39227   0.00000  Uiso   1.00
H497   H     0.44992   0.23762   0.39567   0.00000  Uiso   1.00
O498   O     0.21243   0.53100   0.28604   0.00000  Uiso   1.00
O499   O     0.13757   0.45648   0.45545   0.00000  Uiso   1.00
O500   O     0.33328   0.21838   0.45991   0.00000  Uiso   1.00
N501   N     0.27895   0.50704   0.34588   0.00000  Uiso   1.00
N502   N     0.93823   0.45394   0.46661   0.00000  Uiso   1.00
N503   N     0.36512   0.28426   0.46979   0.00000  Uiso   1.00
N504   N     0.34621   0.48077   0.29196   0.00000  Uiso   1.00
N505   N     0.00549   0.42767   0.41268   0.00000  Uiso   1.00
N506   N     0.43238   0.25800   0.41587   0.00000  Uiso   1.00
C507   C     0.56264   0.41634   0.56769   0.00000  Uiso   1.00
C508   C     0.61402   0.43400   0.60481   0.00000  Uiso   1.00
C509   C     0.69462   0.46377   0.60612   0.00000  Uiso   1.00
C510   C     0.73085   0.47585   0.64297   0.00000  Uiso   1.00
C511   C     0.81711   0.50589   0.69538   0.00000  Uiso   1.00
C512   C     0.43149   0.42031   0.57164   0.00000  Uiso   1.00
C513   C     0.35863   0.43856   0.54506   0.00000  Uiso   1.00
C514   C     0.24120   0.43911   0.55399   0.00000  Uiso   1.00
C515   C     0.04408   0.44787   0.55491   0.00000  Uiso   1.00
C516   C     0.58827   0.37313   0.56989   0.00000  Uiso   1.00
C517   C     0.64720   0.35171   0.54182   0.00000  Uiso   1.00
C518   C     0.66174   0.31254   0.54927   0.00000  Uiso   1.00
C519   C     0.70804   0.24804   0.54745   0.00000  Uiso   1.00
C520   C     0.48366   0.38485   0.63082   0.00000  Uiso   1.00
C521   C     0.57112   0.41690   0.63910   0.00000  Uiso   1.00
C522   C     0.60724   0.42893   0.67596   0.00000  Uiso   1.00
C523   C     0.68788   0.45871   0.67732   0.00000  Uiso   1.00
C524   C     0.38859   0.40321   0.60593   0.00000  Uiso   1.00
C525   C     0.27124   0.40372   0.61490   0.00000  Uiso   1.00
C526   C     0.19822   0.42198   0.58834   0.00000  Uiso   1.00
C527   C     0.54537   0.35603   0.60417   0.00000  Uiso   1.00
C528   C     0.55982   0.31687   0.61167   0.00000  Uiso   1.00
C529   C     0.61876   0.29540   0.58362   0.00000  Uiso   1.00
H530   H     0.59603   0.42966   0.54100   0.00000  Uiso   1.00
H531   H     0.72779   0.47700   0.57957   0.00000  Uiso   1.00
H532   H     0.39185   0.45180   0.51853   0.00000  Uiso   1.00
H533   H     0.68038   0.36496   0.51529   0.00000  Uiso   1.00
H534   H     0.85492   0.52196   0.63746   0.00000  Uiso   1.00
H535   H     0.14657   0.46880   0.50874   0.00000  Uiso   1.00
H536   H     0.75499   0.28569   0.50191   0.00000  Uiso   1.00
H537   H     0.45025   0.37153   0.65751   0.00000  Uiso   1.00
H538   H     0.57402   0.41569   0.70249   0.00000  Uiso   1.00
H539   H     0.23807   0.39048   0.64144   0.00000  Uiso   1.00
H540   H     0.52661   0.30365   0.63820   0.00000  Uiso   1.00
H541   H     0.73011   0.47220   0.73722   0.00000  Uiso   1.00
H542   H     0.02175   0.41903   0.60850   0.00000  Uiso   1.00
H543   H     0.63017   0.23592   0.60167   0.00000  Uiso   1.00
O544   O     0.87653   0.52718   0.71482   0.00000  Uiso   1.00
O545   O     0.94720   0.45743   0.54594   0.00000  Uiso   1.00
O546   O     0.74544   0.21719   0.53698   0.00000  Uiso   1.00
N547   N     0.80858   0.50418   0.65477   0.00000  Uiso   1.00
N548   N     0.14631   0.45449   0.53442   0.00000  Uiso   1.00
N549   N     0.71511   0.28329   0.52804   0.00000  Uiso   1.00
N550   N     0.74142   0.47741   0.70845   0.00000  Uiso   1.00
N551   N     0.07915   0.42771   0.58810   0.00000  Uiso   1.00
N552   N     0.64795   0.25651   0.58172   0.00000  Uiso   1.00
C553   C     0.47855   0.08261   0.93217   0.00000  Uiso   1.00
C554   C     0.52896   0.06433   0.89521   0.00000  Uiso   1.00
C555   C     0.60880   0.03432   0.89417   0.00000  Uiso   1.00
C556   C     0.64420   0.02166   0.85743   0.00000  Uiso   1.00
C557   C     0.72896   0.99071   0.80528   0.00000  Uiso   1.00
C558   C     0.34725   0.07895   0.92848   0.00000  Uiso   1.00
C559   C     0.27432   0.06125   0.95542   0.00000  Uiso   1.00
C560   C     0.15675   0.06092   0.94668   0.00000  Uiso   1.00
C561   C     0.95941   0.05270   0.94620   0.00000  Uiso   1.00
C562   C     0.50522   0.12571   0.92935   0.00000  Uiso   1.00
C563   C     0.56508   0.14733   0.95704   0.00000  Uiso   1.00
C564   C     0.58049   0.18637   0.94904   0.00000  Uiso   1.00
C565   C     0.62841   0.25075   0.94992   0.00000  Uiso   1.00
C566   C     0.39945   0.11350   0.86875   0.00000  Uiso   1.00
C567   C     0.48599   0.08110   0.86076   0.00000  Uiso   1.00
C568   C     0.52128   0.06849   0.82401   0.00000  Uiso   1.00
C569   C     0.60116   0.03847   0.82292   0.00000  Uiso   1.00
C570   C     0.30429   0.09573   0.89404   0.00000  Uiso   1.00
C571   C     0.18680   0.09542   0.88526   0.00000  Uiso   1.00
C572   C     0.11371   0.07772   0.91218   0.00000  Uiso   1.00
C573   C     0.46226   0.14249   0.89491   0.00000  Uiso   1.00
C574   C     0.47757   0.18150   0.88687   0.00000  Uiso   1.00
C575   C     0.53744   0.20317   0.91453   0.00000  Uiso   1.00
H576   H     0.51199   0.06955   0.95898   0.00000  Uiso   1.00
H577   H     0.64202   0.02134   0.92084   0.00000  Uiso   1.00
H578   H     0.30759   0.04827   0.98207   0.00000  Uiso   1.00
H579   H     0.59831   0.13434   0.98369   0.00000  Uiso   1.00
H580   H     0.76720   0.97528   0.86335   0.00000  Uiso   1.00
H581   H     0.06203   0.03208   0.99248   0.00000  Uiso   1.00
H582   H     0.67507   0.21357   0.99588   0.00000  Uiso   1.00
H583   H     0.36600   0.12656   0.84193   0.00000  Uiso   1.00
H584   H     0.48802   0.08148   0.79736   0.00000  Uiso   1.00
H585   H     0.15359   0.10841   0.85860   0.00000  Uiso   1.00
H586   H     0.44431   0.19448   0.86021   0.00000  Uiso   1.00
H587   H     0.64220   0.02409   0.76314   0.00000  Uiso   1.00
H588   H     0.93704   0.08090   0.89227   0.00000  Uiso   1.00
H589   H     0.55008   0.26238   0.89567   0.00000  Uiso   1.00
O590   O     0.78757   0.96900   0.78604   0.00000  Uiso   1.00
O591   O     0.86243   0.04352   0.95545   0.00000  Uiso   1.00
O592   O     0.66672   0.28162   0.95991   0.00000  Uiso   1.00
N593   N     0.72105   0.99296   0.84588   0.00000  Uiso   1.00
N594   N     0.06177   0.04606   0.96661   0.00000  Uiso   1.00
N595   N     0.63488   0.21574   0.96979   0.00000  Uiso   1.00
N596   N     0.65379   0.01923   0.79196   0.00000  Uiso   1.00
N597   N     0.99451   0.07233   0.91268   0.00000  Uiso   1.00
N598   N     0.56762   0.24200   0.91587   0.00000  Uiso   1.00
C599   C     0.43736   0.08366   0.06769   0.00000  Uiso   1.00
C600   C     0.38598   0.06600   0.10481   0.00000  Uiso   1.00
C601   C     0.30538   0.03623   0.10612   0.00000  Uiso   1.00
C602   C     0.26915   0.02415   0.14297   0.00000  Uiso   1.00
C603   C     0.18289   0.99411   0.19538   0.00000  Uiso   1.00
C604   C     0.56851   0.07969   0.07164   0.00000  Uiso   1.00
C605   C     0.64137   0.06144   0.04506   0.00000  Uiso   1.00
C606   C     0.75880   0.06089   0.05399   0.00000  Uiso   1.00
C607   C     0.95592   0.05213   0.05491   0.00000  Uiso   1.00
C608   C     0.41173   0.12687   0.06989   0.00000  Uiso   1.00
C609   C     0.35280   0.14829   0.04182   0.00000  Uiso   1.00
C610   C     0.33826   0.18746   0.04927   0.00000  Uiso   1.00
C611   C     0.29196   0.25196   0.04745   0.00000  Uiso   1.00
C612   C     0.51634   0.11515   0.13082   0.00000  Uiso   1.00
C613   C     0.42888   0.08310   0.13910   0.00000  Uiso   1.00
C614   C     0.39276   0.07107   0.17596   0.00000  Uiso   1.00
C615   C     0.31212   0.04129   0.17732   0.00000  Uiso   1.00
C616   C     0.61141   0.09679   0.10593   0.00000  Uiso   1.00
C617   C     0.72876   0.09628   0.11490   0.00000  Uiso   1.00
C618   C     0.80178   0.07802   0.08834   0.00000  Uiso   1.00
C619   C     0.45463   0.14397   0.10417   0.00000  Uiso   1.00
C620   C     0.44018   0.18313   0.11167   0.00000  Uiso   1.00
C621   C     0.38124   0.20460   0.08362   0.00000  Uiso   1.00
H622   H     0.40397   0.07034   0.04100   0.00000  Uiso   1.00
H623   H     0.27221   0.02300   0.07957   0.00000  Uiso   1.00
H624   H     0.60815   0.04820   0.01853   0.00000  Uiso   1.00
H625   H     0.31962   0.13504   0.01529   0.00000  Uiso   1.00
H626   H     0.14508   0.97804   0.13746   0.00000  Uiso   1.00
H627   H     0.85343   0.03120   0.00874   0.00000  Uiso   1.00
H628   H     0.24501   0.21431   0.00191   0.00000  Uiso   1.00
H629   H     0.54975   0.12847   0.15751   0.00000  Uiso   1.00
H630   H     0.42598   0.08431   0.20249   0.00000  Uiso   1.00
H631   H     0.76193   0.10952   0.14144   0.00000  Uiso   1.00
H632   H     0.47339   0.19635   0.13820   0.00000  Uiso   1.00
H633   H     0.26989   0.02780   0.23722   0.00000  Uiso   1.00
H634   H     0.97825   0.08097   0.10850   0.00000  Uiso   1.00
H635   H     0.36983   0.26408   0.10167   0.00000  Uiso   1.00
O636   O     0.12347   0.97282   0.21482   0.00000  Uiso   1.00
O637   O     0.05280   0.04257   0.04594   0.00000  Uiso   1.00
O638   O     0.25456   0.28281   0.03698   0.00000  Uiso   1.00
N639   N     0.19142   0.99582   0.15477   0.00000  Uiso   1.00
N640   N     0.85369   0.04551   0.03442   0.00000  Uiso   1.00
N641   N     0.28489   0.21671   0.02804   0.00000  Uiso   1.00
N642   N     0.25858   0.02259   0.20845   0.00000  Uiso   1.00
N643   N     0.92085   0.07229   0.08810   0.00000  Uiso   1.00
N644   N     0.35205   0.24349   0.08172   0.00000  Uiso   1.00
C645   C     0.47855   0.58261   0.43217   0.00000  Uiso   1.00
C646   C     0.52896   0.56433   0.39521   0.00000  Uiso   1.00
C647   C     0.60880   0.53432   0.39417   0.00000  Uiso   1.00
C648   C     0.64420   0.52166   0.35743   0.00000  Uiso   1.00
C649   C     0.72896   0.49071   0.30528   0.00000  Uiso   1.00
C650   C     0.34725   0.57895   0.42848   0.00000  Uiso   1.00
C651   C     0.27432   0.56125   0.45542   0.00000  Uiso   1.00
C652   C     0.15675   0.56092   0.44668   0.00000  Uiso   1.00
C653   C     0.95941   0.55270   0.44620   0.00000  Uiso   1.00
C654   C     0.50522   0.62571   0.42935   0.00000  Uiso   1.00
C655   C     0.56508   0.64733   0.45704   0.00000  Uiso   1.00
C656   C     0.58049   0.68637   0.44904   0.00000  Uiso   1.00
C657   C     0.62841   0.75075   0.44992   0.00000  Uiso   1.00
C658   C     0.39945   0.61350   0.36875   0.00000  Uiso   1.00
C659   C     0.48599   0.58110   0.36076   0.00000  Uiso   1.00
C660   C     0.52128   0.56849   0.32401   0.00000  Uiso   1.00
C661   C     0.60116   0.53847   0.32292   0.00000  Uiso   1.00
C662   C     0.30429   0.59573   0.39404   0.00000  Uiso   1.00
C663   C     0.18680   0.59542   0.38526   0.00000  Uiso   1.00
C664   C     0.11371   0.57772   0.41218   0.00000  Uiso   1.00
C665   C     0.46226   0.64249   0.39491   0.00000  Uiso   1.00
C666   C     0.47757   0.68150   0.38687   0.00000  Uiso   1.00
C667   C     0.53744   0.70317   0.41453   0.00000  Uiso   1.00
H668   H     0.51199   0.56955   0.45898   0.00000  Uiso   1.00
H669   H     0.64202   0.52134   0.42084   0.00000  Uiso   1.00
H670   H     0.30759   0.54827   0.48207   0.00000  Uiso   1.00
H671   H     0.59831   0.63434   0.48369   0.00000  Uiso   1.00
H672   H     0.76720   0.47528   0.36335   0.00000  Uiso   1.00
H673   H     0.06203   0.53208   0.49248   0.00000  Uiso   1.00
H674   H     0.67507   0.71357   0.49588   0.00000  Uiso   1.00
H675   H     0.36600   0.62656   0.34193   0.00000  Uiso   1.00
H676   H     0.48802   0.58148   0.29736   0.00000  Uiso   1.00
H677   H     0.15359   0.60841   0.35860   0.00000  Uiso   1.00
H678   H     0.44431   0.69448   0.36021   0.00000  Uiso   1.00
H679   H     0.64220   0.52409   0.26314   0.00000  Uiso   1.00
H680   H     0.93704   0.58090   0.39227   0.00000  Uiso   1.00
H681   H     0.55008   0.76238   0.39567   0.00000  Uiso   1.00
O682   O     0.78757   0.46900   0.28604   0.00000  Uiso   1.00
O683   O     0.86243   0.54352   0.45545   0.00000  Uiso   1.00
O684   O     0.66672   0.78162   0.45991   0.00000  Uiso   1.00
N685   N     0.72105   0.49296   0.34588   0.00000  Uiso   1.00
N686   N     0.06177   0.54606   0.46661   0.00000  Uiso   1.00
N687   N     0.63488   0.71574   0.46979   0.00000  Uiso   1.00
N688   N     0.65379   0.51923   0.29196   0.00000  Uiso   1.00
N689   N     0.99451   0.57233   0.41268   0.00000  Uiso   1.00
N690   N     0.56762   0.74200   0.41587   0.00000  Uiso   1.00
C691   C     0.43736   0.58366   0.56769   0.00000  Uiso   1.00
C692   C     0.38598   0.56600   0.60481   0.00000  Uiso   1.00
C693   C     0.30538   0.53623   0.60612   0.00000  Uiso   1.00
C694   C     0.26915   0.52415   0.64297   0.00000  Uiso   1.00
C695   C     0.18289   0.49411   0.69538   0.00000  Uiso   1.00
C696   C     0.56851   0.57969   0.57164   0.00000  Uiso   1.00
C697   C     0.64137   0.56144   0.54506   0.00000  Uiso   1.00
C698   C     0.75880   0.56089   0.55399   0.00000  Uiso   1.00
C699   C     0.95592   0.55213   0.55491   0.00000  Uiso   1.00
C700   C     0.41173   0.62687   0.56989   0.00000  Uiso   1.00
C701   C     0.35280   0.64829   0.54182   0.00000  Uiso   1.00
C702   C     0.33826   0.68746   0.54927   0.00000  Uiso   1.00
C703   C     0.29196   0.75196   0.54745   0.00000  Uiso   1.00
C704   C     0.51634   0.61515   0.63082   0.00000  Uiso   1.00
C705   C     0.42888   0.58310   0.63910   0.00000  Uiso   1.00
C706   C     0.39276   0.57107   0.67596   0.00000  Uiso   1.00
C707   C     0.31212   0.54129   0.67732   0.00000  Uiso   1.00
C708   C     0.61141   0.59679   0.60593   0.00000  Uiso   1.00
C709   C     0.72876   0.59628   0.61490   0.00000  Uiso   1.00
C710   C     0.80178   0.57802   0.58834   0.00000  Uiso   1.00
C711   C     0.45463   0.64397   0.60417   0.00000  Uiso   1.00
C712   C     0.44018   0.68313   0.61167   0.00000  Uiso   1.00
C713   C     0.38124   0.70460   0.58362   0.00000  Uiso   1.00
H714   H     0.40397   0.57034   0.54100   0.00000  Uiso   1.00
H715   H     0.27221   0.52300   0.57957   0.00000  Uiso   1.00
H716   H     0.60815   0.54820   0.51853   0.00000  Uiso   1.00
H717   H     0.31962   0.63504   0.51529   0.00000  Uiso   1.00
H718   H     0.14508   0.47804   0.63746   0.00000  Uiso   1.00
H719   H     0.85343   0.53120   0.50874   0.00000  Uiso   1.00
H720   H     0.24501   0.71431   0.50191   0.00000  Uiso   1.00
H721   H     0.54975   0.62847   0.65751   0.00000  Uiso   1.00
H722   H     0.42598   0.58431   0.70249   0.00000  Uiso   1.00
H723   H     0.76193   0.60952   0.64144   0.00000  Uiso   1.00
H724   H     0.47339   0.69635   0.63820   0.00000  Uiso   1.00
H725   H     0.26989   0.52780   0.73722   0.00000  Uiso   1.00
H726   H     0.97825   0.58097   0.60850   0.00000  Uiso   1.00
H727   H     0.36983   0.76408   0.60167   0.00000  Uiso   1.00
O728   O     0.12347   0.47282   0.71482   0.00000  Uiso   1.00
O729   O     0.05280   0.54257   0.54594   0.00000  Uiso   1.00
O730   O     0.25456   0.78281   0.53698   0.00000  Uiso   1.00
N731   N     0.19142   0.49582   0.65477   0.00000  Uiso   1.00
N732   N     0.85369   0.54551   0.53442   0.00000  Uiso   1.00
N733   N     0.28489   0.71671   0.52804   0.00000  Uiso   1.00
N734   N     0.25858   0.52259   0.70845   0.00000  Uiso   1.00
N735   N     0.92085   0.57229   0.58810   0.00000  Uiso   1.00
N736   N     0.35205   0.74349   0.58172   0.00000  Uiso   1.00
