data_job_05592
_audit_creation_date              2018-12-19
_audit_creation_method            'Materials Studio'
_symmetry_space_group_name_H-M    'P1'
_symmetry_Int_Tables_number       1
_symmetry_cell_setting            triclinic
loop_
_symmetry_equiv_pos_as_xyz
  x,y,z
_cell_length_a                    21.0933
_cell_length_b                    26.4645
_cell_length_c                    18.7405
_cell_angle_alpha                 90.0000
_cell_angle_beta                  90.0000
_cell_angle_gamma                 90.0000
loop_
_atom_site_label
_atom_site_type_symbol
_atom_site_fract_x
_atom_site_fract_y
_atom_site_fract_z
_atom_site_U_iso_or_equiv
_atom_site_adp_type
_atom_site_occupancy
C1     C     0.29166   0.58116   0.41856   0.00000  Uiso   1.00
C2     C     0.33245   0.61956   0.45821   0.00000  Uiso   1.00
C3     C     0.36329   0.61137   0.52259   0.00000  Uiso   1.00
C4     C     0.39827   0.65130   0.55016   0.00000  Uiso   1.00
C5     C     0.46098   0.70388   0.61716   0.00000  Uiso   1.00
C6     C     0.22713   0.60610   0.40837   0.00000  Uiso   1.00
C7     C     0.16941   0.58659   0.43083   0.00000  Uiso   1.00
C8     C     0.11572   0.61518   0.41643   0.00000  Uiso   1.00
C9     C     0.01490   0.64684   0.40600   0.00000  Uiso   1.00
C10    C     0.32040   0.57638   0.34420   0.00000  Uiso   1.00
C11    C     0.34108   0.53188   0.31270   0.00000  Uiso   1.00
C12    C     0.36591   0.53545   0.24427   0.00000  Uiso   1.00
C13    C     0.40990   0.52096   0.13421   0.00000  Uiso   1.00
C14    C     0.29895   0.66663   0.35303   0.00000  Uiso   1.00
C15    C     0.33641   0.66599   0.42262   0.00000  Uiso   1.00
C16    C     0.37135   0.70593   0.45009   0.00000  Uiso   1.00
C17    C     0.40224   0.69780   0.51450   0.00000  Uiso   1.00
C18    C     0.23108   0.65252   0.37278   0.00000  Uiso   1.00
C19    C     0.17747   0.68115   0.35833   0.00000  Uiso   1.00
C20    C     0.11968   0.66169   0.38078   0.00000  Uiso   1.00
C21    C     0.32435   0.62281   0.30861   0.00000  Uiso   1.00
C22    C     0.34914   0.62644   0.24020   0.00000  Uiso   1.00
C23    C     0.36987   0.58195   0.20861   0.00000  Uiso   1.00
H24    H     0.28858   0.54502   0.44627   0.00000  Uiso   1.00
H25    H     0.36022   0.57544   0.55013   0.00000  Uiso   1.00
H26    H     0.16636   0.55066   0.45837   0.00000  Uiso   1.00
H27    H     0.33802   0.49596   0.34026   0.00000  Uiso   1.00
H28    H     0.44136   0.62966   0.64958   0.00000  Uiso   1.00
H29    H     0.03261   0.57739   0.45609   0.00000  Uiso   1.00
H30    H     0.39457   0.46204   0.20704   0.00000  Uiso   1.00
H31    H     0.30202   0.70277   0.32532   0.00000  Uiso   1.00
H32    H     0.37440   0.74185   0.42254   0.00000  Uiso   1.00
H33    H     0.18054   0.71707   0.33078   0.00000  Uiso   1.00
H34    H     0.35220   0.66237   0.21268   0.00000  Uiso   1.00
H35    H     0.45287   0.76472   0.54603   0.00000  Uiso   1.00
H36    H     0.04412   0.71246   0.35254   0.00000  Uiso   1.00
H37    H     0.40608   0.59711   0.10348   0.00000  Uiso   1.00
O38    O     0.49447   0.72006   0.66396   0.00000  Uiso   1.00
O39    O     0.95820   0.65148   0.41009   0.00000  Uiso   1.00
O40    O     0.43309   0.50015   0.08334   0.00000  Uiso   1.00
N41    N     0.43415   0.65608   0.61186   0.00000  Uiso   1.00
N42    N     0.05199   0.60722   0.43097   0.00000  Uiso   1.00
N43    N     0.39038   0.49937   0.19812   0.00000  Uiso   1.00
N44    N     0.44034   0.72875   0.55614   0.00000  Uiso   1.00
N45    N     0.05818   0.67989   0.37525   0.00000  Uiso   1.00
N46    N     0.39657   0.57205   0.14240   0.00000  Uiso   1.00
C47    C     0.79166   0.08116   0.41856   0.00000  Uiso   1.00
C48    C     0.83245   0.11956   0.45821   0.00000  Uiso   1.00
C49    C     0.86329   0.11137   0.52259   0.00000  Uiso   1.00
C50    C     0.89827   0.15130   0.55016   0.00000  Uiso   1.00
C51    C     0.96098   0.20388   0.61716   0.00000  Uiso   1.00
C52    C     0.72713   0.10610   0.40837   0.00000  Uiso   1.00
C53    C     0.66941   0.08659   0.43083   0.00000  Uiso   1.00
C54    C     0.61572   0.11518   0.41643   0.00000  Uiso   1.00
C55    C     0.51490   0.14684   0.40600   0.00000  Uiso   1.00
C56    C     0.82040   0.07638   0.34420   0.00000  Uiso   1.00
C57    C     0.84108   0.03188   0.31270   0.00000  Uiso   1.00
C58    C     0.86591   0.03545   0.24427   0.00000  Uiso   1.00
C59    C     0.90990   0.02096   0.13421   0.00000  Uiso   1.00
C60    C     0.79895   0.16663   0.35303   0.00000  Uiso   1.00
C61    C     0.83641   0.16599   0.42262   0.00000  Uiso   1.00
C62    C     0.87135   0.20593   0.45009   0.00000  Uiso   1.00
C63    C     0.90224   0.19780   0.51450   0.00000  Uiso   1.00
C64    C     0.73108   0.15252   0.37278   0.00000  Uiso   1.00
C65    C     0.67747   0.18115   0.35833   0.00000  Uiso   1.00
C66    C     0.61968   0.16169   0.38078   0.00000  Uiso   1.00
C67    C     0.82435   0.12281   0.30861   0.00000  Uiso   1.00
C68    C     0.84914   0.12644   0.24020   0.00000  Uiso   1.00
C69    C     0.86987   0.08195   0.20861   0.00000  Uiso   1.00
H70    H     0.78858   0.04502   0.44627   0.00000  Uiso   1.00
H71    H     0.86022   0.07544   0.55013   0.00000  Uiso   1.00
H72    H     0.66636   0.05066   0.45837   0.00000  Uiso   1.00
H73    H     0.83802   0.99596   0.34026   0.00000  Uiso   1.00
H74    H     0.94136   0.12966   0.64958   0.00000  Uiso   1.00
H75    H     0.53261   0.07739   0.45609   0.00000  Uiso   1.00
H76    H     0.89457   0.96204   0.20704   0.00000  Uiso   1.00
H77    H     0.80202   0.20277   0.32532   0.00000  Uiso   1.00
H78    H     0.87440   0.24185   0.42254   0.00000  Uiso   1.00
H79    H     0.68054   0.21707   0.33078   0.00000  Uiso   1.00
H80    H     0.85220   0.16237   0.21268   0.00000  Uiso   1.00
H81    H     0.95287   0.26472   0.54603   0.00000  Uiso   1.00
H82    H     0.54412   0.21246   0.35254   0.00000  Uiso   1.00
H83    H     0.90608   0.09711   0.10348   0.00000  Uiso   1.00
O84    O     0.99447   0.22006   0.66396   0.00000  Uiso   1.00
O85    O     0.45820   0.15148   0.41009   0.00000  Uiso   1.00
O86    O     0.93309   0.00015   0.08334   0.00000  Uiso   1.00
N87    N     0.93415   0.15608   0.61186   0.00000  Uiso   1.00
N88    N     0.55199   0.10722   0.43097   0.00000  Uiso   1.00
N89    N     0.89038   0.99937   0.19812   0.00000  Uiso   1.00
N90    N     0.94034   0.22875   0.55614   0.00000  Uiso   1.00
N91    N     0.55818   0.17989   0.37525   0.00000  Uiso   1.00
N92    N     0.89657   0.07205   0.14240   0.00000  Uiso   1.00
C93    C     0.20834   0.91884   0.41856   0.00000  Uiso   1.00
C94    C     0.16755   0.88044   0.45821   0.00000  Uiso   1.00
C95    C     0.13671   0.88863   0.52259   0.00000  Uiso   1.00
C96    C     0.10173   0.84870   0.55016   0.00000  Uiso   1.00
C97    C     0.03902   0.79612   0.61716   0.00000  Uiso   1.00
C98    C     0.27287   0.89390   0.40837   0.00000  Uiso   1.00
C99    C     0.33059   0.91341   0.43083   0.00000  Uiso   1.00
C100   C     0.38428   0.88482   0.41643   0.00000  Uiso   1.00
C101   C     0.48510   0.85316   0.40600   0.00000  Uiso   1.00
C102   C     0.17960   0.92362   0.34420   0.00000  Uiso   1.00
C103   C     0.15892   0.96812   0.31270   0.00000  Uiso   1.00
C104   C     0.13409   0.96455   0.24427   0.00000  Uiso   1.00
C105   C     0.09010   0.97904   0.13421   0.00000  Uiso   1.00
C106   C     0.20105   0.83337   0.35303   0.00000  Uiso   1.00
C107   C     0.16359   0.83401   0.42262   0.00000  Uiso   1.00
C108   C     0.12865   0.79407   0.45009   0.00000  Uiso   1.00
C109   C     0.09776   0.80220   0.51450   0.00000  Uiso   1.00
C110   C     0.26892   0.84748   0.37278   0.00000  Uiso   1.00
C111   C     0.32253   0.81885   0.35833   0.00000  Uiso   1.00
C112   C     0.38032   0.83831   0.38078   0.00000  Uiso   1.00
C113   C     0.17565   0.87719   0.30861   0.00000  Uiso   1.00
C114   C     0.15086   0.87356   0.24020   0.00000  Uiso   1.00
C115   C     0.13013   0.91805   0.20861   0.00000  Uiso   1.00
H116   H     0.21142   0.95498   0.44627   0.00000  Uiso   1.00
H117   H     0.13978   0.92456   0.55013   0.00000  Uiso   1.00
H118   H     0.33364   0.94934   0.45837   0.00000  Uiso   1.00
H119   H     0.16198   0.00404   0.34026   0.00000  Uiso   1.00
H120   H     0.05864   0.87034   0.64958   0.00000  Uiso   1.00
H121   H     0.46739   0.92261   0.45609   0.00000  Uiso   1.00
H122   H     0.10543   0.03796   0.20704   0.00000  Uiso   1.00
H123   H     0.19798   0.79723   0.32532   0.00000  Uiso   1.00
H124   H     0.12560   0.75815   0.42254   0.00000  Uiso   1.00
H125   H     0.31946   0.78293   0.33078   0.00000  Uiso   1.00
H126   H     0.14780   0.83763   0.21268   0.00000  Uiso   1.00
H127   H     0.04713   0.73528   0.54603   0.00000  Uiso   1.00
H128   H     0.45588   0.78754   0.35254   0.00000  Uiso   1.00
H129   H     0.09392   0.90289   0.10348   0.00000  Uiso   1.00
O130   O     0.00553   0.77994   0.66396   0.00000  Uiso   1.00
O131   O     0.54180   0.84852   0.41009   0.00000  Uiso   1.00
O132   O     0.06691   0.99985   0.08334   0.00000  Uiso   1.00
N133   N     0.06585   0.84392   0.61186   0.00000  Uiso   1.00
N134   N     0.44801   0.89278   0.43097   0.00000  Uiso   1.00
N135   N     0.10962   0.00063   0.19812   0.00000  Uiso   1.00
N136   N     0.05966   0.77125   0.55614   0.00000  Uiso   1.00
N137   N     0.44182   0.82011   0.37525   0.00000  Uiso   1.00
N138   N     0.10343   0.92795   0.14240   0.00000  Uiso   1.00
C139   C     0.70834   0.41884   0.41856   0.00000  Uiso   1.00
C140   C     0.66755   0.38044   0.45821   0.00000  Uiso   1.00
C141   C     0.63671   0.38863   0.52259   0.00000  Uiso   1.00
C142   C     0.60173   0.34870   0.55016   0.00000  Uiso   1.00
C143   C     0.53902   0.29612   0.61716   0.00000  Uiso   1.00
C144   C     0.77287   0.39390   0.40837   0.00000  Uiso   1.00
C145   C     0.83059   0.41341   0.43083   0.00000  Uiso   1.00
C146   C     0.88428   0.38482   0.41643   0.00000  Uiso   1.00
C147   C     0.98510   0.35316   0.40600   0.00000  Uiso   1.00
C148   C     0.67960   0.42362   0.34420   0.00000  Uiso   1.00
C149   C     0.65892   0.46812   0.31270   0.00000  Uiso   1.00
C150   C     0.63409   0.46455   0.24427   0.00000  Uiso   1.00
C151   C     0.59010   0.47904   0.13421   0.00000  Uiso   1.00
C152   C     0.70105   0.33337   0.35303   0.00000  Uiso   1.00
C153   C     0.66359   0.33401   0.42262   0.00000  Uiso   1.00
C154   C     0.62865   0.29407   0.45009   0.00000  Uiso   1.00
C155   C     0.59776   0.30220   0.51450   0.00000  Uiso   1.00
C156   C     0.76892   0.34748   0.37278   0.00000  Uiso   1.00
C157   C     0.82253   0.31885   0.35833   0.00000  Uiso   1.00
C158   C     0.88032   0.33831   0.38078   0.00000  Uiso   1.00
C159   C     0.67565   0.37719   0.30861   0.00000  Uiso   1.00
C160   C     0.65086   0.37356   0.24020   0.00000  Uiso   1.00
C161   C     0.63013   0.41805   0.20861   0.00000  Uiso   1.00
H162   H     0.71142   0.45498   0.44627   0.00000  Uiso   1.00
H163   H     0.63978   0.42456   0.55013   0.00000  Uiso   1.00
H164   H     0.83364   0.44934   0.45837   0.00000  Uiso   1.00
H165   H     0.66198   0.50404   0.34026   0.00000  Uiso   1.00
H166   H     0.55864   0.37034   0.64958   0.00000  Uiso   1.00
H167   H     0.96739   0.42261   0.45609   0.00000  Uiso   1.00
H168   H     0.60543   0.53796   0.20704   0.00000  Uiso   1.00
H169   H     0.69798   0.29723   0.32532   0.00000  Uiso   1.00
H170   H     0.62560   0.25815   0.42254   0.00000  Uiso   1.00
H171   H     0.81946   0.28293   0.33078   0.00000  Uiso   1.00
H172   H     0.64780   0.33763   0.21268   0.00000  Uiso   1.00
H173   H     0.54713   0.23528   0.54603   0.00000  Uiso   1.00
H174   H     0.95588   0.28754   0.35254   0.00000  Uiso   1.00
H175   H     0.59392   0.40289   0.10348   0.00000  Uiso   1.00
O176   O     0.50553   0.27994   0.66396   0.00000  Uiso   1.00
O177   O     0.04180   0.34852   0.41009   0.00000  Uiso   1.00
O178   O     0.56691   0.49985   0.08334   0.00000  Uiso   1.00
N179   N     0.56585   0.34392   0.61186   0.00000  Uiso   1.00
N180   N     0.94801   0.39278   0.43097   0.00000  Uiso   1.00
N181   N     0.60962   0.50063   0.19812   0.00000  Uiso   1.00
N182   N     0.55966   0.27125   0.55614   0.00000  Uiso   1.00
N183   N     0.94182   0.32011   0.37525   0.00000  Uiso   1.00
N184   N     0.60343   0.42795   0.14240   0.00000  Uiso   1.00
C185   C     0.70834   0.58116   0.58144   0.00000  Uiso   1.00
C186   C     0.66755   0.61956   0.54179   0.00000  Uiso   1.00
C187   C     0.63671   0.61137   0.47741   0.00000  Uiso   1.00
C188   C     0.60173   0.65130   0.44984   0.00000  Uiso   1.00
C189   C     0.53902   0.70388   0.38284   0.00000  Uiso   1.00
C190   C     0.77287   0.60610   0.59163   0.00000  Uiso   1.00
C191   C     0.83059   0.58659   0.56917   0.00000  Uiso   1.00
C192   C     0.88428   0.61518   0.58357   0.00000  Uiso   1.00
C193   C     0.98510   0.64684   0.59400   0.00000  Uiso   1.00
C194   C     0.67960   0.57638   0.65580   0.00000  Uiso   1.00
C195   C     0.65892   0.53188   0.68730   0.00000  Uiso   1.00
C196   C     0.63409   0.53545   0.75573   0.00000  Uiso   1.00
C197   C     0.59010   0.52096   0.86579   0.00000  Uiso   1.00
C198   C     0.70105   0.66663   0.64697   0.00000  Uiso   1.00
C199   C     0.66359   0.66599   0.57738   0.00000  Uiso   1.00
C200   C     0.62865   0.70593   0.54991   0.00000  Uiso   1.00
C201   C     0.59776   0.69780   0.48550   0.00000  Uiso   1.00
C202   C     0.76892   0.65252   0.62722   0.00000  Uiso   1.00
C203   C     0.82253   0.68115   0.64167   0.00000  Uiso   1.00
C204   C     0.88032   0.66169   0.61922   0.00000  Uiso   1.00
C205   C     0.67565   0.62281   0.69139   0.00000  Uiso   1.00
C206   C     0.65086   0.62644   0.75980   0.00000  Uiso   1.00
C207   C     0.63013   0.58195   0.79139   0.00000  Uiso   1.00
H208   H     0.71142   0.54502   0.55373   0.00000  Uiso   1.00
H209   H     0.63978   0.57544   0.44987   0.00000  Uiso   1.00
H210   H     0.83364   0.55066   0.54163   0.00000  Uiso   1.00
H211   H     0.66198   0.49596   0.65974   0.00000  Uiso   1.00
H212   H     0.55864   0.62966   0.35042   0.00000  Uiso   1.00
H213   H     0.96739   0.57739   0.54391   0.00000  Uiso   1.00
H214   H     0.60543   0.46204   0.79296   0.00000  Uiso   1.00
H215   H     0.69798   0.70277   0.67468   0.00000  Uiso   1.00
H216   H     0.62560   0.74185   0.57746   0.00000  Uiso   1.00
H217   H     0.81946   0.71707   0.66922   0.00000  Uiso   1.00
H218   H     0.64780   0.66237   0.78732   0.00000  Uiso   1.00
H219   H     0.54713   0.76472   0.45397   0.00000  Uiso   1.00
H220   H     0.95588   0.71246   0.64746   0.00000  Uiso   1.00
H221   H     0.59392   0.59711   0.89652   0.00000  Uiso   1.00
O222   O     0.50553   0.72006   0.33604   0.00000  Uiso   1.00
O223   O     0.04180   0.65148   0.58991   0.00000  Uiso   1.00
O224   O     0.56691   0.50015   0.91666   0.00000  Uiso   1.00
N225   N     0.56585   0.65608   0.38814   0.00000  Uiso   1.00
N226   N     0.94801   0.60722   0.56903   0.00000  Uiso   1.00
N227   N     0.60962   0.49937   0.80188   0.00000  Uiso   1.00
N228   N     0.55966   0.72875   0.44386   0.00000  Uiso   1.00
N229   N     0.94182   0.67989   0.62475   0.00000  Uiso   1.00
N230   N     0.60343   0.57205   0.85760   0.00000  Uiso   1.00
C231   C     0.20834   0.08116   0.58144   0.00000  Uiso   1.00
C232   C     0.16755   0.11956   0.54179   0.00000  Uiso   1.00
C233   C     0.13671   0.11137   0.47741   0.00000  Uiso   1.00
C234   C     0.10173   0.15130   0.44984   0.00000  Uiso   1.00
C235   C     0.03902   0.20388   0.38284   0.00000  Uiso   1.00
C236   C     0.27287   0.10610   0.59163   0.00000  Uiso   1.00
C237   C     0.33059   0.08659   0.56917   0.00000  Uiso   1.00
C238   C     0.38428   0.11518   0.58357   0.00000  Uiso   1.00
C239   C     0.48510   0.14684   0.59400   0.00000  Uiso   1.00
C240   C     0.17960   0.07638   0.65580   0.00000  Uiso   1.00
C241   C     0.15892   0.03188   0.68730   0.00000  Uiso   1.00
C242   C     0.13409   0.03545   0.75573   0.00000  Uiso   1.00
C243   C     0.09010   0.02096   0.86579   0.00000  Uiso   1.00
C244   C     0.20105   0.16663   0.64697   0.00000  Uiso   1.00
C245   C     0.16359   0.16599   0.57738   0.00000  Uiso   1.00
C246   C     0.12865   0.20593   0.54991   0.00000  Uiso   1.00
C247   C     0.09776   0.19780   0.48550   0.00000  Uiso   1.00
C248   C     0.26892   0.15252   0.62722   0.00000  Uiso   1.00
C249   C     0.32253   0.18115   0.64167   0.00000  Uiso   1.00
C250   C     0.38032   0.16169   0.61922   0.00000  Uiso   1.00
C251   C     0.17565   0.12281   0.69139   0.00000  Uiso   1.00
C252   C     0.15086   0.12644   0.75980   0.00000  Uiso   1.00
C253   C     0.13013   0.08195   0.79139   0.00000  Uiso   1.00
H254   H     0.21142   0.04502   0.55373   0.00000  Uiso   1.00
H255   H     0.13978   0.07544   0.44987   0.00000  Uiso   1.00
H256   H     0.33364   0.05066   0.54163   0.00000  Uiso   1.00
H257   H     0.16198   0.99596   0.65974   0.00000  Uiso   1.00
H258   H     0.05864   0.12966   0.35042   0.00000  Uiso   1.00
H259   H     0.46739   0.07739   0.54391   0.00000  Uiso   1.00
H260   H     0.10543   0.96204   0.79296   0.00000  Uiso   1.00
H261   H     0.19798   0.20277   0.67468   0.00000  Uiso   1.00
H262   H     0.12560   0.24185   0.57746   0.00000  Uiso   1.00
H263   H     0.31946   0.21707   0.66922   0.00000  Uiso   1.00
H264   H     0.14780   0.16237   0.78732   0.00000  Uiso   1.00
H265   H     0.04713   0.26472   0.45397   0.00000  Uiso   1.00
H266   H     0.45588   0.21246   0.64746   0.00000  Uiso   1.00
H267   H     0.09392   0.09711   0.89652   0.00000  Uiso   1.00
O268   O     0.00553   0.22006   0.33604   0.00000  Uiso   1.00
O269   O     0.54180   0.15148   0.58991   0.00000  Uiso   1.00
O270   O     0.06691   0.00015   0.91666   0.00000  Uiso   1.00
N271   N     0.06585   0.15608   0.38814   0.00000  Uiso   1.00
N272   N     0.44801   0.10722   0.56903   0.00000  Uiso   1.00
N273   N     0.10962   0.99937   0.80188   0.00000  Uiso   1.00
N274   N     0.05966   0.22875   0.44386   0.00000  Uiso   1.00
N275   N     0.44182   0.17989   0.62475   0.00000  Uiso   1.00
N276   N     0.10343   0.07205   0.85760   0.00000  Uiso   1.00
C277   C     0.79166   0.91884   0.58144   0.00000  Uiso   1.00
C278   C     0.83245   0.88044   0.54179   0.00000  Uiso   1.00
C279   C     0.86329   0.88863   0.47741   0.00000  Uiso   1.00
C280   C     0.89827   0.84870   0.44984   0.00000  Uiso   1.00
C281   C     0.96098   0.79612   0.38284   0.00000  Uiso   1.00
C282   C     0.72713   0.89390   0.59163   0.00000  Uiso   1.00
C283   C     0.66941   0.91341   0.56917   0.00000  Uiso   1.00
C284   C     0.61572   0.88482   0.58357   0.00000  Uiso   1.00
C285   C     0.51490   0.85316   0.59400   0.00000  Uiso   1.00
C286   C     0.82040   0.92362   0.65580   0.00000  Uiso   1.00
C287   C     0.84108   0.96812   0.68730   0.00000  Uiso   1.00
C288   C     0.86591   0.96455   0.75573   0.00000  Uiso   1.00
C289   C     0.90990   0.97904   0.86579   0.00000  Uiso   1.00
C290   C     0.79895   0.83337   0.64697   0.00000  Uiso   1.00
C291   C     0.83641   0.83401   0.57738   0.00000  Uiso   1.00
C292   C     0.87135   0.79407   0.54991   0.00000  Uiso   1.00
C293   C     0.90224   0.80220   0.48550   0.00000  Uiso   1.00
C294   C     0.73108   0.84748   0.62722   0.00000  Uiso   1.00
C295   C     0.67747   0.81885   0.64167   0.00000  Uiso   1.00
C296   C     0.61968   0.83831   0.61922   0.00000  Uiso   1.00
C297   C     0.82435   0.87719   0.69139   0.00000  Uiso   1.00
C298   C     0.84914   0.87356   0.75980   0.00000  Uiso   1.00
C299   C     0.86987   0.91805   0.79139   0.00000  Uiso   1.00
H300   H     0.78858   0.95498   0.55373   0.00000  Uiso   1.00
H301   H     0.86022   0.92456   0.44987   0.00000  Uiso   1.00
H302   H     0.66636   0.94934   0.54163   0.00000  Uiso   1.00
H303   H     0.83802   0.00404   0.65974   0.00000  Uiso   1.00
H304   H     0.94136   0.87034   0.35042   0.00000  Uiso   1.00
H305   H     0.53261   0.92261   0.54391   0.00000  Uiso   1.00
H306   H     0.89457   0.03796   0.79296   0.00000  Uiso   1.00
H307   H     0.80202   0.79723   0.67468   0.00000  Uiso   1.00
H308   H     0.87440   0.75815   0.57746   0.00000  Uiso   1.00
H309   H     0.68054   0.78293   0.66922   0.00000  Uiso   1.00
H310   H     0.85220   0.83763   0.78732   0.00000  Uiso   1.00
H311   H     0.95287   0.73528   0.45397   0.00000  Uiso   1.00
H312   H     0.54412   0.78754   0.64746   0.00000  Uiso   1.00
H313   H     0.90608   0.90289   0.89652   0.00000  Uiso   1.00
O314   O     0.99447   0.77994   0.33604   0.00000  Uiso   1.00
O315   O     0.45820   0.84852   0.58991   0.00000  Uiso   1.00
O316   O     0.93309   0.99985   0.91666   0.00000  Uiso   1.00
N317   N     0.93415   0.84392   0.38814   0.00000  Uiso   1.00
N318   N     0.55199   0.89278   0.56903   0.00000  Uiso   1.00
N319   N     0.89038   0.00063   0.80188   0.00000  Uiso   1.00
N320   N     0.94034   0.77125   0.44386   0.00000  Uiso   1.00
N321   N     0.55818   0.82011   0.62475   0.00000  Uiso   1.00
N322   N     0.89657   0.92795   0.85760   0.00000  Uiso   1.00
C323   C     0.29166   0.41884   0.58144   0.00000  Uiso   1.00
C324   C     0.33245   0.38044   0.54179   0.00000  Uiso   1.00
C325   C     0.36329   0.38863   0.47741   0.00000  Uiso   1.00
C326   C     0.39827   0.34870   0.44984   0.00000  Uiso   1.00
C327   C     0.46098   0.29612   0.38284   0.00000  Uiso   1.00
C328   C     0.22713   0.39390   0.59163   0.00000  Uiso   1.00
C329   C     0.16941   0.41341   0.56917   0.00000  Uiso   1.00
C330   C     0.11572   0.38482   0.58357   0.00000  Uiso   1.00
C331   C     0.01490   0.35316   0.59400   0.00000  Uiso   1.00
C332   C     0.32040   0.42362   0.65580   0.00000  Uiso   1.00
C333   C     0.34108   0.46812   0.68730   0.00000  Uiso   1.00
C334   C     0.36591   0.46455   0.75573   0.00000  Uiso   1.00
C335   C     0.40990   0.47904   0.86579   0.00000  Uiso   1.00
C336   C     0.29895   0.33337   0.64697   0.00000  Uiso   1.00
C337   C     0.33641   0.33401   0.57738   0.00000  Uiso   1.00
C338   C     0.37135   0.29407   0.54991   0.00000  Uiso   1.00
C339   C     0.40224   0.30220   0.48550   0.00000  Uiso   1.00
C340   C     0.23108   0.34748   0.62722   0.00000  Uiso   1.00
C341   C     0.17747   0.31885   0.64167   0.00000  Uiso   1.00
C342   C     0.11968   0.33831   0.61922   0.00000  Uiso   1.00
C343   C     0.32435   0.37719   0.69139   0.00000  Uiso   1.00
C344   C     0.34914   0.37356   0.75980   0.00000  Uiso   1.00
C345   C     0.36987   0.41805   0.79139   0.00000  Uiso   1.00
H346   H     0.28858   0.45498   0.55373   0.00000  Uiso   1.00
H347   H     0.36022   0.42456   0.44987   0.00000  Uiso   1.00
H348   H     0.16636   0.44934   0.54163   0.00000  Uiso   1.00
H349   H     0.33802   0.50404   0.65974   0.00000  Uiso   1.00
H350   H     0.44136   0.37034   0.35042   0.00000  Uiso   1.00
H351   H     0.03261   0.42261   0.54391   0.00000  Uiso   1.00
H352   H     0.39457   0.53796   0.79296   0.00000  Uiso   1.00
H353   H     0.30202   0.29723   0.67468   0.00000  Uiso   1.00
H354   H     0.37440   0.25815   0.57746   0.00000  Uiso   1.00
H355   H     0.18054   0.28293   0.66922   0.00000  Uiso   1.00
H356   H     0.35220   0.33763   0.78732   0.00000  Uiso   1.00
H357   H     0.45287   0.23528   0.45397   0.00000  Uiso   1.00
H358   H     0.04412   0.28754   0.64746   0.00000  Uiso   1.00
H359   H     0.40608   0.40289   0.89652   0.00000  Uiso   1.00
O360   O     0.49447   0.27994   0.33604   0.00000  Uiso   1.00
O361   O     0.95820   0.34852   0.58991   0.00000  Uiso   1.00
O362   O     0.43309   0.49985   0.91666   0.00000  Uiso   1.00
N363   N     0.43415   0.34392   0.38814   0.00000  Uiso   1.00
N364   N     0.05199   0.39278   0.56903   0.00000  Uiso   1.00
N365   N     0.39038   0.50063   0.80188   0.00000  Uiso   1.00
N366   N     0.44034   0.27125   0.44386   0.00000  Uiso   1.00
N367   N     0.05818   0.32011   0.62475   0.00000  Uiso   1.00
N368   N     0.39657   0.42795   0.85760   0.00000  Uiso   1.00
C369   C     0.70834   0.91884   0.08144   0.00000  Uiso   1.00
C370   C     0.66755   0.88044   0.04179   0.00000  Uiso   1.00
C371   C     0.63671   0.88863   0.97741   0.00000  Uiso   1.00
C372   C     0.60173   0.84870   0.94984   0.00000  Uiso   1.00
C373   C     0.53902   0.79612   0.88284   0.00000  Uiso   1.00
C374   C     0.77287   0.89390   0.09163   0.00000  Uiso   1.00
C375   C     0.83059   0.91341   0.06917   0.00000  Uiso   1.00
C376   C     0.88428   0.88482   0.08357   0.00000  Uiso   1.00
C377   C     0.98510   0.85316   0.09400   0.00000  Uiso   1.00
C378   C     0.67960   0.92362   0.15580   0.00000  Uiso   1.00
C379   C     0.65892   0.96812   0.18730   0.00000  Uiso   1.00
C380   C     0.63409   0.96455   0.25573   0.00000  Uiso   1.00
C381   C     0.59010   0.97904   0.36579   0.00000  Uiso   1.00
C382   C     0.70105   0.83337   0.14697   0.00000  Uiso   1.00
C383   C     0.66359   0.83401   0.07738   0.00000  Uiso   1.00
C384   C     0.62865   0.79407   0.04991   0.00000  Uiso   1.00
C385   C     0.59776   0.80220   0.98550   0.00000  Uiso   1.00
C386   C     0.76892   0.84748   0.12722   0.00000  Uiso   1.00
C387   C     0.82253   0.81885   0.14167   0.00000  Uiso   1.00
C388   C     0.88032   0.83831   0.11922   0.00000  Uiso   1.00
C389   C     0.67565   0.87719   0.19139   0.00000  Uiso   1.00
C390   C     0.65086   0.87356   0.25980   0.00000  Uiso   1.00
C391   C     0.63013   0.91805   0.29139   0.00000  Uiso   1.00
H392   H     0.71142   0.95498   0.05373   0.00000  Uiso   1.00
H393   H     0.63978   0.92456   0.94987   0.00000  Uiso   1.00
H394   H     0.83364   0.94934   0.04163   0.00000  Uiso   1.00
H395   H     0.66198   0.00404   0.15974   0.00000  Uiso   1.00
H396   H     0.55864   0.87034   0.85042   0.00000  Uiso   1.00
H397   H     0.96739   0.92261   0.04391   0.00000  Uiso   1.00
H398   H     0.60543   0.03796   0.29296   0.00000  Uiso   1.00
H399   H     0.69798   0.79723   0.17468   0.00000  Uiso   1.00
H400   H     0.62560   0.75815   0.07746   0.00000  Uiso   1.00
H401   H     0.81946   0.78293   0.16922   0.00000  Uiso   1.00
H402   H     0.64780   0.83763   0.28732   0.00000  Uiso   1.00
H403   H     0.54713   0.73528   0.95397   0.00000  Uiso   1.00
H404   H     0.95588   0.78754   0.14746   0.00000  Uiso   1.00
H405   H     0.59392   0.90289   0.39652   0.00000  Uiso   1.00
O406   O     0.50553   0.77994   0.83604   0.00000  Uiso   1.00
O407   O     0.04180   0.84852   0.08991   0.00000  Uiso   1.00
O408   O     0.56691   0.99985   0.41666   0.00000  Uiso   1.00
N409   N     0.56585   0.84392   0.88814   0.00000  Uiso   1.00
N410   N     0.94801   0.89278   0.06903   0.00000  Uiso   1.00
N411   N     0.60962   0.00063   0.30188   0.00000  Uiso   1.00
N412   N     0.55966   0.77125   0.94386   0.00000  Uiso   1.00
N413   N     0.94182   0.82011   0.12475   0.00000  Uiso   1.00
N414   N     0.60343   0.92795   0.35760   0.00000  Uiso   1.00
C415   C     0.20834   0.41884   0.08144   0.00000  Uiso   1.00
C416   C     0.16755   0.38044   0.04179   0.00000  Uiso   1.00
C417   C     0.13671   0.38863   0.97741   0.00000  Uiso   1.00
C418   C     0.10173   0.34870   0.94984   0.00000  Uiso   1.00
C419   C     0.03902   0.29612   0.88284   0.00000  Uiso   1.00
C420   C     0.27287   0.39390   0.09163   0.00000  Uiso   1.00
C421   C     0.33059   0.41341   0.06917   0.00000  Uiso   1.00
C422   C     0.38428   0.38482   0.08357   0.00000  Uiso   1.00
C423   C     0.48510   0.35316   0.09400   0.00000  Uiso   1.00
C424   C     0.17960   0.42362   0.15580   0.00000  Uiso   1.00
C425   C     0.15892   0.46812   0.18730   0.00000  Uiso   1.00
C426   C     0.13409   0.46455   0.25573   0.00000  Uiso   1.00
C427   C     0.09010   0.47904   0.36579   0.00000  Uiso   1.00
C428   C     0.20105   0.33337   0.14697   0.00000  Uiso   1.00
C429   C     0.16359   0.33401   0.07738   0.00000  Uiso   1.00
C430   C     0.12865   0.29407   0.04991   0.00000  Uiso   1.00
C431   C     0.09776   0.30220   0.98550   0.00000  Uiso   1.00
C432   C     0.26892   0.34748   0.12722   0.00000  Uiso   1.00
C433   C     0.32253   0.31885   0.14167   0.00000  Uiso   1.00
C434   C     0.38032   0.33831   0.11922   0.00000  Uiso   1.00
C435   C     0.17565   0.37719   0.19139   0.00000  Uiso   1.00
C436   C     0.15086   0.37356   0.25980   0.00000  Uiso   1.00
C437   C     0.13013   0.41805   0.29139   0.00000  Uiso   1.00
H438   H     0.21142   0.45498   0.05373   0.00000  Uiso   1.00
H439   H     0.13978   0.42456   0.94987   0.00000  Uiso   1.00
H440   H     0.33364   0.44934   0.04163   0.00000  Uiso   1.00
H441   H     0.16198   0.50404   0.15974   0.00000  Uiso   1.00
H442   H     0.05864   0.37034   0.85042   0.00000  Uiso   1.00
H443   H     0.46739   0.42261   0.04391   0.00000  Uiso   1.00
H444   H     0.10543   0.53796   0.29296   0.00000  Uiso   1.00
H445   H     0.19798   0.29723   0.17468   0.00000  Uiso   1.00
H446   H     0.12560   0.25815   0.07746   0.00000  Uiso   1.00
H447   H     0.31946   0.28293   0.16922   0.00000  Uiso   1.00
H448   H     0.14780   0.33763   0.28732   0.00000  Uiso   1.00
H449   H     0.04713   0.23528   0.95397   0.00000  Uiso   1.00
H450   H     0.45588   0.28754   0.14746   0.00000  Uiso   1.00
H451   H     0.09392   0.40289   0.39652   0.00000  Uiso   1.00
O452   O     0.00553   0.27994   0.83604   0.00000  Uiso   1.00
O453   O     0.54180   0.34852   0.08991   0.00000  Uiso   1.00
O454   O     0.06691   0.49985   0.41666   0.00000  Uiso   1.00
N455   N     0.06585   0.34392   0.88814   0.00000  Uiso   1.00
N456   N     0.44801   0.39278   0.06903   0.00000  Uiso   1.00
N457   N     0.10962   0.50063   0.30188   0.00000  Uiso   1.00
N458   N     0.05966   0.27125   0.94386   0.00000  Uiso   1.00
N459   N     0.44182   0.32011   0.12475   0.00000  Uiso   1.00
N460   N     0.10343   0.42795   0.35760   0.00000  Uiso   1.00
C461   C     0.79166   0.58116   0.08144   0.00000  Uiso   1.00
C462   C     0.83245   0.61956   0.04179   0.00000  Uiso   1.00
C463   C     0.86329   0.61137   0.97741   0.00000  Uiso   1.00
C464   C     0.89827   0.65130   0.94984   0.00000  Uiso   1.00
C465   C     0.96098   0.70388   0.88284   0.00000  Uiso   1.00
C466   C     0.72713   0.60610   0.09163   0.00000  Uiso   1.00
C467   C     0.66941   0.58659   0.06917   0.00000  Uiso   1.00
C468   C     0.61572   0.61518   0.08357   0.00000  Uiso   1.00
C469   C     0.51490   0.64684   0.09400   0.00000  Uiso   1.00
C470   C     0.82040   0.57638   0.15580   0.00000  Uiso   1.00
C471   C     0.84108   0.53188   0.18730   0.00000  Uiso   1.00
C472   C     0.86591   0.53545   0.25573   0.00000  Uiso   1.00
C473   C     0.90990   0.52096   0.36579   0.00000  Uiso   1.00
C474   C     0.79895   0.66663   0.14697   0.00000  Uiso   1.00
C475   C     0.83641   0.66599   0.07738   0.00000  Uiso   1.00
C476   C     0.87135   0.70593   0.04991   0.00000  Uiso   1.00
C477   C     0.90224   0.69780   0.98550   0.00000  Uiso   1.00
C478   C     0.73108   0.65252   0.12722   0.00000  Uiso   1.00
C479   C     0.67747   0.68115   0.14167   0.00000  Uiso   1.00
C480   C     0.61968   0.66169   0.11922   0.00000  Uiso   1.00
C481   C     0.82435   0.62281   0.19139   0.00000  Uiso   1.00
C482   C     0.84914   0.62644   0.25980   0.00000  Uiso   1.00
C483   C     0.86987   0.58195   0.29139   0.00000  Uiso   1.00
H484   H     0.78858   0.54502   0.05373   0.00000  Uiso   1.00
H485   H     0.86022   0.57544   0.94987   0.00000  Uiso   1.00
H486   H     0.66636   0.55066   0.04163   0.00000  Uiso   1.00
H487   H     0.83802   0.49596   0.15974   0.00000  Uiso   1.00
H488   H     0.94136   0.62966   0.85042   0.00000  Uiso   1.00
H489   H     0.53261   0.57739   0.04391   0.00000  Uiso   1.00
H490   H     0.89457   0.46204   0.29296   0.00000  Uiso   1.00
H491   H     0.80202   0.70277   0.17468   0.00000  Uiso   1.00
H492   H     0.87440   0.74185   0.07746   0.00000  Uiso   1.00
H493   H     0.68054   0.71707   0.16922   0.00000  Uiso   1.00
H494   H     0.85220   0.66237   0.28732   0.00000  Uiso   1.00
H495   H     0.95287   0.76472   0.95397   0.00000  Uiso   1.00
H496   H     0.54412   0.71246   0.14746   0.00000  Uiso   1.00
H497   H     0.90608   0.59711   0.39652   0.00000  Uiso   1.00
O498   O     0.99447   0.72006   0.83604   0.00000  Uiso   1.00
O499   O     0.45820   0.65148   0.08991   0.00000  Uiso   1.00
O500   O     0.93309   0.50015   0.41666   0.00000  Uiso   1.00
N501   N     0.93415   0.65608   0.88814   0.00000  Uiso   1.00
N502   N     0.55199   0.60722   0.06903   0.00000  Uiso   1.00
N503   N     0.89038   0.49937   0.30188   0.00000  Uiso   1.00
N504   N     0.94034   0.72875   0.94386   0.00000  Uiso   1.00
N505   N     0.55818   0.67989   0.12475   0.00000  Uiso   1.00
N506   N     0.89657   0.57205   0.35760   0.00000  Uiso   1.00
C507   C     0.29166   0.08116   0.08144   0.00000  Uiso   1.00
C508   C     0.33245   0.11956   0.04179   0.00000  Uiso   1.00
C509   C     0.36329   0.11137   0.97741   0.00000  Uiso   1.00
C510   C     0.39827   0.15130   0.94984   0.00000  Uiso   1.00
C511   C     0.46098   0.20388   0.88284   0.00000  Uiso   1.00
C512   C     0.22713   0.10610   0.09163   0.00000  Uiso   1.00
C513   C     0.16941   0.08659   0.06917   0.00000  Uiso   1.00
C514   C     0.11572   0.11518   0.08357   0.00000  Uiso   1.00
C515   C     0.01490   0.14684   0.09400   0.00000  Uiso   1.00
C516   C     0.32040   0.07638   0.15580   0.00000  Uiso   1.00
C517   C     0.34108   0.03188   0.18730   0.00000  Uiso   1.00
C518   C     0.36591   0.03545   0.25573   0.00000  Uiso   1.00
C519   C     0.40990   0.02096   0.36579   0.00000  Uiso   1.00
C520   C     0.29895   0.16663   0.14697   0.00000  Uiso   1.00
C521   C     0.33641   0.16599   0.07738   0.00000  Uiso   1.00
C522   C     0.37135   0.20593   0.04991   0.00000  Uiso   1.00
C523   C     0.40224   0.19780   0.98550   0.00000  Uiso   1.00
C524   C     0.23108   0.15252   0.12722   0.00000  Uiso   1.00
C525   C     0.17747   0.18115   0.14167   0.00000  Uiso   1.00
C526   C     0.11968   0.16169   0.11922   0.00000  Uiso   1.00
C527   C     0.32435   0.12281   0.19139   0.00000  Uiso   1.00
C528   C     0.34914   0.12644   0.25980   0.00000  Uiso   1.00
C529   C     0.36987   0.08195   0.29139   0.00000  Uiso   1.00
H530   H     0.28858   0.04502   0.05373   0.00000  Uiso   1.00
H531   H     0.36022   0.07544   0.94987   0.00000  Uiso   1.00
H532   H     0.16636   0.05066   0.04163   0.00000  Uiso   1.00
H533   H     0.33802   0.99596   0.15974   0.00000  Uiso   1.00
H534   H     0.44136   0.12966   0.85042   0.00000  Uiso   1.00
H535   H     0.03261   0.07739   0.04391   0.00000  Uiso   1.00
H536   H     0.39457   0.96204   0.29296   0.00000  Uiso   1.00
H537   H     0.30202   0.20277   0.17468   0.00000  Uiso   1.00
H538   H     0.37440   0.24185   0.07746   0.00000  Uiso   1.00
H539   H     0.18054   0.21707   0.16922   0.00000  Uiso   1.00
H540   H     0.35220   0.16237   0.28732   0.00000  Uiso   1.00
H541   H     0.45287   0.26472   0.95397   0.00000  Uiso   1.00
H542   H     0.04412   0.21246   0.14746   0.00000  Uiso   1.00
H543   H     0.40608   0.09711   0.39652   0.00000  Uiso   1.00
O544   O     0.49447   0.22006   0.83604   0.00000  Uiso   1.00
O545   O     0.95820   0.15148   0.08991   0.00000  Uiso   1.00
O546   O     0.43309   0.00015   0.41666   0.00000  Uiso   1.00
N547   N     0.43415   0.15608   0.88814   0.00000  Uiso   1.00
N548   N     0.05199   0.10722   0.06903   0.00000  Uiso   1.00
N549   N     0.39038   0.99937   0.30188   0.00000  Uiso   1.00
N550   N     0.44034   0.22875   0.94386   0.00000  Uiso   1.00
N551   N     0.05818   0.17989   0.12475   0.00000  Uiso   1.00
N552   N     0.39657   0.07205   0.35760   0.00000  Uiso   1.00
C553   C     0.29166   0.91884   0.91856   0.00000  Uiso   1.00
C554   C     0.33245   0.88044   0.95821   0.00000  Uiso   1.00
C555   C     0.36329   0.88863   0.02259   0.00000  Uiso   1.00
C556   C     0.39827   0.84870   0.05016   0.00000  Uiso   1.00
C557   C     0.46098   0.79612   0.11716   0.00000  Uiso   1.00
C558   C     0.22713   0.89390   0.90837   0.00000  Uiso   1.00
C559   C     0.16941   0.91341   0.93083   0.00000  Uiso   1.00
C560   C     0.11572   0.88482   0.91643   0.00000  Uiso   1.00
C561   C     0.01490   0.85316   0.90600   0.00000  Uiso   1.00
C562   C     0.32040   0.92362   0.84420   0.00000  Uiso   1.00
C563   C     0.34108   0.96812   0.81270   0.00000  Uiso   1.00
C564   C     0.36591   0.96455   0.74427   0.00000  Uiso   1.00
C565   C     0.40990   0.97904   0.63421   0.00000  Uiso   1.00
C566   C     0.29895   0.83337   0.85303   0.00000  Uiso   1.00
C567   C     0.33641   0.83401   0.92262   0.00000  Uiso   1.00
C568   C     0.37135   0.79407   0.95009   0.00000  Uiso   1.00
C569   C     0.40224   0.80220   0.01450   0.00000  Uiso   1.00
C570   C     0.23108   0.84748   0.87278   0.00000  Uiso   1.00
C571   C     0.17747   0.81885   0.85833   0.00000  Uiso   1.00
C572   C     0.11968   0.83831   0.88078   0.00000  Uiso   1.00
C573   C     0.32435   0.87719   0.80861   0.00000  Uiso   1.00
C574   C     0.34914   0.87356   0.74020   0.00000  Uiso   1.00
C575   C     0.36987   0.91805   0.70861   0.00000  Uiso   1.00
H576   H     0.28858   0.95498   0.94627   0.00000  Uiso   1.00
H577   H     0.36022   0.92456   0.05013   0.00000  Uiso   1.00
H578   H     0.16636   0.94934   0.95837   0.00000  Uiso   1.00
H579   H     0.33802   0.00404   0.84026   0.00000  Uiso   1.00
H580   H     0.44136   0.87034   0.14958   0.00000  Uiso   1.00
H581   H     0.03261   0.92261   0.95609   0.00000  Uiso   1.00
H582   H     0.39457   0.03796   0.70704   0.00000  Uiso   1.00
H583   H     0.30202   0.79723   0.82532   0.00000  Uiso   1.00
H584   H     0.37440   0.75815   0.92254   0.00000  Uiso   1.00
H585   H     0.18054   0.78293   0.83078   0.00000  Uiso   1.00
H586   H     0.35220   0.83763   0.71268   0.00000  Uiso   1.00
H587   H     0.45287   0.73528   0.04603   0.00000  Uiso   1.00
H588   H     0.04412   0.78754   0.85254   0.00000  Uiso   1.00
H589   H     0.40608   0.90289   0.60348   0.00000  Uiso   1.00
O590   O     0.49447   0.77994   0.16396   0.00000  Uiso   1.00
O591   O     0.95820   0.84852   0.91009   0.00000  Uiso   1.00
O592   O     0.43309   0.99985   0.58334   0.00000  Uiso   1.00
N593   N     0.43415   0.84392   0.11186   0.00000  Uiso   1.00
N594   N     0.05199   0.89278   0.93097   0.00000  Uiso   1.00
N595   N     0.39038   0.00063   0.69812   0.00000  Uiso   1.00
N596   N     0.44034   0.77125   0.05614   0.00000  Uiso   1.00
N597   N     0.05818   0.82011   0.87525   0.00000  Uiso   1.00
N598   N     0.39657   0.92795   0.64240   0.00000  Uiso   1.00
C599   C     0.79166   0.41884   0.91856   0.00000  Uiso   1.00
C600   C     0.83245   0.38044   0.95821   0.00000  Uiso   1.00
C601   C     0.86329   0.38863   0.02259   0.00000  Uiso   1.00
C602   C     0.89827   0.34870   0.05016   0.00000  Uiso   1.00
C603   C     0.96098   0.29612   0.11716   0.00000  Uiso   1.00
C604   C     0.72713   0.39390   0.90837   0.00000  Uiso   1.00
C605   C     0.66941   0.41341   0.93083   0.00000  Uiso   1.00
C606   C     0.61572   0.38482   0.91643   0.00000  Uiso   1.00
C607   C     0.51490   0.35316   0.90600   0.00000  Uiso   1.00
C608   C     0.82040   0.42362   0.84420   0.00000  Uiso   1.00
C609   C     0.84108   0.46812   0.81270   0.00000  Uiso   1.00
C610   C     0.86591   0.46455   0.74427   0.00000  Uiso   1.00
C611   C     0.90990   0.47904   0.63421   0.00000  Uiso   1.00
C612   C     0.79895   0.33337   0.85303   0.00000  Uiso   1.00
C613   C     0.83641   0.33401   0.92262   0.00000  Uiso   1.00
C614   C     0.87135   0.29407   0.95009   0.00000  Uiso   1.00
C615   C     0.90224   0.30220   0.01450   0.00000  Uiso   1.00
C616   C     0.73108   0.34748   0.87278   0.00000  Uiso   1.00
C617   C     0.67747   0.31885   0.85833   0.00000  Uiso   1.00
C618   C     0.61968   0.33831   0.88078   0.00000  Uiso   1.00
C619   C     0.82435   0.37719   0.80861   0.00000  Uiso   1.00
C620   C     0.84914   0.37356   0.74020   0.00000  Uiso   1.00
C621   C     0.86987   0.41805   0.70861   0.00000  Uiso   1.00
H622   H     0.78858   0.45498   0.94627   0.00000  Uiso   1.00
H623   H     0.86022   0.42456   0.05013   0.00000  Uiso   1.00
H624   H     0.66636   0.44934   0.95837   0.00000  Uiso   1.00
H625   H     0.83802   0.50404   0.84026   0.00000  Uiso   1.00
H626   H     0.94136   0.37034   0.14958   0.00000  Uiso   1.00
H627   H     0.53261   0.42261   0.95609   0.00000  Uiso   1.00
H628   H     0.89457   0.53796   0.70704   0.00000  Uiso   1.00
H629   H     0.80202   0.29723   0.82532   0.00000  Uiso   1.00
H630   H     0.87440   0.25815   0.92254   0.00000  Uiso   1.00
H631   H     0.68054   0.28293   0.83078   0.00000  Uiso   1.00
H632   H     0.85220   0.33763   0.71268   0.00000  Uiso   1.00
H633   H     0.95287   0.23528   0.04603   0.00000  Uiso   1.00
H634   H     0.54412   0.28754   0.85254   0.00000  Uiso   1.00
H635   H     0.90608   0.40289   0.60348   0.00000  Uiso   1.00
O636   O     0.99447   0.27994   0.16396   0.00000  Uiso   1.00
O637   O     0.45820   0.34852   0.91009   0.00000  Uiso   1.00
O638   O     0.93309   0.49985   0.58334   0.00000  Uiso   1.00
N639   N     0.93415   0.34392   0.11186   0.00000  Uiso   1.00
N640   N     0.55199   0.39278   0.93097   0.00000  Uiso   1.00
N641   N     0.89038   0.50063   0.69812   0.00000  Uiso   1.00
N642   N     0.94034   0.27125   0.05614   0.00000  Uiso   1.00
N643   N     0.55818   0.32011   0.87525   0.00000  Uiso   1.00
N644   N     0.89657   0.42795   0.64240   0.00000  Uiso   1.00
C645   C     0.20834   0.58116   0.91856   0.00000  Uiso   1.00
C646   C     0.16755   0.61956   0.95821   0.00000  Uiso   1.00
C647   C     0.13671   0.61137   0.02259   0.00000  Uiso   1.00
C648   C     0.10173   0.65130   0.05016   0.00000  Uiso   1.00
C649   C     0.03902   0.70388   0.11716   0.00000  Uiso   1.00
C650   C     0.27287   0.60610   0.90837   0.00000  Uiso   1.00
C651   C     0.33059   0.58659   0.93083   0.00000  Uiso   1.00
C652   C     0.38428   0.61518   0.91643   0.00000  Uiso   1.00
C653   C     0.48510   0.64684   0.90600   0.00000  Uiso   1.00
C654   C     0.17960   0.57638   0.84420   0.00000  Uiso   1.00
C655   C     0.15892   0.53188   0.81270   0.00000  Uiso   1.00
C656   C     0.13409   0.53545   0.74427   0.00000  Uiso   1.00
C657   C     0.09010   0.52096   0.63421   0.00000  Uiso   1.00
C658   C     0.20105   0.66663   0.85303   0.00000  Uiso   1.00
C659   C     0.16359   0.66599   0.92262   0.00000  Uiso   1.00
C660   C     0.12865   0.70593   0.95009   0.00000  Uiso   1.00
C661   C     0.09776   0.69780   0.01450   0.00000  Uiso   1.00
C662   C     0.26892   0.65252   0.87278   0.00000  Uiso   1.00
C663   C     0.32253   0.68115   0.85833   0.00000  Uiso   1.00
C664   C     0.38032   0.66169   0.88078   0.00000  Uiso   1.00
C665   C     0.17565   0.62281   0.80861   0.00000  Uiso   1.00
C666   C     0.15086   0.62644   0.74020   0.00000  Uiso   1.00
C667   C     0.13013   0.58195   0.70861   0.00000  Uiso   1.00
H668   H     0.21142   0.54502   0.94627   0.00000  Uiso   1.00
H669   H     0.13978   0.57544   0.05013   0.00000  Uiso   1.00
H670   H     0.33364   0.55066   0.95837   0.00000  Uiso   1.00
H671   H     0.16198   0.49596   0.84026   0.00000  Uiso   1.00
H672   H     0.05864   0.62966   0.14958   0.00000  Uiso   1.00
H673   H     0.46739   0.57739   0.95609   0.00000  Uiso   1.00
H674   H     0.10543   0.46204   0.70704   0.00000  Uiso   1.00
H675   H     0.19798   0.70277   0.82532   0.00000  Uiso   1.00
H676   H     0.12560   0.74185   0.92254   0.00000  Uiso   1.00
H677   H     0.31946   0.71707   0.83078   0.00000  Uiso   1.00
H678   H     0.14780   0.66237   0.71268   0.00000  Uiso   1.00
H679   H     0.04713   0.76472   0.04603   0.00000  Uiso   1.00
H680   H     0.45588   0.71246   0.85254   0.00000  Uiso   1.00
H681   H     0.09392   0.59711   0.60348   0.00000  Uiso   1.00
O682   O     0.00553   0.72006   0.16396   0.00000  Uiso   1.00
O683   O     0.54180   0.65148   0.91009   0.00000  Uiso   1.00
O684   O     0.06691   0.50015   0.58334   0.00000  Uiso   1.00
N685   N     0.06585   0.65608   0.11186   0.00000  Uiso   1.00
N686   N     0.44801   0.60722   0.93097   0.00000  Uiso   1.00
N687   N     0.10962   0.49937   0.69812   0.00000  Uiso   1.00
N688   N     0.05966   0.72875   0.05614   0.00000  Uiso   1.00
N689   N     0.44182   0.67989   0.87525   0.00000  Uiso   1.00
N690   N     0.10343   0.57205   0.64240   0.00000  Uiso   1.00
C691   C     0.70834   0.08116   0.91856   0.00000  Uiso   1.00
C692   C     0.66755   0.11956   0.95821   0.00000  Uiso   1.00
C693   C     0.63671   0.11137   0.02259   0.00000  Uiso   1.00
C694   C     0.60173   0.15130   0.05016   0.00000  Uiso   1.00
C695   C     0.53902   0.20388   0.11716   0.00000  Uiso   1.00
C696   C     0.77287   0.10610   0.90837   0.00000  Uiso   1.00
C697   C     0.83059   0.08659   0.93083   0.00000  Uiso   1.00
C698   C     0.88428   0.11518   0.91643   0.00000  Uiso   1.00
C699   C     0.98510   0.14684   0.90600   0.00000  Uiso   1.00
C700   C     0.67960   0.07638   0.84420   0.00000  Uiso   1.00
C701   C     0.65892   0.03188   0.81270   0.00000  Uiso   1.00
C702   C     0.63409   0.03545   0.74427   0.00000  Uiso   1.00
C703   C     0.59010   0.02096   0.63421   0.00000  Uiso   1.00
C704   C     0.70105   0.16663   0.85303   0.00000  Uiso   1.00
C705   C     0.66359   0.16599   0.92262   0.00000  Uiso   1.00
C706   C     0.62865   0.20593   0.95009   0.00000  Uiso   1.00
C707   C     0.59776   0.19780   0.01450   0.00000  Uiso   1.00
C708   C     0.76892   0.15252   0.87278   0.00000  Uiso   1.00
C709   C     0.82253   0.18115   0.85833   0.00000  Uiso   1.00
C710   C     0.88032   0.16169   0.88078   0.00000  Uiso   1.00
C711   C     0.67565   0.12281   0.80861   0.00000  Uiso   1.00
C712   C     0.65086   0.12644   0.74020   0.00000  Uiso   1.00
C713   C     0.63013   0.08195   0.70861   0.00000  Uiso   1.00
H714   H     0.71142   0.04502   0.94627   0.00000  Uiso   1.00
H715   H     0.63978   0.07544   0.05013   0.00000  Uiso   1.00
H716   H     0.83364   0.05066   0.95837   0.00000  Uiso   1.00
H717   H     0.66198   0.99596   0.84026   0.00000  Uiso   1.00
H718   H     0.55864   0.12966   0.14958   0.00000  Uiso   1.00
H719   H     0.96739   0.07739   0.95609   0.00000  Uiso   1.00
H720   H     0.60543   0.96204   0.70704   0.00000  Uiso   1.00
H721   H     0.69798   0.20277   0.82532   0.00000  Uiso   1.00
H722   H     0.62560   0.24185   0.92254   0.00000  Uiso   1.00
H723   H     0.81946   0.21707   0.83078   0.00000  Uiso   1.00
H724   H     0.64780   0.16237   0.71268   0.00000  Uiso   1.00
H725   H     0.54713   0.26472   0.04603   0.00000  Uiso   1.00
H726   H     0.95588   0.21246   0.85254   0.00000  Uiso   1.00
H727   H     0.59392   0.09711   0.60348   0.00000  Uiso   1.00
O728   O     0.50553   0.22006   0.16396   0.00000  Uiso   1.00
O729   O     0.04180   0.15148   0.91009   0.00000  Uiso   1.00
O730   O     0.56691   0.00015   0.58334   0.00000  Uiso   1.00
N731   N     0.56585   0.15608   0.11186   0.00000  Uiso   1.00
N732   N     0.94801   0.10722   0.93097   0.00000  Uiso   1.00
N733   N     0.60962   0.99937   0.69812   0.00000  Uiso   1.00
N734   N     0.55966   0.22875   0.05614   0.00000  Uiso   1.00
N735   N     0.94182   0.17989   0.87525   0.00000  Uiso   1.00
N736   N     0.60343   0.07205   0.64240   0.00000  Uiso   1.00
