data_job_01865
_audit_creation_date              2018-12-19
_audit_creation_method            'Materials Studio'
_symmetry_space_group_name_H-M    'P1'
_symmetry_Int_Tables_number       1
_symmetry_cell_setting            triclinic
loop_
_symmetry_equiv_pos_as_xyz
  x,y,z
_cell_length_a                    34.3903
_cell_length_b                    26.7137
_cell_length_c                    24.0690
_cell_angle_alpha                 90.0000
_cell_angle_beta                  135.5944
_cell_angle_gamma                 90.0000
loop_
_atom_site_label
_atom_site_type_symbol
_atom_site_fract_x
_atom_site_fract_y
_atom_site_fract_z
_atom_site_U_iso_or_equiv
_atom_site_adp_type
_atom_site_occupancy
C1     C     0.70140   0.87033   0.22418   0.00000  Uiso   1.00
C2     C     0.66448   0.83857   0.14895   0.00000  Uiso   1.00
C3     C     0.61977   0.80967   0.12054   0.00000  Uiso   1.00
C4     C     0.59126   0.78334   0.05068   0.00000  Uiso   1.00
C5     C     0.53157   0.73363   0.93997   0.00000  Uiso   1.00
C6     C     0.76067   0.85220   0.27485   0.00000  Uiso   1.00
C7     C     0.79684   0.83476   0.35229   0.00000  Uiso   1.00
C8     C     0.84931   0.81991   0.38842   0.00000  Uiso   1.00
C9     C     0.93897   0.79138   0.47318   0.00000  Uiso   1.00
C10    C     0.69883   0.92339   0.19834   0.00000  Uiso   1.00
C11    C     0.68301   0.96581   0.21148   0.00000  Uiso   1.00
C12    C     0.68343   0.01090   0.18321   0.00000  Uiso   1.00
C13    C     0.67707   0.09291   0.14920   0.00000  Uiso   1.00
C14    C     0.73028   0.87497   0.15063   0.00000  Uiso   1.00
C15    C     0.68017   0.84110   0.10900   0.00000  Uiso   1.00
C16    C     0.65172   0.81481   0.03917   0.00000  Uiso   1.00
C17    C     0.60697   0.78587   0.01066   0.00000  Uiso   1.00
C18    C     0.77636   0.85472   0.23490   0.00000  Uiso   1.00
C19    C     0.82879   0.83989   0.27092   0.00000  Uiso   1.00
C20    C     0.86503   0.82243   0.34840   0.00000  Uiso   1.00
C21    C     0.71452   0.92591   0.15839   0.00000  Uiso   1.00
C22    C     0.71497   0.97095   0.13011   0.00000  Uiso   1.00
C23    C     0.69915   0.01343   0.14320   0.00000  Uiso   1.00
H24    H     0.68919   0.86837   0.25528   0.00000  Uiso   1.00
H25    H     0.60764   0.80773   0.15147   0.00000  Uiso   1.00
H26    H     0.78469   0.83282   0.38319   0.00000  Uiso   1.00
H27    H     0.67088   0.96385   0.24240   0.00000  Uiso   1.00
H28    H     0.52417   0.74160   0.01878   0.00000  Uiso   1.00
H29    H     0.89748   0.79451   0.50738   0.00000  Uiso   1.00
H30    H     0.65749   0.07082   0.21049   0.00000  Uiso   1.00
H31    H     0.74250   0.87693   0.11953   0.00000  Uiso   1.00
H32    H     0.66387   0.81676   0.00827   0.00000  Uiso   1.00
H33    H     0.84092   0.84185   0.23999   0.00000  Uiso   1.00
H34    H     0.72711   0.97288   0.09920   0.00000  Uiso   1.00
H35    H     0.56981   0.74893   0.90256   0.00000  Uiso   1.00
H36    H     0.94313   0.80185   0.39116   0.00000  Uiso   1.00
H37    H     0.70313   0.07815   0.09427   0.00000  Uiso   1.00
O38    O     0.49432   0.70551   0.88994   0.00000  Uiso   1.00
O39    O     0.98410   0.77495   0.53097   0.00000  Uiso   1.00
O40    O     0.66923   0.13745   0.14146   0.00000  Uiso   1.00
N41    N     0.54569   0.75159   0.00669   0.00000  Uiso   1.00
N42    N     0.89472   0.80105   0.46350   0.00000  Uiso   1.00
N43    N     0.67036   0.05938   0.18595   0.00000  Uiso   1.00
N44    N     0.57025   0.75553   0.94415   0.00000  Uiso   1.00
N45    N     0.91928   0.80500   0.40096   0.00000  Uiso   1.00
N46    N     0.69492   0.06332   0.12341   0.00000  Uiso   1.00
C47    C     0.92564   0.13327   0.47232   0.00000  Uiso   1.00
C48    C     0.88886   0.10911   0.47884   0.00000  Uiso   1.00
C49    C     0.90644   0.09199   0.54830   0.00000  Uiso   1.00
C50    C     0.86637   0.07104   0.54179   0.00000  Uiso   1.00
C51    C     0.81772   0.03405   0.56307   0.00000  Uiso   1.00
C52    C     0.91825   0.10198   0.41230   0.00000  Uiso   1.00
C53    C     0.96055   0.07887   0.42583   0.00000  Uiso   1.00
C54    C     0.94523   0.05192   0.36331   0.00000  Uiso   1.00
C55    C     0.94221   0.00390   0.28128   0.00000  Uiso   1.00
C56    C     0.89964   0.18409   0.43323   0.00000  Uiso   1.00
C57    C     0.92630   0.23002   0.46435   0.00000  Uiso   1.00
C58    C     0.89531   0.27220   0.41944   0.00000  Uiso   1.00
C59    C     0.86340   0.35166   0.36990   0.00000  Uiso   1.00
C60    C     0.82323   0.12650   0.33722   0.00000  Uiso   1.00
C61    C     0.83323   0.10543   0.40545   0.00000  Uiso   1.00
C62    C     0.79313   0.08450   0.39883   0.00000  Uiso   1.00
C63    C     0.81065   0.06735   0.46828   0.00000  Uiso   1.00
C64    C     0.86262   0.09830   0.33893   0.00000  Uiso   1.00
C65    C     0.84724   0.07138   0.27636   0.00000  Uiso   1.00
C66    C     0.88950   0.04824   0.28980   0.00000  Uiso   1.00
C67    C     0.84401   0.18041   0.35985   0.00000  Uiso   1.00
C68    C     0.81298   0.22253   0.31488   0.00000  Uiso   1.00
C69    C     0.83958   0.26852   0.34592   0.00000  Uiso   1.00
H70    H     0.96895   0.13614   0.52945   0.00000  Uiso   1.00
H71    H     0.94949   0.09484   0.60508   0.00000  Uiso   1.00
H72    H     0.00359   0.08173   0.48262   0.00000  Uiso   1.00
H73    H     0.96934   0.23286   0.52114   0.00000  Uiso   1.00
H74    H     0.90339   0.04742   0.65657   0.00000  Uiso   1.00
H75    H     0.01747   0.01979   0.39836   0.00000  Uiso   1.00
H76    H     0.94525   0.33846   0.47957   0.00000  Uiso   1.00
H77    H     0.77992   0.12363   0.28009   0.00000  Uiso   1.00
H78    H     0.75008   0.08165   0.34204   0.00000  Uiso   1.00
H79    H     0.80419   0.06854   0.21958   0.00000  Uiso   1.00
H80    H     0.76994   0.21966   0.25810   0.00000  Uiso   1.00
H81    H     0.74154   0.03671   0.44308   0.00000  Uiso   1.00
H82    H     0.85562   0.00908   0.18486   0.00000  Uiso   1.00
H83    H     0.78340   0.32776   0.26607   0.00000  Uiso   1.00
O84    O     0.80625   0.01466   0.59507   0.00000  Uiso   1.00
O85    O     0.95592   0.97842   0.25630   0.00000  Uiso   1.00
O86    O     0.86117   0.39651   0.36285   0.00000  Uiso   1.00
N87    N     0.86939   0.05067   0.59782   0.00000  Uiso   1.00
N88    N     0.97605   0.02483   0.35642   0.00000  Uiso   1.00
N89    N     0.90853   0.32276   0.43233   0.00000  Uiso   1.00
N90    N     0.78230   0.04491   0.48294   0.00000  Uiso   1.00
N91    N     0.88896   0.01907   0.24154   0.00000  Uiso   1.00
N92    N     0.82144   0.31700   0.31745   0.00000  Uiso   1.00
C93    C     0.65707   0.87730   0.36599   0.00000  Uiso   1.00
C94    C     0.70283   0.85575   0.44943   0.00000  Uiso   1.00
C95    C     0.75492   0.84036   0.48470   0.00000  Uiso   1.00
C96    C     0.79088   0.82169   0.56148   0.00000  Uiso   1.00
C97    C     0.86430   0.78869   0.68494   0.00000  Uiso   1.00
C98    C     0.60633   0.84408   0.32320   0.00000  Uiso   1.00
C99    C     0.57727   0.81888   0.25232   0.00000  Uiso   1.00
C100   C     0.53200   0.79040   0.22283   0.00000  Uiso   1.00
C101   C     0.45557   0.73931   0.15028   0.00000  Uiso   1.00
C102   C     0.64235   0.92810   0.37582   0.00000  Uiso   1.00
C103   C     0.64357   0.97355   0.34917   0.00000  Uiso   1.00
C104   C     0.62861   0.01582   0.36396   0.00000  Uiso   1.00
C105   C     0.60812   0.09518   0.37311   0.00000  Uiso   1.00
C106   C     0.62832   0.87152   0.43964   0.00000  Uiso   1.00
C107   C     0.68721   0.85261   0.48943   0.00000  Uiso   1.00
C108   C     0.72311   0.83397   0.56618   0.00000  Uiso   1.00
C109   C     0.77524   0.81855   0.60155   0.00000  Uiso   1.00
C110   C     0.59071   0.84094   0.36319   0.00000  Uiso   1.00
C111   C     0.54546   0.81250   0.33380   0.00000  Uiso   1.00
C112   C     0.51635   0.78726   0.26290   0.00000  Uiso   1.00
C113   C     0.62673   0.92497   0.41582   0.00000  Uiso   1.00
C114   C     0.61177   0.96717   0.43065   0.00000  Uiso   1.00
C115   C     0.61297   0.01268   0.40404   0.00000  Uiso   1.00
H116   H     0.66923   0.87973   0.33485   0.00000  Uiso   1.00
H117   H     0.76699   0.84278   0.45372   0.00000  Uiso   1.00
H118   H     0.58937   0.82132   0.22138   0.00000  Uiso   1.00
H119   H     0.65566   0.97597   0.31821   0.00000  Uiso   1.00
H120   H     0.86848   0.80042   0.60314   0.00000  Uiso   1.00
H121   H     0.49395   0.75517   0.11322   0.00000  Uiso   1.00
H122   H     0.63373   0.08128   0.31741   0.00000  Uiso   1.00
H123   H     0.61616   0.86908   0.47078   0.00000  Uiso   1.00
H124   H     0.71101   0.83155   0.59712   0.00000  Uiso   1.00
H125   H     0.53339   0.81008   0.36477   0.00000  Uiso   1.00
H126   H     0.59968   0.96473   0.46161   0.00000  Uiso   1.00
H127   H     0.82304   0.79130   0.71953   0.00000  Uiso   1.00
H128   H     0.44851   0.74605   0.22960   0.00000  Uiso   1.00
H129   H     0.58830   0.07215   0.43380   0.00000  Uiso   1.00
O130   O     0.90911   0.77134   0.74198   0.00000  Uiso   1.00
O131   O     0.41773   0.71199   0.09921   0.00000  Uiso   1.00
O132   O     0.60113   0.13983   0.36712   0.00000  Uiso   1.00
N133   N     0.84477   0.80343   0.61320   0.00000  Uiso   1.00
N134   N     0.49461   0.76112   0.15515   0.00000  Uiso   1.00
N135   N     0.62529   0.06600   0.34605   0.00000  Uiso   1.00
N136   N     0.82032   0.79852   0.67583   0.00000  Uiso   1.00
N137   N     0.47017   0.75622   0.21778   0.00000  Uiso   1.00
N138   N     0.60084   0.06109   0.40867   0.00000  Uiso   1.00
C139   C     0.11067   0.12555   0.72116   0.00000  Uiso   1.00
C140   C     0.14944   0.09886   0.72031   0.00000  Uiso   1.00
C141   C     0.13355   0.07534   0.65520   0.00000  Uiso   1.00
C142   C     0.17528   0.05306   0.66656   0.00000  Uiso   1.00
C143   C     0.22702   0.01141   0.65403   0.00000  Uiso   1.00
C144   C     0.11965   0.10064   0.78662   0.00000  Uiso   1.00
C145   C     0.07870   0.07862   0.77726   0.00000  Uiso   1.00
C146   C     0.09536   0.05786   0.84445   0.00000  Uiso   1.00
C147   C     0.10084   0.01901   0.93487   0.00000  Uiso   1.00
C148   C     0.13308   0.17869   0.74973   0.00000  Uiso   1.00
C149   C     0.10341   0.22231   0.70935   0.00000  Uiso   1.00
C150   C     0.13137   0.26726   0.74549   0.00000  Uiso   1.00
C151   C     0.15769   0.34960   0.77862   0.00000  Uiso   1.00
C152   C     0.21305   0.12782   0.85714   0.00000  Uiso   1.00
C153   C     0.20505   0.10009   0.79417   0.00000  Uiso   1.00
C154   C     0.24682   0.07785   0.80564   0.00000  Uiso   1.00
C155   C     0.23099   0.05430   0.74055   0.00000  Uiso   1.00
C156   C     0.17526   0.10187   0.86048   0.00000  Uiso   1.00
C157   C     0.19198   0.08114   0.92770   0.00000  Uiso   1.00
C158   C     0.15107   0.05909   0.91844   0.00000  Uiso   1.00
C159   C     0.18869   0.17993   0.82359   0.00000  Uiso   1.00
C160   C     0.21669   0.22482   0.85980   0.00000  Uiso   1.00
C161   C     0.18708   0.26849   0.81948   0.00000  Uiso   1.00
H162   H     0.06737   0.12458   0.66366   0.00000  Uiso   1.00
H163   H     0.09050   0.07438   0.59805   0.00000  Uiso   1.00
H164   H     0.03567   0.07768   0.72009   0.00000  Uiso   1.00
H165   H     0.06038   0.22134   0.65219   0.00000  Uiso   1.00
H166   H     0.14067   0.01926   0.55789   0.00000  Uiso   1.00
H167   H     0.02505   0.02622   0.81523   0.00000  Uiso   1.00
H168   H     0.07715   0.32915   0.67205   0.00000  Uiso   1.00
H169   H     0.25635   0.12878   0.91465   0.00000  Uiso   1.00
H170   H     0.28985   0.07881   0.86281   0.00000  Uiso   1.00
H171   H     0.23502   0.08210   0.98485   0.00000  Uiso   1.00
H172   H     0.25972   0.22576   0.91695   0.00000  Uiso   1.00
H173   H     0.30247   0.02285   0.77278   0.00000  Uiso   1.00
H174   H     0.18685   0.02981   0.03012   0.00000  Uiso   1.00
H175   H     0.23894   0.33274   0.88694   0.00000  Uiso   1.00
O176   O     0.24020   0.98809   0.62671   0.00000  Uiso   1.00
O177   O     0.08850   0.99723   0.96433   0.00000  Uiso   1.00
O178   O     0.15685   0.39467   0.77649   0.00000  Uiso   1.00
N179   N     0.17415   0.02697   0.61557   0.00000  Uiso   1.00
N180   N     0.06606   0.03347   0.85617   0.00000  Uiso   1.00
N181   N     0.11476   0.31669   0.72232   0.00000  Uiso   1.00
N182   N     0.26122   0.02890   0.73120   0.00000  Uiso   1.00
N183   N     0.15312   0.03540   0.97180   0.00000  Uiso   1.00
N184   N     0.20182   0.31862   0.83795   0.00000  Uiso   1.00
C185   C     0.20140   0.37033   0.22418   0.00000  Uiso   1.00
C186   C     0.16448   0.33857   0.14895   0.00000  Uiso   1.00
C187   C     0.11977   0.30967   0.12054   0.00000  Uiso   1.00
C188   C     0.09126   0.28334   0.05068   0.00000  Uiso   1.00
C189   C     0.03157   0.23363   0.93997   0.00000  Uiso   1.00
C190   C     0.26067   0.35220   0.27485   0.00000  Uiso   1.00
C191   C     0.29684   0.33476   0.35229   0.00000  Uiso   1.00
C192   C     0.34931   0.31991   0.38842   0.00000  Uiso   1.00
C193   C     0.43897   0.29138   0.47318   0.00000  Uiso   1.00
C194   C     0.19883   0.42339   0.19834   0.00000  Uiso   1.00
C195   C     0.18301   0.46581   0.21148   0.00000  Uiso   1.00
C196   C     0.18343   0.51090   0.18321   0.00000  Uiso   1.00
C197   C     0.17707   0.59291   0.14920   0.00000  Uiso   1.00
C198   C     0.23028   0.37497   0.15063   0.00000  Uiso   1.00
C199   C     0.18017   0.34110   0.10900   0.00000  Uiso   1.00
C200   C     0.15172   0.31481   0.03917   0.00000  Uiso   1.00
C201   C     0.10697   0.28587   0.01066   0.00000  Uiso   1.00
C202   C     0.27636   0.35472   0.23490   0.00000  Uiso   1.00
C203   C     0.32879   0.33989   0.27092   0.00000  Uiso   1.00
C204   C     0.36503   0.32243   0.34840   0.00000  Uiso   1.00
C205   C     0.21452   0.42591   0.15839   0.00000  Uiso   1.00
C206   C     0.21497   0.47095   0.13011   0.00000  Uiso   1.00
C207   C     0.19915   0.51343   0.14320   0.00000  Uiso   1.00
H208   H     0.18919   0.36837   0.25528   0.00000  Uiso   1.00
H209   H     0.10764   0.30773   0.15147   0.00000  Uiso   1.00
H210   H     0.28469   0.33282   0.38319   0.00000  Uiso   1.00
H211   H     0.17088   0.46385   0.24240   0.00000  Uiso   1.00
H212   H     0.02417   0.24160   0.01878   0.00000  Uiso   1.00
H213   H     0.39748   0.29451   0.50738   0.00000  Uiso   1.00
H214   H     0.15749   0.57082   0.21049   0.00000  Uiso   1.00
H215   H     0.24250   0.37693   0.11953   0.00000  Uiso   1.00
H216   H     0.16387   0.31676   0.00827   0.00000  Uiso   1.00
H217   H     0.34092   0.34185   0.23999   0.00000  Uiso   1.00
H218   H     0.22711   0.47288   0.09920   0.00000  Uiso   1.00
H219   H     0.06981   0.24893   0.90256   0.00000  Uiso   1.00
H220   H     0.44313   0.30185   0.39116   0.00000  Uiso   1.00
H221   H     0.20313   0.57815   0.09427   0.00000  Uiso   1.00
O222   O     0.99432   0.20551   0.88994   0.00000  Uiso   1.00
O223   O     0.48410   0.27495   0.53097   0.00000  Uiso   1.00
O224   O     0.16923   0.63745   0.14146   0.00000  Uiso   1.00
N225   N     0.04569   0.25159   0.00669   0.00000  Uiso   1.00
N226   N     0.39472   0.30105   0.46350   0.00000  Uiso   1.00
N227   N     0.17036   0.55938   0.18595   0.00000  Uiso   1.00
N228   N     0.07025   0.25553   0.94415   0.00000  Uiso   1.00
N229   N     0.41928   0.30500   0.40096   0.00000  Uiso   1.00
N230   N     0.19492   0.56332   0.12341   0.00000  Uiso   1.00
C231   C     0.42564   0.63327   0.47232   0.00000  Uiso   1.00
C232   C     0.38886   0.60911   0.47884   0.00000  Uiso   1.00
C233   C     0.40644   0.59199   0.54830   0.00000  Uiso   1.00
C234   C     0.36637   0.57104   0.54179   0.00000  Uiso   1.00
C235   C     0.31772   0.53405   0.56307   0.00000  Uiso   1.00
C236   C     0.41825   0.60198   0.41230   0.00000  Uiso   1.00
C237   C     0.46055   0.57887   0.42583   0.00000  Uiso   1.00
C238   C     0.44523   0.55192   0.36331   0.00000  Uiso   1.00
C239   C     0.44221   0.50390   0.28128   0.00000  Uiso   1.00
C240   C     0.39964   0.68409   0.43323   0.00000  Uiso   1.00
C241   C     0.42630   0.73002   0.46435   0.00000  Uiso   1.00
C242   C     0.39531   0.77220   0.41944   0.00000  Uiso   1.00
C243   C     0.36340   0.85166   0.36990   0.00000  Uiso   1.00
C244   C     0.32323   0.62650   0.33722   0.00000  Uiso   1.00
C245   C     0.33323   0.60543   0.40545   0.00000  Uiso   1.00
C246   C     0.29313   0.58450   0.39883   0.00000  Uiso   1.00
C247   C     0.31065   0.56735   0.46828   0.00000  Uiso   1.00
C248   C     0.36262   0.59830   0.33893   0.00000  Uiso   1.00
C249   C     0.34724   0.57138   0.27636   0.00000  Uiso   1.00
C250   C     0.38950   0.54824   0.28980   0.00000  Uiso   1.00
C251   C     0.34401   0.68041   0.35985   0.00000  Uiso   1.00
C252   C     0.31298   0.72253   0.31488   0.00000  Uiso   1.00
C253   C     0.33958   0.76852   0.34592   0.00000  Uiso   1.00
H254   H     0.46895   0.63614   0.52945   0.00000  Uiso   1.00
H255   H     0.44949   0.59484   0.60508   0.00000  Uiso   1.00
H256   H     0.50359   0.58173   0.48262   0.00000  Uiso   1.00
H257   H     0.46934   0.73286   0.52114   0.00000  Uiso   1.00
H258   H     0.40339   0.54742   0.65657   0.00000  Uiso   1.00
H259   H     0.51747   0.51979   0.39836   0.00000  Uiso   1.00
H260   H     0.44525   0.83846   0.47957   0.00000  Uiso   1.00
H261   H     0.27992   0.62363   0.28009   0.00000  Uiso   1.00
H262   H     0.25008   0.58165   0.34204   0.00000  Uiso   1.00
H263   H     0.30419   0.56854   0.21958   0.00000  Uiso   1.00
H264   H     0.26994   0.71966   0.25810   0.00000  Uiso   1.00
H265   H     0.24154   0.53671   0.44308   0.00000  Uiso   1.00
H266   H     0.35562   0.50908   0.18486   0.00000  Uiso   1.00
H267   H     0.28340   0.82776   0.26607   0.00000  Uiso   1.00
O268   O     0.30625   0.51466   0.59507   0.00000  Uiso   1.00
O269   O     0.45592   0.47842   0.25630   0.00000  Uiso   1.00
O270   O     0.36117   0.89651   0.36285   0.00000  Uiso   1.00
N271   N     0.36939   0.55067   0.59782   0.00000  Uiso   1.00
N272   N     0.47605   0.52483   0.35642   0.00000  Uiso   1.00
N273   N     0.40853   0.82276   0.43233   0.00000  Uiso   1.00
N274   N     0.28230   0.54491   0.48294   0.00000  Uiso   1.00
N275   N     0.38896   0.51907   0.24154   0.00000  Uiso   1.00
N276   N     0.32144   0.81700   0.31745   0.00000  Uiso   1.00
C277   C     0.15707   0.37730   0.36599   0.00000  Uiso   1.00
C278   C     0.20283   0.35575   0.44943   0.00000  Uiso   1.00
C279   C     0.25492   0.34036   0.48470   0.00000  Uiso   1.00
C280   C     0.29088   0.32169   0.56148   0.00000  Uiso   1.00
C281   C     0.36430   0.28869   0.68494   0.00000  Uiso   1.00
C282   C     0.10633   0.34408   0.32320   0.00000  Uiso   1.00
C283   C     0.07727   0.31888   0.25232   0.00000  Uiso   1.00
C284   C     0.03200   0.29040   0.22283   0.00000  Uiso   1.00
C285   C     0.95557   0.23931   0.15028   0.00000  Uiso   1.00
C286   C     0.14235   0.42810   0.37582   0.00000  Uiso   1.00
C287   C     0.14357   0.47355   0.34917   0.00000  Uiso   1.00
C288   C     0.12861   0.51582   0.36396   0.00000  Uiso   1.00
C289   C     0.10812   0.59518   0.37311   0.00000  Uiso   1.00
C290   C     0.12832   0.37152   0.43964   0.00000  Uiso   1.00
C291   C     0.18721   0.35261   0.48943   0.00000  Uiso   1.00
C292   C     0.22311   0.33397   0.56618   0.00000  Uiso   1.00
C293   C     0.27524   0.31855   0.60155   0.00000  Uiso   1.00
C294   C     0.09071   0.34094   0.36319   0.00000  Uiso   1.00
C295   C     0.04546   0.31250   0.33380   0.00000  Uiso   1.00
C296   C     0.01635   0.28726   0.26290   0.00000  Uiso   1.00
C297   C     0.12673   0.42497   0.41582   0.00000  Uiso   1.00
C298   C     0.11177   0.46717   0.43065   0.00000  Uiso   1.00
C299   C     0.11297   0.51268   0.40404   0.00000  Uiso   1.00
H300   H     0.16923   0.37973   0.33485   0.00000  Uiso   1.00
H301   H     0.26699   0.34278   0.45372   0.00000  Uiso   1.00
H302   H     0.08937   0.32132   0.22138   0.00000  Uiso   1.00
H303   H     0.15566   0.47597   0.31821   0.00000  Uiso   1.00
H304   H     0.36848   0.30042   0.60314   0.00000  Uiso   1.00
H305   H     0.99395   0.25517   0.11322   0.00000  Uiso   1.00
H306   H     0.13373   0.58128   0.31741   0.00000  Uiso   1.00
H307   H     0.11616   0.36908   0.47078   0.00000  Uiso   1.00
H308   H     0.21101   0.33155   0.59712   0.00000  Uiso   1.00
H309   H     0.03339   0.31008   0.36477   0.00000  Uiso   1.00
H310   H     0.09968   0.46473   0.46161   0.00000  Uiso   1.00
H311   H     0.32304   0.29130   0.71953   0.00000  Uiso   1.00
H312   H     0.94851   0.24605   0.22960   0.00000  Uiso   1.00
H313   H     0.08830   0.57215   0.43380   0.00000  Uiso   1.00
O314   O     0.40911   0.27134   0.74198   0.00000  Uiso   1.00
O315   O     0.91773   0.21199   0.09921   0.00000  Uiso   1.00
O316   O     0.10113   0.63983   0.36712   0.00000  Uiso   1.00
N317   N     0.34477   0.30343   0.61320   0.00000  Uiso   1.00
N318   N     0.99461   0.26112   0.15515   0.00000  Uiso   1.00
N319   N     0.12529   0.56600   0.34605   0.00000  Uiso   1.00
N320   N     0.32032   0.29852   0.67583   0.00000  Uiso   1.00
N321   N     0.97017   0.25622   0.21778   0.00000  Uiso   1.00
N322   N     0.10084   0.56109   0.40867   0.00000  Uiso   1.00
C323   C     0.61067   0.62555   0.72116   0.00000  Uiso   1.00
C324   C     0.64944   0.59886   0.72031   0.00000  Uiso   1.00
C325   C     0.63355   0.57534   0.65520   0.00000  Uiso   1.00
C326   C     0.67528   0.55306   0.66656   0.00000  Uiso   1.00
C327   C     0.72702   0.51141   0.65403   0.00000  Uiso   1.00
C328   C     0.61965   0.60064   0.78662   0.00000  Uiso   1.00
C329   C     0.57870   0.57862   0.77726   0.00000  Uiso   1.00
C330   C     0.59536   0.55786   0.84445   0.00000  Uiso   1.00
C331   C     0.60084   0.51901   0.93487   0.00000  Uiso   1.00
C332   C     0.63308   0.67869   0.74973   0.00000  Uiso   1.00
C333   C     0.60341   0.72231   0.70935   0.00000  Uiso   1.00
C334   C     0.63137   0.76726   0.74549   0.00000  Uiso   1.00
C335   C     0.65769   0.84960   0.77862   0.00000  Uiso   1.00
C336   C     0.71305   0.62782   0.85714   0.00000  Uiso   1.00
C337   C     0.70505   0.60009   0.79417   0.00000  Uiso   1.00
C338   C     0.74682   0.57785   0.80564   0.00000  Uiso   1.00
C339   C     0.73099   0.55430   0.74055   0.00000  Uiso   1.00
C340   C     0.67526   0.60187   0.86048   0.00000  Uiso   1.00
C341   C     0.69198   0.58114   0.92770   0.00000  Uiso   1.00
C342   C     0.65107   0.55909   0.91844   0.00000  Uiso   1.00
C343   C     0.68869   0.67993   0.82359   0.00000  Uiso   1.00
C344   C     0.71669   0.72482   0.85980   0.00000  Uiso   1.00
C345   C     0.68708   0.76849   0.81948   0.00000  Uiso   1.00
H346   H     0.56737   0.62458   0.66366   0.00000  Uiso   1.00
H347   H     0.59050   0.57438   0.59805   0.00000  Uiso   1.00
H348   H     0.53567   0.57768   0.72009   0.00000  Uiso   1.00
H349   H     0.56038   0.72134   0.65219   0.00000  Uiso   1.00
H350   H     0.64067   0.51926   0.55789   0.00000  Uiso   1.00
H351   H     0.52505   0.52622   0.81523   0.00000  Uiso   1.00
H352   H     0.57715   0.82915   0.67205   0.00000  Uiso   1.00
H353   H     0.75635   0.62878   0.91465   0.00000  Uiso   1.00
H354   H     0.78985   0.57881   0.86281   0.00000  Uiso   1.00
H355   H     0.73502   0.58210   0.98485   0.00000  Uiso   1.00
H356   H     0.75972   0.72576   0.91695   0.00000  Uiso   1.00
H357   H     0.80247   0.52285   0.77278   0.00000  Uiso   1.00
H358   H     0.68685   0.52981   0.03012   0.00000  Uiso   1.00
H359   H     0.73894   0.83274   0.88694   0.00000  Uiso   1.00
O360   O     0.74020   0.48809   0.62671   0.00000  Uiso   1.00
O361   O     0.58850   0.49723   0.96433   0.00000  Uiso   1.00
O362   O     0.65685   0.89467   0.77649   0.00000  Uiso   1.00
N363   N     0.67415   0.52697   0.61557   0.00000  Uiso   1.00
N364   N     0.56606   0.53347   0.85617   0.00000  Uiso   1.00
N365   N     0.61476   0.81669   0.72232   0.00000  Uiso   1.00
N366   N     0.76122   0.52890   0.73120   0.00000  Uiso   1.00
N367   N     0.65312   0.53540   0.97180   0.00000  Uiso   1.00
N368   N     0.70182   0.81862   0.83795   0.00000  Uiso   1.00
C369   C     0.70140   0.12967   0.72418   0.00000  Uiso   1.00
C370   C     0.66448   0.16143   0.64895   0.00000  Uiso   1.00
C371   C     0.61977   0.19033   0.62054   0.00000  Uiso   1.00
C372   C     0.59126   0.21666   0.55068   0.00000  Uiso   1.00
C373   C     0.53157   0.26637   0.43997   0.00000  Uiso   1.00
C374   C     0.76067   0.14780   0.77485   0.00000  Uiso   1.00
C375   C     0.79684   0.16524   0.85229   0.00000  Uiso   1.00
C376   C     0.84931   0.18009   0.88842   0.00000  Uiso   1.00
C377   C     0.93897   0.20862   0.97318   0.00000  Uiso   1.00
C378   C     0.69883   0.07661   0.69834   0.00000  Uiso   1.00
C379   C     0.68301   0.03419   0.71148   0.00000  Uiso   1.00
C380   C     0.68343   0.98910   0.68321   0.00000  Uiso   1.00
C381   C     0.67707   0.90709   0.64920   0.00000  Uiso   1.00
C382   C     0.73028   0.12503   0.65063   0.00000  Uiso   1.00
C383   C     0.68017   0.15890   0.60900   0.00000  Uiso   1.00
C384   C     0.65172   0.18519   0.53917   0.00000  Uiso   1.00
C385   C     0.60697   0.21413   0.51066   0.00000  Uiso   1.00
C386   C     0.77636   0.14528   0.73490   0.00000  Uiso   1.00
C387   C     0.82879   0.16011   0.77092   0.00000  Uiso   1.00
C388   C     0.86503   0.17757   0.84840   0.00000  Uiso   1.00
C389   C     0.71452   0.07409   0.65839   0.00000  Uiso   1.00
C390   C     0.71497   0.02905   0.63011   0.00000  Uiso   1.00
C391   C     0.69915   0.98657   0.64320   0.00000  Uiso   1.00
H392   H     0.68919   0.13163   0.75528   0.00000  Uiso   1.00
H393   H     0.60764   0.19227   0.65147   0.00000  Uiso   1.00
H394   H     0.78469   0.16718   0.88319   0.00000  Uiso   1.00
H395   H     0.67088   0.03615   0.74240   0.00000  Uiso   1.00
H396   H     0.52417   0.25840   0.51878   0.00000  Uiso   1.00
H397   H     0.89748   0.20549   0.00738   0.00000  Uiso   1.00
H398   H     0.65749   0.92918   0.71049   0.00000  Uiso   1.00
H399   H     0.74250   0.12307   0.61953   0.00000  Uiso   1.00
H400   H     0.66387   0.18324   0.50827   0.00000  Uiso   1.00
H401   H     0.84092   0.15815   0.73999   0.00000  Uiso   1.00
H402   H     0.72711   0.02712   0.59920   0.00000  Uiso   1.00
H403   H     0.56981   0.25107   0.40256   0.00000  Uiso   1.00
H404   H     0.94313   0.19815   0.89116   0.00000  Uiso   1.00
H405   H     0.70313   0.92185   0.59427   0.00000  Uiso   1.00
O406   O     0.49432   0.29449   0.38994   0.00000  Uiso   1.00
O407   O     0.98410   0.22505   0.03097   0.00000  Uiso   1.00
O408   O     0.66923   0.86255   0.64146   0.00000  Uiso   1.00
N409   N     0.54569   0.24841   0.50669   0.00000  Uiso   1.00
N410   N     0.89472   0.19895   0.96350   0.00000  Uiso   1.00
N411   N     0.67036   0.94062   0.68595   0.00000  Uiso   1.00
N412   N     0.57025   0.24447   0.44415   0.00000  Uiso   1.00
N413   N     0.91928   0.19500   0.90096   0.00000  Uiso   1.00
N414   N     0.69492   0.93668   0.62341   0.00000  Uiso   1.00
C415   C     0.92564   0.86673   0.97232   0.00000  Uiso   1.00
C416   C     0.88886   0.89089   0.97884   0.00000  Uiso   1.00
C417   C     0.90644   0.90801   0.04830   0.00000  Uiso   1.00
C418   C     0.86637   0.92896   0.04179   0.00000  Uiso   1.00
C419   C     0.81772   0.96595   0.06307   0.00000  Uiso   1.00
C420   C     0.91825   0.89802   0.91230   0.00000  Uiso   1.00
C421   C     0.96055   0.92113   0.92583   0.00000  Uiso   1.00
C422   C     0.94523   0.94808   0.86331   0.00000  Uiso   1.00
C423   C     0.94221   0.99610   0.78128   0.00000  Uiso   1.00
C424   C     0.89964   0.81591   0.93323   0.00000  Uiso   1.00
C425   C     0.92630   0.76998   0.96435   0.00000  Uiso   1.00
C426   C     0.89531   0.72780   0.91944   0.00000  Uiso   1.00
C427   C     0.86340   0.64834   0.86990   0.00000  Uiso   1.00
C428   C     0.82323   0.87350   0.83722   0.00000  Uiso   1.00
C429   C     0.83323   0.89457   0.90545   0.00000  Uiso   1.00
C430   C     0.79313   0.91550   0.89883   0.00000  Uiso   1.00
C431   C     0.81065   0.93265   0.96828   0.00000  Uiso   1.00
C432   C     0.86262   0.90170   0.83893   0.00000  Uiso   1.00
C433   C     0.84724   0.92862   0.77636   0.00000  Uiso   1.00
C434   C     0.88950   0.95176   0.78980   0.00000  Uiso   1.00
C435   C     0.84401   0.81959   0.85985   0.00000  Uiso   1.00
C436   C     0.81298   0.77747   0.81488   0.00000  Uiso   1.00
C437   C     0.83958   0.73148   0.84592   0.00000  Uiso   1.00
H438   H     0.96895   0.86386   0.02945   0.00000  Uiso   1.00
H439   H     0.94949   0.90516   0.10508   0.00000  Uiso   1.00
H440   H     0.00359   0.91827   0.98262   0.00000  Uiso   1.00
H441   H     0.96934   0.76714   0.02114   0.00000  Uiso   1.00
H442   H     0.90339   0.95258   0.15657   0.00000  Uiso   1.00
H443   H     0.01747   0.98021   0.89836   0.00000  Uiso   1.00
H444   H     0.94525   0.66154   0.97957   0.00000  Uiso   1.00
H445   H     0.77992   0.87637   0.78009   0.00000  Uiso   1.00
H446   H     0.75008   0.91835   0.84204   0.00000  Uiso   1.00
H447   H     0.80419   0.93146   0.71958   0.00000  Uiso   1.00
H448   H     0.76994   0.78034   0.75810   0.00000  Uiso   1.00
H449   H     0.74154   0.96329   0.94308   0.00000  Uiso   1.00
H450   H     0.85562   0.99092   0.68486   0.00000  Uiso   1.00
H451   H     0.78340   0.67224   0.76607   0.00000  Uiso   1.00
O452   O     0.80625   0.98534   0.09507   0.00000  Uiso   1.00
O453   O     0.95592   0.02158   0.75630   0.00000  Uiso   1.00
O454   O     0.86117   0.60349   0.86285   0.00000  Uiso   1.00
N455   N     0.86939   0.94933   0.09782   0.00000  Uiso   1.00
N456   N     0.97605   0.97517   0.85642   0.00000  Uiso   1.00
N457   N     0.90853   0.67724   0.93233   0.00000  Uiso   1.00
N458   N     0.78230   0.95509   0.98294   0.00000  Uiso   1.00
N459   N     0.88896   0.98093   0.74154   0.00000  Uiso   1.00
N460   N     0.82144   0.68300   0.81745   0.00000  Uiso   1.00
C461   C     0.65707   0.12270   0.86599   0.00000  Uiso   1.00
C462   C     0.70283   0.14425   0.94943   0.00000  Uiso   1.00
C463   C     0.75492   0.15964   0.98470   0.00000  Uiso   1.00
C464   C     0.79088   0.17831   0.06148   0.00000  Uiso   1.00
C465   C     0.86430   0.21131   0.18494   0.00000  Uiso   1.00
C466   C     0.60633   0.15592   0.82320   0.00000  Uiso   1.00
C467   C     0.57727   0.18112   0.75232   0.00000  Uiso   1.00
C468   C     0.53200   0.20960   0.72283   0.00000  Uiso   1.00
C469   C     0.45557   0.26069   0.65028   0.00000  Uiso   1.00
C470   C     0.64235   0.07190   0.87582   0.00000  Uiso   1.00
C471   C     0.64357   0.02645   0.84917   0.00000  Uiso   1.00
C472   C     0.62861   0.98418   0.86396   0.00000  Uiso   1.00
C473   C     0.60812   0.90482   0.87311   0.00000  Uiso   1.00
C474   C     0.62832   0.12848   0.93964   0.00000  Uiso   1.00
C475   C     0.68721   0.14739   0.98943   0.00000  Uiso   1.00
C476   C     0.72311   0.16603   0.06618   0.00000  Uiso   1.00
C477   C     0.77524   0.18145   0.10155   0.00000  Uiso   1.00
C478   C     0.59071   0.15906   0.86319   0.00000  Uiso   1.00
C479   C     0.54546   0.18750   0.83380   0.00000  Uiso   1.00
C480   C     0.51635   0.21274   0.76290   0.00000  Uiso   1.00
C481   C     0.62673   0.07503   0.91582   0.00000  Uiso   1.00
C482   C     0.61177   0.03283   0.93065   0.00000  Uiso   1.00
C483   C     0.61297   0.98732   0.90404   0.00000  Uiso   1.00
H484   H     0.66923   0.12027   0.83485   0.00000  Uiso   1.00
H485   H     0.76699   0.15722   0.95372   0.00000  Uiso   1.00
H486   H     0.58937   0.17868   0.72138   0.00000  Uiso   1.00
H487   H     0.65566   0.02403   0.81821   0.00000  Uiso   1.00
H488   H     0.86848   0.19958   0.10314   0.00000  Uiso   1.00
H489   H     0.49395   0.24483   0.61322   0.00000  Uiso   1.00
H490   H     0.63373   0.91872   0.81741   0.00000  Uiso   1.00
H491   H     0.61616   0.13092   0.97078   0.00000  Uiso   1.00
H492   H     0.71101   0.16845   0.09712   0.00000  Uiso   1.00
H493   H     0.53339   0.18992   0.86477   0.00000  Uiso   1.00
H494   H     0.59968   0.03527   0.96161   0.00000  Uiso   1.00
H495   H     0.82304   0.20870   0.21953   0.00000  Uiso   1.00
H496   H     0.44851   0.25395   0.72960   0.00000  Uiso   1.00
H497   H     0.58830   0.92785   0.93380   0.00000  Uiso   1.00
O498   O     0.90911   0.22866   0.24198   0.00000  Uiso   1.00
O499   O     0.41773   0.28801   0.59921   0.00000  Uiso   1.00
O500   O     0.60113   0.86017   0.86712   0.00000  Uiso   1.00
N501   N     0.84477   0.19657   0.11320   0.00000  Uiso   1.00
N502   N     0.49461   0.23888   0.65515   0.00000  Uiso   1.00
N503   N     0.62529   0.93400   0.84605   0.00000  Uiso   1.00
N504   N     0.82032   0.20148   0.17583   0.00000  Uiso   1.00
N505   N     0.47017   0.24378   0.71778   0.00000  Uiso   1.00
N506   N     0.60084   0.93891   0.90867   0.00000  Uiso   1.00
C507   C     0.11067   0.87445   0.22116   0.00000  Uiso   1.00
C508   C     0.14944   0.90114   0.22031   0.00000  Uiso   1.00
C509   C     0.13355   0.92466   0.15520   0.00000  Uiso   1.00
C510   C     0.17528   0.94694   0.16656   0.00000  Uiso   1.00
C511   C     0.22702   0.98859   0.15403   0.00000  Uiso   1.00
C512   C     0.11965   0.89936   0.28662   0.00000  Uiso   1.00
C513   C     0.07870   0.92138   0.27726   0.00000  Uiso   1.00
C514   C     0.09536   0.94214   0.34445   0.00000  Uiso   1.00
C515   C     0.10084   0.98099   0.43487   0.00000  Uiso   1.00
C516   C     0.13308   0.82131   0.24973   0.00000  Uiso   1.00
C517   C     0.10341   0.77769   0.20935   0.00000  Uiso   1.00
C518   C     0.13137   0.73274   0.24549   0.00000  Uiso   1.00
C519   C     0.15769   0.65040   0.27862   0.00000  Uiso   1.00
C520   C     0.21305   0.87218   0.35714   0.00000  Uiso   1.00
C521   C     0.20505   0.89991   0.29417   0.00000  Uiso   1.00
C522   C     0.24682   0.92215   0.30564   0.00000  Uiso   1.00
C523   C     0.23099   0.94570   0.24055   0.00000  Uiso   1.00
C524   C     0.17526   0.89813   0.36048   0.00000  Uiso   1.00
C525   C     0.19198   0.91886   0.42770   0.00000  Uiso   1.00
C526   C     0.15107   0.94091   0.41844   0.00000  Uiso   1.00
C527   C     0.18869   0.82007   0.32359   0.00000  Uiso   1.00
C528   C     0.21669   0.77518   0.35980   0.00000  Uiso   1.00
C529   C     0.18708   0.73151   0.31948   0.00000  Uiso   1.00
H530   H     0.06737   0.87542   0.16366   0.00000  Uiso   1.00
H531   H     0.09050   0.92562   0.09805   0.00000  Uiso   1.00
H532   H     0.03567   0.92232   0.22009   0.00000  Uiso   1.00
H533   H     0.06038   0.77866   0.15219   0.00000  Uiso   1.00
H534   H     0.14067   0.98074   0.05789   0.00000  Uiso   1.00
H535   H     0.02505   0.97378   0.31523   0.00000  Uiso   1.00
H536   H     0.07715   0.67085   0.17205   0.00000  Uiso   1.00
H537   H     0.25635   0.87122   0.41465   0.00000  Uiso   1.00
H538   H     0.28985   0.92119   0.36281   0.00000  Uiso   1.00
H539   H     0.23502   0.91790   0.48485   0.00000  Uiso   1.00
H540   H     0.25972   0.77424   0.41695   0.00000  Uiso   1.00
H541   H     0.30247   0.97715   0.27278   0.00000  Uiso   1.00
H542   H     0.18685   0.97019   0.53012   0.00000  Uiso   1.00
H543   H     0.23894   0.66726   0.38694   0.00000  Uiso   1.00
O544   O     0.24020   0.01191   0.12671   0.00000  Uiso   1.00
O545   O     0.08850   0.00277   0.46433   0.00000  Uiso   1.00
O546   O     0.15685   0.60533   0.27649   0.00000  Uiso   1.00
N547   N     0.17415   0.97303   0.11557   0.00000  Uiso   1.00
N548   N     0.06606   0.96653   0.35617   0.00000  Uiso   1.00
N549   N     0.11476   0.68331   0.22232   0.00000  Uiso   1.00
N550   N     0.26122   0.97110   0.23120   0.00000  Uiso   1.00
N551   N     0.15312   0.96460   0.47180   0.00000  Uiso   1.00
N552   N     0.20182   0.68138   0.33795   0.00000  Uiso   1.00
C553   C     0.20140   0.62967   0.72418   0.00000  Uiso   1.00
C554   C     0.16448   0.66143   0.64895   0.00000  Uiso   1.00
C555   C     0.11977   0.69033   0.62054   0.00000  Uiso   1.00
C556   C     0.09126   0.71666   0.55068   0.00000  Uiso   1.00
C557   C     0.03157   0.76637   0.43997   0.00000  Uiso   1.00
C558   C     0.26067   0.64780   0.77485   0.00000  Uiso   1.00
C559   C     0.29684   0.66524   0.85229   0.00000  Uiso   1.00
C560   C     0.34931   0.68009   0.88842   0.00000  Uiso   1.00
C561   C     0.43897   0.70862   0.97318   0.00000  Uiso   1.00
C562   C     0.19883   0.57661   0.69834   0.00000  Uiso   1.00
C563   C     0.18301   0.53419   0.71148   0.00000  Uiso   1.00
C564   C     0.18343   0.48910   0.68321   0.00000  Uiso   1.00
C565   C     0.17707   0.40709   0.64920   0.00000  Uiso   1.00
C566   C     0.23028   0.62503   0.65063   0.00000  Uiso   1.00
C567   C     0.18017   0.65890   0.60900   0.00000  Uiso   1.00
C568   C     0.15172   0.68519   0.53917   0.00000  Uiso   1.00
C569   C     0.10697   0.71413   0.51066   0.00000  Uiso   1.00
C570   C     0.27636   0.64528   0.73490   0.00000  Uiso   1.00
C571   C     0.32879   0.66011   0.77092   0.00000  Uiso   1.00
C572   C     0.36503   0.67757   0.84840   0.00000  Uiso   1.00
C573   C     0.21452   0.57409   0.65839   0.00000  Uiso   1.00
C574   C     0.21497   0.52905   0.63011   0.00000  Uiso   1.00
C575   C     0.19915   0.48657   0.64320   0.00000  Uiso   1.00
H576   H     0.18919   0.63163   0.75528   0.00000  Uiso   1.00
H577   H     0.10764   0.69227   0.65147   0.00000  Uiso   1.00
H578   H     0.28469   0.66718   0.88319   0.00000  Uiso   1.00
H579   H     0.17088   0.53615   0.74240   0.00000  Uiso   1.00
H580   H     0.02417   0.75840   0.51878   0.00000  Uiso   1.00
H581   H     0.39748   0.70549   0.00738   0.00000  Uiso   1.00
H582   H     0.15749   0.42918   0.71049   0.00000  Uiso   1.00
H583   H     0.24250   0.62307   0.61953   0.00000  Uiso   1.00
H584   H     0.16387   0.68324   0.50827   0.00000  Uiso   1.00
H585   H     0.34092   0.65815   0.73999   0.00000  Uiso   1.00
H586   H     0.22711   0.52712   0.59920   0.00000  Uiso   1.00
H587   H     0.06981   0.75107   0.40256   0.00000  Uiso   1.00
H588   H     0.44313   0.69815   0.89116   0.00000  Uiso   1.00
H589   H     0.20313   0.42185   0.59427   0.00000  Uiso   1.00
O590   O     0.99432   0.79449   0.38994   0.00000  Uiso   1.00
O591   O     0.48410   0.72505   0.03097   0.00000  Uiso   1.00
O592   O     0.16923   0.36255   0.64146   0.00000  Uiso   1.00
N593   N     0.04569   0.74841   0.50669   0.00000  Uiso   1.00
N594   N     0.39472   0.69895   0.96350   0.00000  Uiso   1.00
N595   N     0.17036   0.44062   0.68595   0.00000  Uiso   1.00
N596   N     0.07025   0.74447   0.44415   0.00000  Uiso   1.00
N597   N     0.41928   0.69500   0.90096   0.00000  Uiso   1.00
N598   N     0.19492   0.43668   0.62341   0.00000  Uiso   1.00
C599   C     0.42564   0.36673   0.97232   0.00000  Uiso   1.00
C600   C     0.38886   0.39089   0.97884   0.00000  Uiso   1.00
C601   C     0.40644   0.40801   0.04830   0.00000  Uiso   1.00
C602   C     0.36637   0.42896   0.04179   0.00000  Uiso   1.00
C603   C     0.31772   0.46595   0.06307   0.00000  Uiso   1.00
C604   C     0.41825   0.39802   0.91230   0.00000  Uiso   1.00
C605   C     0.46055   0.42113   0.92583   0.00000  Uiso   1.00
C606   C     0.44523   0.44808   0.86331   0.00000  Uiso   1.00
C607   C     0.44221   0.49610   0.78128   0.00000  Uiso   1.00
C608   C     0.39964   0.31591   0.93323   0.00000  Uiso   1.00
C609   C     0.42630   0.26998   0.96435   0.00000  Uiso   1.00
C610   C     0.39531   0.22780   0.91944   0.00000  Uiso   1.00
C611   C     0.36340   0.14834   0.86990   0.00000  Uiso   1.00
C612   C     0.32323   0.37350   0.83722   0.00000  Uiso   1.00
C613   C     0.33323   0.39457   0.90545   0.00000  Uiso   1.00
C614   C     0.29313   0.41550   0.89883   0.00000  Uiso   1.00
C615   C     0.31065   0.43265   0.96828   0.00000  Uiso   1.00
C616   C     0.36262   0.40170   0.83893   0.00000  Uiso   1.00
C617   C     0.34724   0.42862   0.77636   0.00000  Uiso   1.00
C618   C     0.38950   0.45176   0.78980   0.00000  Uiso   1.00
C619   C     0.34401   0.31959   0.85985   0.00000  Uiso   1.00
C620   C     0.31298   0.27747   0.81488   0.00000  Uiso   1.00
C621   C     0.33958   0.23148   0.84592   0.00000  Uiso   1.00
H622   H     0.46895   0.36386   0.02945   0.00000  Uiso   1.00
H623   H     0.44949   0.40516   0.10508   0.00000  Uiso   1.00
H624   H     0.50359   0.41827   0.98262   0.00000  Uiso   1.00
H625   H     0.46934   0.26714   0.02114   0.00000  Uiso   1.00
H626   H     0.40339   0.45258   0.15657   0.00000  Uiso   1.00
H627   H     0.51747   0.48021   0.89836   0.00000  Uiso   1.00
H628   H     0.44525   0.16154   0.97957   0.00000  Uiso   1.00
H629   H     0.27992   0.37637   0.78009   0.00000  Uiso   1.00
H630   H     0.25008   0.41835   0.84204   0.00000  Uiso   1.00
H631   H     0.30419   0.43146   0.71958   0.00000  Uiso   1.00
H632   H     0.26994   0.28034   0.75810   0.00000  Uiso   1.00
H633   H     0.24154   0.46329   0.94308   0.00000  Uiso   1.00
H634   H     0.35562   0.49092   0.68486   0.00000  Uiso   1.00
H635   H     0.28340   0.17224   0.76607   0.00000  Uiso   1.00
O636   O     0.30625   0.48534   0.09507   0.00000  Uiso   1.00
O637   O     0.45592   0.52158   0.75630   0.00000  Uiso   1.00
O638   O     0.36117   0.10349   0.86285   0.00000  Uiso   1.00
N639   N     0.36939   0.44933   0.09782   0.00000  Uiso   1.00
N640   N     0.47605   0.47517   0.85642   0.00000  Uiso   1.00
N641   N     0.40853   0.17724   0.93233   0.00000  Uiso   1.00
N642   N     0.28230   0.45509   0.98294   0.00000  Uiso   1.00
N643   N     0.38896   0.48093   0.74154   0.00000  Uiso   1.00
N644   N     0.32144   0.18300   0.81745   0.00000  Uiso   1.00
C645   C     0.15707   0.62270   0.86599   0.00000  Uiso   1.00
C646   C     0.20283   0.64425   0.94943   0.00000  Uiso   1.00
C647   C     0.25492   0.65964   0.98470   0.00000  Uiso   1.00
C648   C     0.29088   0.67831   0.06148   0.00000  Uiso   1.00
C649   C     0.36430   0.71131   0.18494   0.00000  Uiso   1.00
C650   C     0.10633   0.65592   0.82320   0.00000  Uiso   1.00
C651   C     0.07727   0.68112   0.75232   0.00000  Uiso   1.00
C652   C     0.03200   0.70960   0.72283   0.00000  Uiso   1.00
C653   C     0.95557   0.76069   0.65028   0.00000  Uiso   1.00
C654   C     0.14235   0.57190   0.87582   0.00000  Uiso   1.00
C655   C     0.14357   0.52645   0.84917   0.00000  Uiso   1.00
C656   C     0.12861   0.48418   0.86396   0.00000  Uiso   1.00
C657   C     0.10812   0.40482   0.87311   0.00000  Uiso   1.00
C658   C     0.12832   0.62848   0.93964   0.00000  Uiso   1.00
C659   C     0.18721   0.64739   0.98943   0.00000  Uiso   1.00
C660   C     0.22311   0.66603   0.06618   0.00000  Uiso   1.00
C661   C     0.27524   0.68145   0.10155   0.00000  Uiso   1.00
C662   C     0.09071   0.65906   0.86319   0.00000  Uiso   1.00
C663   C     0.04546   0.68750   0.83380   0.00000  Uiso   1.00
C664   C     0.01635   0.71274   0.76290   0.00000  Uiso   1.00
C665   C     0.12673   0.57503   0.91582   0.00000  Uiso   1.00
C666   C     0.11177   0.53283   0.93065   0.00000  Uiso   1.00
C667   C     0.11297   0.48732   0.90404   0.00000  Uiso   1.00
H668   H     0.16923   0.62027   0.83485   0.00000  Uiso   1.00
H669   H     0.26699   0.65722   0.95372   0.00000  Uiso   1.00
H670   H     0.08937   0.67868   0.72138   0.00000  Uiso   1.00
H671   H     0.15566   0.52403   0.81821   0.00000  Uiso   1.00
H672   H     0.36848   0.69958   0.10314   0.00000  Uiso   1.00
H673   H     0.99395   0.74483   0.61322   0.00000  Uiso   1.00
H674   H     0.13373   0.41872   0.81741   0.00000  Uiso   1.00
H675   H     0.11616   0.63092   0.97078   0.00000  Uiso   1.00
H676   H     0.21101   0.66845   0.09712   0.00000  Uiso   1.00
H677   H     0.03339   0.68992   0.86477   0.00000  Uiso   1.00
H678   H     0.09968   0.53527   0.96161   0.00000  Uiso   1.00
H679   H     0.32304   0.70870   0.21953   0.00000  Uiso   1.00
H680   H     0.94851   0.75395   0.72960   0.00000  Uiso   1.00
H681   H     0.08830   0.42785   0.93380   0.00000  Uiso   1.00
O682   O     0.40911   0.72866   0.24198   0.00000  Uiso   1.00
O683   O     0.91773   0.78801   0.59921   0.00000  Uiso   1.00
O684   O     0.10113   0.36017   0.86712   0.00000  Uiso   1.00
N685   N     0.34477   0.69657   0.11320   0.00000  Uiso   1.00
N686   N     0.99461   0.73888   0.65515   0.00000  Uiso   1.00
N687   N     0.12529   0.43400   0.84605   0.00000  Uiso   1.00
N688   N     0.32032   0.70148   0.17583   0.00000  Uiso   1.00
N689   N     0.97017   0.74378   0.71778   0.00000  Uiso   1.00
N690   N     0.10084   0.43891   0.90867   0.00000  Uiso   1.00
C691   C     0.61067   0.37445   0.22116   0.00000  Uiso   1.00
C692   C     0.64944   0.40114   0.22031   0.00000  Uiso   1.00
C693   C     0.63355   0.42466   0.15520   0.00000  Uiso   1.00
C694   C     0.67528   0.44694   0.16656   0.00000  Uiso   1.00
C695   C     0.72702   0.48859   0.15403   0.00000  Uiso   1.00
C696   C     0.61965   0.39936   0.28662   0.00000  Uiso   1.00
C697   C     0.57870   0.42138   0.27726   0.00000  Uiso   1.00
C698   C     0.59536   0.44214   0.34445   0.00000  Uiso   1.00
C699   C     0.60084   0.48099   0.43487   0.00000  Uiso   1.00
C700   C     0.63308   0.32131   0.24973   0.00000  Uiso   1.00
C701   C     0.60341   0.27769   0.20935   0.00000  Uiso   1.00
C702   C     0.63137   0.23274   0.24549   0.00000  Uiso   1.00
C703   C     0.65769   0.15040   0.27862   0.00000  Uiso   1.00
C704   C     0.71305   0.37218   0.35714   0.00000  Uiso   1.00
C705   C     0.70505   0.39991   0.29417   0.00000  Uiso   1.00
C706   C     0.74682   0.42215   0.30564   0.00000  Uiso   1.00
C707   C     0.73099   0.44570   0.24055   0.00000  Uiso   1.00
C708   C     0.67526   0.39813   0.36048   0.00000  Uiso   1.00
C709   C     0.69198   0.41886   0.42770   0.00000  Uiso   1.00
C710   C     0.65107   0.44091   0.41844   0.00000  Uiso   1.00
C711   C     0.68869   0.32007   0.32359   0.00000  Uiso   1.00
C712   C     0.71669   0.27518   0.35980   0.00000  Uiso   1.00
C713   C     0.68708   0.23151   0.31948   0.00000  Uiso   1.00
H714   H     0.56737   0.37542   0.16366   0.00000  Uiso   1.00
H715   H     0.59050   0.42562   0.09805   0.00000  Uiso   1.00
H716   H     0.53567   0.42232   0.22009   0.00000  Uiso   1.00
H717   H     0.56038   0.27866   0.15219   0.00000  Uiso   1.00
H718   H     0.64067   0.48074   0.05789   0.00000  Uiso   1.00
H719   H     0.52505   0.47378   0.31523   0.00000  Uiso   1.00
H720   H     0.57715   0.17085   0.17205   0.00000  Uiso   1.00
H721   H     0.75635   0.37122   0.41465   0.00000  Uiso   1.00
H722   H     0.78985   0.42119   0.36281   0.00000  Uiso   1.00
H723   H     0.73502   0.41790   0.48485   0.00000  Uiso   1.00
H724   H     0.75972   0.27424   0.41695   0.00000  Uiso   1.00
H725   H     0.80247   0.47715   0.27278   0.00000  Uiso   1.00
H726   H     0.68685   0.47019   0.53012   0.00000  Uiso   1.00
H727   H     0.73894   0.16726   0.38694   0.00000  Uiso   1.00
O728   O     0.74020   0.51191   0.12671   0.00000  Uiso   1.00
O729   O     0.58850   0.50277   0.46433   0.00000  Uiso   1.00
O730   O     0.65685   0.10533   0.27649   0.00000  Uiso   1.00
N731   N     0.67415   0.47303   0.11557   0.00000  Uiso   1.00
N732   N     0.56606   0.46653   0.35617   0.00000  Uiso   1.00
N733   N     0.61476   0.18331   0.22232   0.00000  Uiso   1.00
N734   N     0.76122   0.47110   0.23120   0.00000  Uiso   1.00
N735   N     0.65312   0.46460   0.47180   0.00000  Uiso   1.00
N736   N     0.70182   0.18138   0.33795   0.00000  Uiso   1.00
