data_job_06822
_audit_creation_date              2018-12-19
_audit_creation_method            'Materials Studio'
_symmetry_space_group_name_H-M    'P1'
_symmetry_Int_Tables_number       1
_symmetry_cell_setting            triclinic
loop_
_symmetry_equiv_pos_as_xyz
  x,y,z
_cell_length_a                    32.8138
_cell_length_b                    30.8559
_cell_length_c                    22.0926
_cell_angle_alpha                 90.0000
_cell_angle_beta                  60.1022
_cell_angle_gamma                 90.0000
loop_
_atom_site_label
_atom_site_type_symbol
_atom_site_fract_x
_atom_site_fract_y
_atom_site_fract_z
_atom_site_U_iso_or_equiv
_atom_site_adp_type
_atom_site_occupancy
C1     C     0.67768   0.35635   0.73557   0.00000  Uiso   1.00
C2     C     0.66295   0.35066   0.68059   0.00000  Uiso   1.00
C3     C     0.69108   0.35842   0.60960   0.00000  Uiso   1.00
C4     C     0.67108   0.35129   0.56795   0.00000  Uiso   1.00
C5     C     0.65526   0.34466   0.47826   0.00000  Uiso   1.00
C6     C     0.64220   0.38756   0.78970   0.00000  Uiso   1.00
C7     C     0.65288   0.42635   0.81046   0.00000  Uiso   1.00
C8     C     0.61541   0.45028   0.86068   0.00000  Uiso   1.00
C9     C     0.06739   0.00094   0.94044   0.00000  Uiso   1.00
C10    C     0.66928   0.31268   0.77225   0.00000  Uiso   1.00
C11    C     0.70272   0.28852   0.77835   0.00000  Uiso   1.00
C12    C     0.68805   0.24940   0.81388   0.00000  Uiso   1.00
C13    C     0.68206   0.18379   0.86653   0.00000  Uiso   1.00
C14    C     0.59215   0.32987   0.78785   0.00000  Uiso   1.00
C15    C     0.61649   0.33627   0.70899   0.00000  Uiso   1.00
C16    C     0.59644   0.32912   0.66744   0.00000  Uiso   1.00
C17    C     0.62454   0.33687   0.59640   0.00000  Uiso   1.00
C18    C     0.59574   0.37318   0.81810   0.00000  Uiso   1.00
C19    C     0.55825   0.39705   0.86830   0.00000  Uiso   1.00
C20    C     0.56887   0.43587   0.88913   0.00000  Uiso   1.00
C21    C     0.62282   0.29830   0.80064   0.00000  Uiso   1.00
C22    C     0.60809   0.25922   0.83618   0.00000  Uiso   1.00
C23    C     0.64150   0.23499   0.84233   0.00000  Uiso   1.00
H24    H     0.71385   0.36755   0.71347   0.00000  Uiso   1.00
H25    H     0.72703   0.36956   0.58764   0.00000  Uiso   1.00
H26    H     0.68884   0.43747   0.78849   0.00000  Uiso   1.00
H27    H     0.73867   0.29966   0.75637   0.00000  Uiso   1.00
H28    H     0.72114   0.36545   0.46067   0.00000  Uiso   1.00
H29    H     0.64062   0.50866   0.88417   0.00000  Uiso   1.00
H30    H     0.74570   0.21804   0.81645   0.00000  Uiso   1.00
H31    H     0.55597   0.31867   0.80996   0.00000  Uiso   1.00
H32    H     0.56049   0.31799   0.68943   0.00000  Uiso   1.00
H33    H     0.52230   0.38591   0.89027   0.00000  Uiso   1.00
H34    H     0.57213   0.24809   0.85815   0.00000  Uiso   1.00
H35    H     0.58597   0.32360   0.54328   0.00000  Uiso   1.00
H36    H     0.00545   0.96681   0.96679   0.00000  Uiso   1.00
H37    H     0.61053   0.17619   0.89906   0.00000  Uiso   1.00
O38    O     0.65937   0.34498   0.42095   0.00000  Uiso   1.00
O39    O     0.05373   0.03285   0.97657   0.00000  Uiso   1.00
O40    O     0.69160   0.15157   0.88772   0.00000  Uiso   1.00
N41    N     0.68871   0.35569   0.49665   0.00000  Uiso   1.00
N42    N     0.61343   0.48958   0.89259   0.00000  Uiso   1.00
N43    N     0.71167   0.21788   0.82929   0.00000  Uiso   1.00
N44    N     0.61598   0.33317   0.54110   0.00000  Uiso   1.00
N45    N     0.54070   0.46706   0.93704   0.00000  Uiso   1.00
N46    N     0.63894   0.19536   0.87374   0.00000  Uiso   1.00
C47    C     0.74578   0.02840   0.53635   0.00000  Uiso   1.00
C48    C     0.71905   0.05873   0.51390   0.00000  Uiso   1.00
C49    C     0.69118   0.09337   0.55235   0.00000  Uiso   1.00
C50    C     0.66968   0.11720   0.52271   0.00000  Uiso   1.00
C51    C     0.62721   0.16588   0.49786   0.00000  Uiso   1.00
C52    C     0.72898   0.98274   0.53360   0.00000  Uiso   1.00
C53    C     0.70948   0.95348   0.58861   0.00000  Uiso   1.00
C54    C     0.69635   0.91333   0.57554   0.00000  Uiso   1.00
C55    C     0.66934   0.84403   0.58125   0.00000  Uiso   1.00
C56    C     0.79709   0.03049   0.47863   0.00000  Uiso   1.00
C57    C     0.83486   0.04138   0.48742   0.00000  Uiso   1.00
C58    C     0.87907   0.04142   0.42807   0.00000  Uiso   1.00
C59    C     0.95782   0.04626   0.34844   0.00000  Uiso   1.00
C60    C     0.75715   0.00911   0.41533   0.00000  Uiso   1.00
C61    C     0.72523   0.04825   0.44816   0.00000  Uiso   1.00
C62    C     0.70376   0.07203   0.41845   0.00000  Uiso   1.00
C63    C     0.67587   0.10670   0.45685   0.00000  Uiso   1.00
C64    C     0.73516   0.97226   0.46786   0.00000  Uiso   1.00
C65    C     0.72206   0.93215   0.45470   0.00000  Uiso   1.00
C66    C     0.70254   0.90284   0.50968   0.00000  Uiso   1.00
C67    C     0.80327   0.02002   0.41289   0.00000  Uiso   1.00
C68    C     0.84744   0.02004   0.35352   0.00000  Uiso   1.00
C69    C     0.88526   0.03093   0.36222   0.00000  Uiso   1.00
H70    H     0.74096   0.03655   0.58753   0.00000  Uiso   1.00
H71    H     0.68640   0.10147   0.60323   0.00000  Uiso   1.00
H72    H     0.70470   0.96160   0.63947   0.00000  Uiso   1.00
H73    H     0.83006   0.04948   0.53830   0.00000  Uiso   1.00
H74    H     0.62862   0.16881   0.59165   0.00000  Uiso   1.00
H75    H     0.66722   0.87389   0.66806   0.00000  Uiso   1.00
H76    H     0.93157   0.05920   0.45473   0.00000  Uiso   1.00
H77    H     0.76197   0.00095   0.36414   0.00000  Uiso   1.00
H78    H     0.70855   0.06392   0.36758   0.00000  Uiso   1.00
H79    H     0.72685   0.92405   0.40383   0.00000  Uiso   1.00
H80    H     0.85221   0.01193   0.30266   0.00000  Uiso   1.00
H81    H     0.64659   0.13833   0.40039   0.00000  Uiso   1.00
H82    H     0.68520   0.84341   0.47681   0.00000  Uiso   1.00
H83    H     0.94954   0.02873   0.26347   0.00000  Uiso   1.00
O84    O     0.60208   0.19563   0.50232   0.00000  Uiso   1.00
O85    O     0.65273   0.80870   0.60257   0.00000  Uiso   1.00
O86    O     0.99955   0.05183   0.32268   0.00000  Uiso   1.00
N87    N     0.64019   0.15300   0.54616   0.00000  Uiso   1.00
N88    N     0.67627   0.87727   0.61761   0.00000  Uiso   1.00
N89    N     0.92341   0.05051   0.41816   0.00000  Uiso   1.00
N90    N     0.64986   0.13660   0.44324   0.00000  Uiso   1.00
N91    N     0.68595   0.86087   0.51469   0.00000  Uiso   1.00
N92    N     0.93309   0.03411   0.31524   0.00000  Uiso   1.00
C93    C     0.92992   0.35265   0.24932   0.00000  Uiso   1.00
C94    C     0.87991   0.33541   0.28007   0.00000  Uiso   1.00
C95    C     0.86357   0.29620   0.31464   0.00000  Uiso   1.00
C96    C     0.81666   0.28632   0.33888   0.00000  Uiso   1.00
C97    C     0.74351   0.25523   0.38812   0.00000  Uiso   1.00
C98    C     0.94709   0.36142   0.17238   0.00000  Uiso   1.00
C99    C     0.98723   0.34409   0.11641   0.00000  Uiso   1.00
C100   C     0.99687   0.35611   0.05000   0.00000  Uiso   1.00
C101   C     0.52803   0.86543   0.93204   0.00000  Uiso   1.00
C102   C     0.92557   0.39686   0.28288   0.00000  Uiso   1.00
C103   C     0.94762   0.40933   0.31980   0.00000  Uiso   1.00
C104   C     0.43915   0.95119   0.34641   0.00000  Uiso   1.00
C105   C     0.43689   0.01553   0.40002   0.00000  Uiso   1.00
C106   C     0.87566   0.40480   0.23089   0.00000  Uiso   1.00
C107   C     0.85045   0.36374   0.27005   0.00000  Uiso   1.00
C108   C     0.80355   0.35391   0.29425   0.00000  Uiso   1.00
C109   C     0.78714   0.31470   0.32886   0.00000  Uiso   1.00
C110   C     0.91762   0.38975   0.16236   0.00000  Uiso   1.00
C111   C     0.92721   0.40179   0.09602   0.00000  Uiso   1.00
C112   C     0.96735   0.38449   0.03996   0.00000  Uiso   1.00
C113   C     0.89610   0.42519   0.27287   0.00000  Uiso   1.00
C114   C     0.88760   0.46703   0.29941   0.00000  Uiso   1.00
C115   C     0.40963   0.97957   0.33637   0.00000  Uiso   1.00
H116   H     0.95286   0.33059   0.25711   0.00000  Uiso   1.00
H117   H     0.88639   0.27429   0.32238   0.00000  Uiso   1.00
H118   H     0.01003   0.32217   0.12418   0.00000  Uiso   1.00
H119   H     0.97042   0.38740   0.32754   0.00000  Uiso   1.00
H120   H     0.79970   0.22435   0.39030   0.00000  Uiso   1.00
H121   H     0.56042   0.82533   0.97238   0.00000  Uiso   1.00
H122   H     0.47690   0.96287   0.40121   0.00000  Uiso   1.00
H123   H     0.85272   0.42686   0.22309   0.00000  Uiso   1.00
H124   H     0.78075   0.37584   0.28649   0.00000  Uiso   1.00
H125   H     0.90440   0.42372   0.08829   0.00000  Uiso   1.00
H126   H     0.86479   0.48895   0.29165   0.00000  Uiso   1.00
H127   H     0.71397   0.30677   0.36117   0.00000  Uiso   1.00
H128   H     0.47468   0.90775   0.94325   0.00000  Uiso   1.00
H129   H     0.39116   0.04529   0.37208   0.00000  Uiso   1.00
O130   O     0.71130   0.23025   0.41803   0.00000  Uiso   1.00
O131   O     0.55336   0.86274   0.86974   0.00000  Uiso   1.00
O132   O     0.44378   0.04319   0.43236   0.00000  Uiso   1.00
N133   N     0.78940   0.25075   0.37475   0.00000  Uiso   1.00
N134   N     0.53315   0.84516   0.98402   0.00000  Uiso   1.00
N135   N     0.45508   0.97375   0.38493   0.00000  Uiso   1.00
N136   N     0.74326   0.29510   0.35908   0.00000  Uiso   1.00
N137   N     0.48701   0.88951   0.96835   0.00000  Uiso   1.00
N138   N     0.40894   0.01810   0.36926   0.00000  Uiso   1.00
C139   C     0.17768   0.85635   0.73557   0.00000  Uiso   1.00
C140   C     0.16295   0.85066   0.68059   0.00000  Uiso   1.00
C141   C     0.19108   0.85842   0.60960   0.00000  Uiso   1.00
C142   C     0.17108   0.85129   0.56795   0.00000  Uiso   1.00
C143   C     0.15526   0.84466   0.47826   0.00000  Uiso   1.00
C144   C     0.14220   0.88756   0.78970   0.00000  Uiso   1.00
C145   C     0.15288   0.92635   0.81046   0.00000  Uiso   1.00
C146   C     0.11541   0.95028   0.86068   0.00000  Uiso   1.00
C147   C     0.56739   0.50094   0.94044   0.00000  Uiso   1.00
C148   C     0.16928   0.81268   0.77225   0.00000  Uiso   1.00
C149   C     0.20272   0.78852   0.77835   0.00000  Uiso   1.00
C150   C     0.18805   0.74940   0.81388   0.00000  Uiso   1.00
C151   C     0.18206   0.68379   0.86653   0.00000  Uiso   1.00
C152   C     0.09215   0.82987   0.78785   0.00000  Uiso   1.00
C153   C     0.11649   0.83627   0.70899   0.00000  Uiso   1.00
C154   C     0.09644   0.82912   0.66744   0.00000  Uiso   1.00
C155   C     0.12454   0.83687   0.59640   0.00000  Uiso   1.00
C156   C     0.09574   0.87318   0.81810   0.00000  Uiso   1.00
C157   C     0.05825   0.89705   0.86830   0.00000  Uiso   1.00
C158   C     0.06887   0.93587   0.88913   0.00000  Uiso   1.00
C159   C     0.12282   0.79830   0.80064   0.00000  Uiso   1.00
C160   C     0.10809   0.75922   0.83618   0.00000  Uiso   1.00
C161   C     0.14150   0.73499   0.84233   0.00000  Uiso   1.00
H162   H     0.21385   0.86755   0.71347   0.00000  Uiso   1.00
H163   H     0.22703   0.86956   0.58764   0.00000  Uiso   1.00
H164   H     0.18884   0.93747   0.78849   0.00000  Uiso   1.00
H165   H     0.23867   0.79966   0.75637   0.00000  Uiso   1.00
H166   H     0.22114   0.86545   0.46067   0.00000  Uiso   1.00
H167   H     0.14062   0.00866   0.88417   0.00000  Uiso   1.00
H168   H     0.24570   0.71804   0.81645   0.00000  Uiso   1.00
H169   H     0.05597   0.81867   0.80996   0.00000  Uiso   1.00
H170   H     0.06049   0.81799   0.68943   0.00000  Uiso   1.00
H171   H     0.02230   0.88591   0.89027   0.00000  Uiso   1.00
H172   H     0.07213   0.74809   0.85815   0.00000  Uiso   1.00
H173   H     0.08597   0.82360   0.54328   0.00000  Uiso   1.00
H174   H     0.50545   0.46681   0.96679   0.00000  Uiso   1.00
H175   H     0.11053   0.67619   0.89906   0.00000  Uiso   1.00
O176   O     0.15937   0.84498   0.42095   0.00000  Uiso   1.00
O177   O     0.55373   0.53285   0.97657   0.00000  Uiso   1.00
O178   O     0.19160   0.65157   0.88772   0.00000  Uiso   1.00
N179   N     0.18871   0.85569   0.49665   0.00000  Uiso   1.00
N180   N     0.11343   0.98958   0.89259   0.00000  Uiso   1.00
N181   N     0.21167   0.71788   0.82929   0.00000  Uiso   1.00
N182   N     0.11598   0.83317   0.54110   0.00000  Uiso   1.00
N183   N     0.04070   0.96706   0.93704   0.00000  Uiso   1.00
N184   N     0.13894   0.69536   0.87374   0.00000  Uiso   1.00
C185   C     0.24578   0.52840   0.53635   0.00000  Uiso   1.00
C186   C     0.21905   0.55873   0.51390   0.00000  Uiso   1.00
C187   C     0.19118   0.59337   0.55235   0.00000  Uiso   1.00
C188   C     0.16968   0.61720   0.52271   0.00000  Uiso   1.00
C189   C     0.12721   0.66588   0.49786   0.00000  Uiso   1.00
C190   C     0.22898   0.48274   0.53360   0.00000  Uiso   1.00
C191   C     0.20948   0.45348   0.58861   0.00000  Uiso   1.00
C192   C     0.19635   0.41333   0.57554   0.00000  Uiso   1.00
C193   C     0.16934   0.34403   0.58125   0.00000  Uiso   1.00
C194   C     0.29709   0.53049   0.47863   0.00000  Uiso   1.00
C195   C     0.33486   0.54138   0.48742   0.00000  Uiso   1.00
C196   C     0.37907   0.54142   0.42807   0.00000  Uiso   1.00
C197   C     0.45782   0.54626   0.34844   0.00000  Uiso   1.00
C198   C     0.25715   0.50911   0.41533   0.00000  Uiso   1.00
C199   C     0.22523   0.54825   0.44816   0.00000  Uiso   1.00
C200   C     0.20376   0.57203   0.41845   0.00000  Uiso   1.00
C201   C     0.17587   0.60670   0.45685   0.00000  Uiso   1.00
C202   C     0.23516   0.47226   0.46786   0.00000  Uiso   1.00
C203   C     0.22206   0.43215   0.45470   0.00000  Uiso   1.00
C204   C     0.20254   0.40284   0.50968   0.00000  Uiso   1.00
C205   C     0.30327   0.52002   0.41289   0.00000  Uiso   1.00
C206   C     0.34744   0.52004   0.35352   0.00000  Uiso   1.00
C207   C     0.38526   0.53093   0.36222   0.00000  Uiso   1.00
H208   H     0.24096   0.53655   0.58753   0.00000  Uiso   1.00
H209   H     0.18640   0.60147   0.60323   0.00000  Uiso   1.00
H210   H     0.20470   0.46160   0.63947   0.00000  Uiso   1.00
H211   H     0.33006   0.54948   0.53830   0.00000  Uiso   1.00
H212   H     0.12862   0.66881   0.59165   0.00000  Uiso   1.00
H213   H     0.16722   0.37389   0.66806   0.00000  Uiso   1.00
H214   H     0.43157   0.55920   0.45473   0.00000  Uiso   1.00
H215   H     0.26197   0.50095   0.36414   0.00000  Uiso   1.00
H216   H     0.20855   0.56392   0.36758   0.00000  Uiso   1.00
H217   H     0.22685   0.42405   0.40383   0.00000  Uiso   1.00
H218   H     0.35221   0.51193   0.30266   0.00000  Uiso   1.00
H219   H     0.14659   0.63833   0.40039   0.00000  Uiso   1.00
H220   H     0.18520   0.34341   0.47681   0.00000  Uiso   1.00
H221   H     0.44954   0.52873   0.26347   0.00000  Uiso   1.00
O222   O     0.10208   0.69563   0.50232   0.00000  Uiso   1.00
O223   O     0.15273   0.30870   0.60257   0.00000  Uiso   1.00
O224   O     0.49955   0.55183   0.32268   0.00000  Uiso   1.00
N225   N     0.14019   0.65300   0.54616   0.00000  Uiso   1.00
N226   N     0.17627   0.37727   0.61761   0.00000  Uiso   1.00
N227   N     0.42341   0.55051   0.41816   0.00000  Uiso   1.00
N228   N     0.14986   0.63660   0.44324   0.00000  Uiso   1.00
N229   N     0.18595   0.36087   0.51469   0.00000  Uiso   1.00
N230   N     0.43309   0.53411   0.31524   0.00000  Uiso   1.00
C231   C     0.42992   0.85265   0.24932   0.00000  Uiso   1.00
C232   C     0.37991   0.83541   0.28007   0.00000  Uiso   1.00
C233   C     0.36357   0.79620   0.31464   0.00000  Uiso   1.00
C234   C     0.31666   0.78632   0.33888   0.00000  Uiso   1.00
C235   C     0.24351   0.75523   0.38812   0.00000  Uiso   1.00
C236   C     0.44709   0.86142   0.17238   0.00000  Uiso   1.00
C237   C     0.48723   0.84409   0.11641   0.00000  Uiso   1.00
C238   C     0.49687   0.85611   0.05000   0.00000  Uiso   1.00
C239   C     0.02803   0.36543   0.93204   0.00000  Uiso   1.00
C240   C     0.42557   0.89686   0.28288   0.00000  Uiso   1.00
C241   C     0.44762   0.90933   0.31980   0.00000  Uiso   1.00
C242   C     0.93915   0.45119   0.34641   0.00000  Uiso   1.00
C243   C     0.93689   0.51553   0.40002   0.00000  Uiso   1.00
C244   C     0.37566   0.90480   0.23089   0.00000  Uiso   1.00
C245   C     0.35045   0.86374   0.27005   0.00000  Uiso   1.00
C246   C     0.30355   0.85391   0.29425   0.00000  Uiso   1.00
C247   C     0.28714   0.81470   0.32886   0.00000  Uiso   1.00
C248   C     0.41762   0.88975   0.16236   0.00000  Uiso   1.00
C249   C     0.42721   0.90179   0.09602   0.00000  Uiso   1.00
C250   C     0.46735   0.88449   0.03996   0.00000  Uiso   1.00
C251   C     0.39610   0.92519   0.27287   0.00000  Uiso   1.00
C252   C     0.38760   0.96703   0.29941   0.00000  Uiso   1.00
C253   C     0.90963   0.47957   0.33637   0.00000  Uiso   1.00
H254   H     0.45286   0.83059   0.25711   0.00000  Uiso   1.00
H255   H     0.38639   0.77429   0.32238   0.00000  Uiso   1.00
H256   H     0.51003   0.82217   0.12418   0.00000  Uiso   1.00
H257   H     0.47042   0.88740   0.32754   0.00000  Uiso   1.00
H258   H     0.29970   0.72435   0.39030   0.00000  Uiso   1.00
H259   H     0.06042   0.32533   0.97238   0.00000  Uiso   1.00
H260   H     0.97690   0.46287   0.40121   0.00000  Uiso   1.00
H261   H     0.35272   0.92686   0.22309   0.00000  Uiso   1.00
H262   H     0.28075   0.87584   0.28649   0.00000  Uiso   1.00
H263   H     0.40440   0.92372   0.08829   0.00000  Uiso   1.00
H264   H     0.36479   0.98895   0.29165   0.00000  Uiso   1.00
H265   H     0.21397   0.80677   0.36117   0.00000  Uiso   1.00
H266   H     0.97468   0.40775   0.94325   0.00000  Uiso   1.00
H267   H     0.89116   0.54529   0.37208   0.00000  Uiso   1.00
O268   O     0.21130   0.73025   0.41803   0.00000  Uiso   1.00
O269   O     0.05336   0.36274   0.86974   0.00000  Uiso   1.00
O270   O     0.94378   0.54319   0.43236   0.00000  Uiso   1.00
N271   N     0.28940   0.75075   0.37475   0.00000  Uiso   1.00
N272   N     0.03315   0.34516   0.98402   0.00000  Uiso   1.00
N273   N     0.95508   0.47375   0.38493   0.00000  Uiso   1.00
N274   N     0.24326   0.79510   0.35908   0.00000  Uiso   1.00
N275   N     0.98701   0.38951   0.96835   0.00000  Uiso   1.00
N276   N     0.90894   0.51810   0.36926   0.00000  Uiso   1.00
C277   C     0.32232   0.35635   0.76443   0.00000  Uiso   1.00
C278   C     0.33705   0.35066   0.81941   0.00000  Uiso   1.00
C279   C     0.30892   0.35842   0.89040   0.00000  Uiso   1.00
C280   C     0.32892   0.35129   0.93205   0.00000  Uiso   1.00
C281   C     0.34474   0.34466   0.02174   0.00000  Uiso   1.00
C282   C     0.35780   0.38756   0.71030   0.00000  Uiso   1.00
C283   C     0.34712   0.42635   0.68954   0.00000  Uiso   1.00
C284   C     0.38459   0.45028   0.63932   0.00000  Uiso   1.00
C285   C     0.93261   0.00094   0.55956   0.00000  Uiso   1.00
C286   C     0.33072   0.31268   0.72775   0.00000  Uiso   1.00
C287   C     0.29728   0.28852   0.72165   0.00000  Uiso   1.00
C288   C     0.31195   0.24940   0.68612   0.00000  Uiso   1.00
C289   C     0.31794   0.18379   0.63347   0.00000  Uiso   1.00
C290   C     0.40785   0.32987   0.71215   0.00000  Uiso   1.00
C291   C     0.38351   0.33627   0.79101   0.00000  Uiso   1.00
C292   C     0.40356   0.32912   0.83256   0.00000  Uiso   1.00
C293   C     0.37546   0.33687   0.90360   0.00000  Uiso   1.00
C294   C     0.40426   0.37318   0.68190   0.00000  Uiso   1.00
C295   C     0.44175   0.39705   0.63170   0.00000  Uiso   1.00
C296   C     0.43113   0.43587   0.61087   0.00000  Uiso   1.00
C297   C     0.37718   0.29830   0.69936   0.00000  Uiso   1.00
C298   C     0.39191   0.25922   0.66382   0.00000  Uiso   1.00
C299   C     0.35850   0.23499   0.65767   0.00000  Uiso   1.00
H300   H     0.28615   0.36755   0.78653   0.00000  Uiso   1.00
H301   H     0.27297   0.36956   0.91236   0.00000  Uiso   1.00
H302   H     0.31116   0.43747   0.71151   0.00000  Uiso   1.00
H303   H     0.26133   0.29966   0.74363   0.00000  Uiso   1.00
H304   H     0.27886   0.36545   0.03933   0.00000  Uiso   1.00
H305   H     0.35938   0.50866   0.61583   0.00000  Uiso   1.00
H306   H     0.25430   0.21804   0.68355   0.00000  Uiso   1.00
H307   H     0.44403   0.31867   0.69004   0.00000  Uiso   1.00
H308   H     0.43951   0.31799   0.81057   0.00000  Uiso   1.00
H309   H     0.47770   0.38591   0.60973   0.00000  Uiso   1.00
H310   H     0.42787   0.24809   0.64185   0.00000  Uiso   1.00
H311   H     0.41403   0.32360   0.95672   0.00000  Uiso   1.00
H312   H     0.99455   0.96681   0.53321   0.00000  Uiso   1.00
H313   H     0.38947   0.17619   0.60094   0.00000  Uiso   1.00
O314   O     0.34063   0.34498   0.07905   0.00000  Uiso   1.00
O315   O     0.94627   0.03285   0.52343   0.00000  Uiso   1.00
O316   O     0.30840   0.15157   0.61228   0.00000  Uiso   1.00
N317   N     0.31129   0.35569   0.00335   0.00000  Uiso   1.00
N318   N     0.38657   0.48958   0.60741   0.00000  Uiso   1.00
N319   N     0.28833   0.21788   0.67071   0.00000  Uiso   1.00
N320   N     0.38402   0.33317   0.95890   0.00000  Uiso   1.00
N321   N     0.45930   0.46706   0.56296   0.00000  Uiso   1.00
N322   N     0.36106   0.19536   0.62626   0.00000  Uiso   1.00
C323   C     0.25422   0.02840   0.96365   0.00000  Uiso   1.00
C324   C     0.28095   0.05873   0.98610   0.00000  Uiso   1.00
C325   C     0.30882   0.09337   0.94765   0.00000  Uiso   1.00
C326   C     0.33032   0.11720   0.97729   0.00000  Uiso   1.00
C327   C     0.37279   0.16588   0.00214   0.00000  Uiso   1.00
C328   C     0.27102   0.98274   0.96640   0.00000  Uiso   1.00
C329   C     0.29052   0.95348   0.91139   0.00000  Uiso   1.00
C330   C     0.30365   0.91333   0.92446   0.00000  Uiso   1.00
C331   C     0.33066   0.84403   0.91875   0.00000  Uiso   1.00
C332   C     0.20291   0.03049   0.02137   0.00000  Uiso   1.00
C333   C     0.16514   0.04138   0.01258   0.00000  Uiso   1.00
C334   C     0.12093   0.04142   0.07193   0.00000  Uiso   1.00
C335   C     0.04218   0.04626   0.15156   0.00000  Uiso   1.00
C336   C     0.24285   0.00911   0.08467   0.00000  Uiso   1.00
C337   C     0.27477   0.04825   0.05184   0.00000  Uiso   1.00
C338   C     0.29624   0.07203   0.08155   0.00000  Uiso   1.00
C339   C     0.32413   0.10670   0.04315   0.00000  Uiso   1.00
C340   C     0.26484   0.97226   0.03214   0.00000  Uiso   1.00
C341   C     0.27794   0.93215   0.04530   0.00000  Uiso   1.00
C342   C     0.29746   0.90284   0.99032   0.00000  Uiso   1.00
C343   C     0.19673   0.02002   0.08711   0.00000  Uiso   1.00
C344   C     0.15256   0.02004   0.14648   0.00000  Uiso   1.00
C345   C     0.11474   0.03093   0.13778   0.00000  Uiso   1.00
H346   H     0.25904   0.03655   0.91247   0.00000  Uiso   1.00
H347   H     0.31360   0.10147   0.89677   0.00000  Uiso   1.00
H348   H     0.29530   0.96160   0.86053   0.00000  Uiso   1.00
H349   H     0.16994   0.04948   0.96170   0.00000  Uiso   1.00
H350   H     0.37138   0.16881   0.90835   0.00000  Uiso   1.00
H351   H     0.33278   0.87389   0.83194   0.00000  Uiso   1.00
H352   H     0.06843   0.05920   0.04527   0.00000  Uiso   1.00
H353   H     0.23803   0.00095   0.13586   0.00000  Uiso   1.00
H354   H     0.29145   0.06392   0.13242   0.00000  Uiso   1.00
H355   H     0.27315   0.92405   0.09617   0.00000  Uiso   1.00
H356   H     0.14779   0.01193   0.19734   0.00000  Uiso   1.00
H357   H     0.35341   0.13833   0.09961   0.00000  Uiso   1.00
H358   H     0.31480   0.84341   0.02319   0.00000  Uiso   1.00
H359   H     0.05046   0.02873   0.23653   0.00000  Uiso   1.00
O360   O     0.39792   0.19563   0.99768   0.00000  Uiso   1.00
O361   O     0.34727   0.80870   0.89743   0.00000  Uiso   1.00
O362   O     0.00045   0.05183   0.17732   0.00000  Uiso   1.00
N363   N     0.35981   0.15300   0.95384   0.00000  Uiso   1.00
N364   N     0.32373   0.87727   0.88239   0.00000  Uiso   1.00
N365   N     0.07659   0.05051   0.08184   0.00000  Uiso   1.00
N366   N     0.35014   0.13660   0.05676   0.00000  Uiso   1.00
N367   N     0.31405   0.86087   0.98531   0.00000  Uiso   1.00
N368   N     0.06691   0.03411   0.18476   0.00000  Uiso   1.00
C369   C     0.07008   0.35265   0.25068   0.00000  Uiso   1.00
C370   C     0.12009   0.33541   0.21993   0.00000  Uiso   1.00
C371   C     0.13643   0.29620   0.18536   0.00000  Uiso   1.00
C372   C     0.18334   0.28632   0.16112   0.00000  Uiso   1.00
C373   C     0.25649   0.25523   0.11188   0.00000  Uiso   1.00
C374   C     0.05291   0.36142   0.32762   0.00000  Uiso   1.00
C375   C     0.01277   0.34409   0.38359   0.00000  Uiso   1.00
C376   C     0.00313   0.35611   0.45000   0.00000  Uiso   1.00
C377   C     0.47197   0.86543   0.56796   0.00000  Uiso   1.00
C378   C     0.07443   0.39686   0.21712   0.00000  Uiso   1.00
C379   C     0.05238   0.40933   0.18020   0.00000  Uiso   1.00
C380   C     0.56085   0.95119   0.15359   0.00000  Uiso   1.00
C381   C     0.56311   0.01553   0.09998   0.00000  Uiso   1.00
C382   C     0.12434   0.40480   0.26911   0.00000  Uiso   1.00
C383   C     0.14955   0.36374   0.22995   0.00000  Uiso   1.00
C384   C     0.19645   0.35391   0.20575   0.00000  Uiso   1.00
C385   C     0.21286   0.31470   0.17114   0.00000  Uiso   1.00
C386   C     0.08238   0.38975   0.33764   0.00000  Uiso   1.00
C387   C     0.07279   0.40179   0.40398   0.00000  Uiso   1.00
C388   C     0.03265   0.38449   0.46004   0.00000  Uiso   1.00
C389   C     0.10390   0.42519   0.22713   0.00000  Uiso   1.00
C390   C     0.11240   0.46703   0.20059   0.00000  Uiso   1.00
C391   C     0.59037   0.97957   0.16363   0.00000  Uiso   1.00
H392   H     0.04714   0.33059   0.24289   0.00000  Uiso   1.00
H393   H     0.11361   0.27429   0.17762   0.00000  Uiso   1.00
H394   H     0.98997   0.32217   0.37582   0.00000  Uiso   1.00
H395   H     0.02958   0.38740   0.17246   0.00000  Uiso   1.00
H396   H     0.20030   0.22435   0.10970   0.00000  Uiso   1.00
H397   H     0.43958   0.82533   0.52762   0.00000  Uiso   1.00
H398   H     0.52310   0.96287   0.09879   0.00000  Uiso   1.00
H399   H     0.14728   0.42686   0.27691   0.00000  Uiso   1.00
H400   H     0.21925   0.37584   0.21351   0.00000  Uiso   1.00
H401   H     0.09560   0.42372   0.41171   0.00000  Uiso   1.00
H402   H     0.13521   0.48895   0.20835   0.00000  Uiso   1.00
H403   H     0.28603   0.30677   0.13883   0.00000  Uiso   1.00
H404   H     0.52532   0.90775   0.55675   0.00000  Uiso   1.00
H405   H     0.60884   0.04529   0.12792   0.00000  Uiso   1.00
O406   O     0.28870   0.23025   0.08197   0.00000  Uiso   1.00
O407   O     0.44664   0.86274   0.63026   0.00000  Uiso   1.00
O408   O     0.55622   0.04319   0.06764   0.00000  Uiso   1.00
N409   N     0.21060   0.25075   0.12525   0.00000  Uiso   1.00
N410   N     0.46685   0.84516   0.51598   0.00000  Uiso   1.00
N411   N     0.54492   0.97375   0.11507   0.00000  Uiso   1.00
N412   N     0.25674   0.29510   0.14092   0.00000  Uiso   1.00
N413   N     0.51299   0.88951   0.53165   0.00000  Uiso   1.00
N414   N     0.59106   0.01810   0.13074   0.00000  Uiso   1.00
C415   C     0.82232   0.85635   0.76443   0.00000  Uiso   1.00
C416   C     0.83705   0.85066   0.81941   0.00000  Uiso   1.00
C417   C     0.80892   0.85842   0.89040   0.00000  Uiso   1.00
C418   C     0.82892   0.85129   0.93205   0.00000  Uiso   1.00
C419   C     0.84474   0.84466   0.02174   0.00000  Uiso   1.00
C420   C     0.85780   0.88756   0.71030   0.00000  Uiso   1.00
C421   C     0.84712   0.92635   0.68954   0.00000  Uiso   1.00
C422   C     0.88459   0.95028   0.63932   0.00000  Uiso   1.00
C423   C     0.43261   0.50094   0.55956   0.00000  Uiso   1.00
C424   C     0.83072   0.81268   0.72775   0.00000  Uiso   1.00
C425   C     0.79728   0.78852   0.72165   0.00000  Uiso   1.00
C426   C     0.81195   0.74940   0.68612   0.00000  Uiso   1.00
C427   C     0.81794   0.68379   0.63347   0.00000  Uiso   1.00
C428   C     0.90785   0.82987   0.71215   0.00000  Uiso   1.00
C429   C     0.88351   0.83627   0.79101   0.00000  Uiso   1.00
C430   C     0.90356   0.82912   0.83256   0.00000  Uiso   1.00
C431   C     0.87546   0.83687   0.90360   0.00000  Uiso   1.00
C432   C     0.90426   0.87318   0.68190   0.00000  Uiso   1.00
C433   C     0.94175   0.89705   0.63170   0.00000  Uiso   1.00
C434   C     0.93113   0.93587   0.61087   0.00000  Uiso   1.00
C435   C     0.87718   0.79830   0.69936   0.00000  Uiso   1.00
C436   C     0.89191   0.75922   0.66382   0.00000  Uiso   1.00
C437   C     0.85850   0.73499   0.65767   0.00000  Uiso   1.00
H438   H     0.78615   0.86755   0.78653   0.00000  Uiso   1.00
H439   H     0.77297   0.86956   0.91236   0.00000  Uiso   1.00
H440   H     0.81116   0.93747   0.71151   0.00000  Uiso   1.00
H441   H     0.76133   0.79966   0.74363   0.00000  Uiso   1.00
H442   H     0.77886   0.86545   0.03933   0.00000  Uiso   1.00
H443   H     0.85938   0.00866   0.61583   0.00000  Uiso   1.00
H444   H     0.75430   0.71804   0.68355   0.00000  Uiso   1.00
H445   H     0.94403   0.81867   0.69004   0.00000  Uiso   1.00
H446   H     0.93951   0.81799   0.81057   0.00000  Uiso   1.00
H447   H     0.97770   0.88591   0.60973   0.00000  Uiso   1.00
H448   H     0.92787   0.74809   0.64185   0.00000  Uiso   1.00
H449   H     0.91403   0.82360   0.95672   0.00000  Uiso   1.00
H450   H     0.49455   0.46681   0.53321   0.00000  Uiso   1.00
H451   H     0.88947   0.67619   0.60094   0.00000  Uiso   1.00
O452   O     0.84063   0.84498   0.07905   0.00000  Uiso   1.00
O453   O     0.44627   0.53285   0.52343   0.00000  Uiso   1.00
O454   O     0.80840   0.65157   0.61228   0.00000  Uiso   1.00
N455   N     0.81129   0.85569   0.00335   0.00000  Uiso   1.00
N456   N     0.88657   0.98958   0.60741   0.00000  Uiso   1.00
N457   N     0.78833   0.71788   0.67071   0.00000  Uiso   1.00
N458   N     0.88402   0.83317   0.95890   0.00000  Uiso   1.00
N459   N     0.95930   0.96706   0.56296   0.00000  Uiso   1.00
N460   N     0.86106   0.69536   0.62626   0.00000  Uiso   1.00
C461   C     0.75422   0.52840   0.96365   0.00000  Uiso   1.00
C462   C     0.78095   0.55873   0.98610   0.00000  Uiso   1.00
C463   C     0.80882   0.59337   0.94765   0.00000  Uiso   1.00
C464   C     0.83032   0.61720   0.97729   0.00000  Uiso   1.00
C465   C     0.87279   0.66588   0.00214   0.00000  Uiso   1.00
C466   C     0.77102   0.48274   0.96640   0.00000  Uiso   1.00
C467   C     0.79052   0.45348   0.91139   0.00000  Uiso   1.00
C468   C     0.80365   0.41333   0.92446   0.00000  Uiso   1.00
C469   C     0.83066   0.34403   0.91875   0.00000  Uiso   1.00
C470   C     0.70291   0.53049   0.02137   0.00000  Uiso   1.00
C471   C     0.66514   0.54138   0.01258   0.00000  Uiso   1.00
C472   C     0.62093   0.54142   0.07193   0.00000  Uiso   1.00
C473   C     0.54218   0.54626   0.15156   0.00000  Uiso   1.00
C474   C     0.74285   0.50911   0.08467   0.00000  Uiso   1.00
C475   C     0.77477   0.54825   0.05184   0.00000  Uiso   1.00
C476   C     0.79624   0.57203   0.08155   0.00000  Uiso   1.00
C477   C     0.82413   0.60670   0.04315   0.00000  Uiso   1.00
C478   C     0.76484   0.47226   0.03214   0.00000  Uiso   1.00
C479   C     0.77794   0.43215   0.04530   0.00000  Uiso   1.00
C480   C     0.79746   0.40284   0.99032   0.00000  Uiso   1.00
C481   C     0.69673   0.52002   0.08711   0.00000  Uiso   1.00
C482   C     0.65256   0.52004   0.14648   0.00000  Uiso   1.00
C483   C     0.61474   0.53093   0.13778   0.00000  Uiso   1.00
H484   H     0.75904   0.53655   0.91247   0.00000  Uiso   1.00
H485   H     0.81360   0.60147   0.89677   0.00000  Uiso   1.00
H486   H     0.79530   0.46160   0.86053   0.00000  Uiso   1.00
H487   H     0.66994   0.54948   0.96170   0.00000  Uiso   1.00
H488   H     0.87138   0.66881   0.90835   0.00000  Uiso   1.00
H489   H     0.83278   0.37389   0.83194   0.00000  Uiso   1.00
H490   H     0.56843   0.55920   0.04527   0.00000  Uiso   1.00
H491   H     0.73803   0.50095   0.13586   0.00000  Uiso   1.00
H492   H     0.79145   0.56392   0.13242   0.00000  Uiso   1.00
H493   H     0.77315   0.42405   0.09617   0.00000  Uiso   1.00
H494   H     0.64779   0.51193   0.19734   0.00000  Uiso   1.00
H495   H     0.85341   0.63833   0.09961   0.00000  Uiso   1.00
H496   H     0.81480   0.34341   0.02319   0.00000  Uiso   1.00
H497   H     0.55046   0.52873   0.23653   0.00000  Uiso   1.00
O498   O     0.89792   0.69563   0.99768   0.00000  Uiso   1.00
O499   O     0.84727   0.30870   0.89743   0.00000  Uiso   1.00
O500   O     0.50045   0.55183   0.17732   0.00000  Uiso   1.00
N501   N     0.85981   0.65300   0.95384   0.00000  Uiso   1.00
N502   N     0.82373   0.37727   0.88239   0.00000  Uiso   1.00
N503   N     0.57659   0.55051   0.08184   0.00000  Uiso   1.00
N504   N     0.85014   0.63660   0.05676   0.00000  Uiso   1.00
N505   N     0.81405   0.36087   0.98531   0.00000  Uiso   1.00
N506   N     0.56691   0.53411   0.18476   0.00000  Uiso   1.00
C507   C     0.57008   0.85265   0.25068   0.00000  Uiso   1.00
C508   C     0.62009   0.83541   0.21993   0.00000  Uiso   1.00
C509   C     0.63643   0.79620   0.18536   0.00000  Uiso   1.00
C510   C     0.68334   0.78632   0.16112   0.00000  Uiso   1.00
C511   C     0.75649   0.75523   0.11188   0.00000  Uiso   1.00
C512   C     0.55291   0.86142   0.32762   0.00000  Uiso   1.00
C513   C     0.51277   0.84409   0.38359   0.00000  Uiso   1.00
C514   C     0.50313   0.85611   0.45000   0.00000  Uiso   1.00
C515   C     0.97197   0.36543   0.56796   0.00000  Uiso   1.00
C516   C     0.57443   0.89686   0.21712   0.00000  Uiso   1.00
C517   C     0.55238   0.90933   0.18020   0.00000  Uiso   1.00
C518   C     0.06085   0.45119   0.15359   0.00000  Uiso   1.00
C519   C     0.06311   0.51553   0.09998   0.00000  Uiso   1.00
C520   C     0.62434   0.90480   0.26911   0.00000  Uiso   1.00
C521   C     0.64955   0.86374   0.22995   0.00000  Uiso   1.00
C522   C     0.69645   0.85391   0.20575   0.00000  Uiso   1.00
C523   C     0.71286   0.81470   0.17114   0.00000  Uiso   1.00
C524   C     0.58238   0.88975   0.33764   0.00000  Uiso   1.00
C525   C     0.57279   0.90179   0.40398   0.00000  Uiso   1.00
C526   C     0.53265   0.88449   0.46004   0.00000  Uiso   1.00
C527   C     0.60390   0.92519   0.22713   0.00000  Uiso   1.00
C528   C     0.61240   0.96703   0.20059   0.00000  Uiso   1.00
C529   C     0.09037   0.47957   0.16363   0.00000  Uiso   1.00
H530   H     0.54714   0.83059   0.24289   0.00000  Uiso   1.00
H531   H     0.61361   0.77429   0.17762   0.00000  Uiso   1.00
H532   H     0.48997   0.82217   0.37582   0.00000  Uiso   1.00
H533   H     0.52958   0.88740   0.17246   0.00000  Uiso   1.00
H534   H     0.70030   0.72435   0.10970   0.00000  Uiso   1.00
H535   H     0.93958   0.32533   0.52762   0.00000  Uiso   1.00
H536   H     0.02310   0.46287   0.09879   0.00000  Uiso   1.00
H537   H     0.64728   0.92686   0.27691   0.00000  Uiso   1.00
H538   H     0.71925   0.87584   0.21351   0.00000  Uiso   1.00
H539   H     0.59560   0.92372   0.41171   0.00000  Uiso   1.00
H540   H     0.63521   0.98895   0.20835   0.00000  Uiso   1.00
H541   H     0.78603   0.80677   0.13883   0.00000  Uiso   1.00
H542   H     0.02532   0.40775   0.55675   0.00000  Uiso   1.00
H543   H     0.10884   0.54529   0.12792   0.00000  Uiso   1.00
O544   O     0.78870   0.73025   0.08197   0.00000  Uiso   1.00
O545   O     0.94664   0.36274   0.63026   0.00000  Uiso   1.00
O546   O     0.05622   0.54319   0.06764   0.00000  Uiso   1.00
N547   N     0.71060   0.75075   0.12525   0.00000  Uiso   1.00
N548   N     0.96685   0.34516   0.51598   0.00000  Uiso   1.00
N549   N     0.04492   0.47375   0.11507   0.00000  Uiso   1.00
N550   N     0.75674   0.79510   0.14092   0.00000  Uiso   1.00
N551   N     0.01299   0.38951   0.53165   0.00000  Uiso   1.00
N552   N     0.09106   0.51810   0.13074   0.00000  Uiso   1.00
C553   C     0.32232   0.64365   0.26443   0.00000  Uiso   1.00
C554   C     0.33705   0.64934   0.31941   0.00000  Uiso   1.00
C555   C     0.30892   0.64158   0.39040   0.00000  Uiso   1.00
C556   C     0.32892   0.64871   0.43205   0.00000  Uiso   1.00
C557   C     0.34474   0.65534   0.52174   0.00000  Uiso   1.00
C558   C     0.35780   0.61244   0.21030   0.00000  Uiso   1.00
C559   C     0.34712   0.57365   0.18954   0.00000  Uiso   1.00
C560   C     0.38459   0.54972   0.13932   0.00000  Uiso   1.00
C561   C     0.93261   0.99906   0.05956   0.00000  Uiso   1.00
C562   C     0.33072   0.68732   0.22775   0.00000  Uiso   1.00
C563   C     0.29728   0.71148   0.22165   0.00000  Uiso   1.00
C564   C     0.31195   0.75060   0.18612   0.00000  Uiso   1.00
C565   C     0.31794   0.81621   0.13347   0.00000  Uiso   1.00
C566   C     0.40785   0.67013   0.21215   0.00000  Uiso   1.00
C567   C     0.38351   0.66373   0.29101   0.00000  Uiso   1.00
C568   C     0.40356   0.67088   0.33256   0.00000  Uiso   1.00
C569   C     0.37546   0.66313   0.40360   0.00000  Uiso   1.00
C570   C     0.40426   0.62682   0.18190   0.00000  Uiso   1.00
C571   C     0.44175   0.60295   0.13170   0.00000  Uiso   1.00
C572   C     0.43113   0.56413   0.11087   0.00000  Uiso   1.00
C573   C     0.37718   0.70170   0.19936   0.00000  Uiso   1.00
C574   C     0.39191   0.74078   0.16382   0.00000  Uiso   1.00
C575   C     0.35850   0.76501   0.15767   0.00000  Uiso   1.00
H576   H     0.28615   0.63245   0.28653   0.00000  Uiso   1.00
H577   H     0.27297   0.63044   0.41236   0.00000  Uiso   1.00
H578   H     0.31116   0.56253   0.21151   0.00000  Uiso   1.00
H579   H     0.26133   0.70034   0.24363   0.00000  Uiso   1.00
H580   H     0.27886   0.63455   0.53933   0.00000  Uiso   1.00
H581   H     0.35938   0.49134   0.11583   0.00000  Uiso   1.00
H582   H     0.25430   0.78196   0.18355   0.00000  Uiso   1.00
H583   H     0.44403   0.68133   0.19004   0.00000  Uiso   1.00
H584   H     0.43951   0.68201   0.31057   0.00000  Uiso   1.00
H585   H     0.47770   0.61409   0.10973   0.00000  Uiso   1.00
H586   H     0.42787   0.75191   0.14185   0.00000  Uiso   1.00
H587   H     0.41403   0.67640   0.45672   0.00000  Uiso   1.00
H588   H     0.99455   0.03319   0.03321   0.00000  Uiso   1.00
H589   H     0.38947   0.82381   0.10094   0.00000  Uiso   1.00
O590   O     0.34063   0.65502   0.57905   0.00000  Uiso   1.00
O591   O     0.94627   0.96715   0.02343   0.00000  Uiso   1.00
O592   O     0.30840   0.84843   0.11228   0.00000  Uiso   1.00
N593   N     0.31129   0.64431   0.50335   0.00000  Uiso   1.00
N594   N     0.38657   0.51042   0.10741   0.00000  Uiso   1.00
N595   N     0.28833   0.78212   0.17071   0.00000  Uiso   1.00
N596   N     0.38402   0.66683   0.45890   0.00000  Uiso   1.00
N597   N     0.45930   0.53294   0.06296   0.00000  Uiso   1.00
N598   N     0.36106   0.80464   0.12626   0.00000  Uiso   1.00
C599   C     0.25422   0.97160   0.46365   0.00000  Uiso   1.00
C600   C     0.28095   0.94127   0.48610   0.00000  Uiso   1.00
C601   C     0.30882   0.90663   0.44765   0.00000  Uiso   1.00
C602   C     0.33032   0.88280   0.47729   0.00000  Uiso   1.00
C603   C     0.37279   0.83412   0.50214   0.00000  Uiso   1.00
C604   C     0.27102   0.01726   0.46640   0.00000  Uiso   1.00
C605   C     0.29052   0.04652   0.41139   0.00000  Uiso   1.00
C606   C     0.30365   0.08667   0.42446   0.00000  Uiso   1.00
C607   C     0.33066   0.15597   0.41875   0.00000  Uiso   1.00
C608   C     0.20291   0.96951   0.52137   0.00000  Uiso   1.00
C609   C     0.16514   0.95862   0.51258   0.00000  Uiso   1.00
C610   C     0.12093   0.95858   0.57193   0.00000  Uiso   1.00
C611   C     0.04218   0.95374   0.65156   0.00000  Uiso   1.00
C612   C     0.24285   0.99089   0.58467   0.00000  Uiso   1.00
C613   C     0.27477   0.95175   0.55184   0.00000  Uiso   1.00
C614   C     0.29624   0.92797   0.58155   0.00000  Uiso   1.00
C615   C     0.32413   0.89330   0.54315   0.00000  Uiso   1.00
C616   C     0.26484   0.02774   0.53214   0.00000  Uiso   1.00
C617   C     0.27794   0.06785   0.54530   0.00000  Uiso   1.00
C618   C     0.29746   0.09716   0.49032   0.00000  Uiso   1.00
C619   C     0.19673   0.97998   0.58711   0.00000  Uiso   1.00
C620   C     0.15256   0.97996   0.64648   0.00000  Uiso   1.00
C621   C     0.11474   0.96907   0.63778   0.00000  Uiso   1.00
H622   H     0.25904   0.96345   0.41247   0.00000  Uiso   1.00
H623   H     0.31360   0.89853   0.39677   0.00000  Uiso   1.00
H624   H     0.29530   0.03840   0.36053   0.00000  Uiso   1.00
H625   H     0.16994   0.95052   0.46170   0.00000  Uiso   1.00
H626   H     0.37138   0.83119   0.40835   0.00000  Uiso   1.00
H627   H     0.33278   0.12611   0.33194   0.00000  Uiso   1.00
H628   H     0.06843   0.94080   0.54527   0.00000  Uiso   1.00
H629   H     0.23803   0.99905   0.63586   0.00000  Uiso   1.00
H630   H     0.29145   0.93608   0.63242   0.00000  Uiso   1.00
H631   H     0.27315   0.07595   0.59617   0.00000  Uiso   1.00
H632   H     0.14779   0.98807   0.69734   0.00000  Uiso   1.00
H633   H     0.35341   0.86167   0.59961   0.00000  Uiso   1.00
H634   H     0.31480   0.15659   0.52319   0.00000  Uiso   1.00
H635   H     0.05046   0.97127   0.73653   0.00000  Uiso   1.00
O636   O     0.39792   0.80437   0.49768   0.00000  Uiso   1.00
O637   O     0.34727   0.19130   0.39743   0.00000  Uiso   1.00
O638   O     0.00045   0.94817   0.67732   0.00000  Uiso   1.00
N639   N     0.35981   0.84700   0.45384   0.00000  Uiso   1.00
N640   N     0.32373   0.12273   0.38239   0.00000  Uiso   1.00
N641   N     0.07659   0.94949   0.58184   0.00000  Uiso   1.00
N642   N     0.35014   0.86340   0.55676   0.00000  Uiso   1.00
N643   N     0.31405   0.13913   0.48531   0.00000  Uiso   1.00
N644   N     0.06691   0.96589   0.68476   0.00000  Uiso   1.00
C645   C     0.07008   0.64735   0.75068   0.00000  Uiso   1.00
C646   C     0.12009   0.66459   0.71993   0.00000  Uiso   1.00
C647   C     0.13643   0.70380   0.68536   0.00000  Uiso   1.00
C648   C     0.18334   0.71368   0.66112   0.00000  Uiso   1.00
C649   C     0.25649   0.74477   0.61188   0.00000  Uiso   1.00
C650   C     0.05291   0.63858   0.82762   0.00000  Uiso   1.00
C651   C     0.01277   0.65591   0.88359   0.00000  Uiso   1.00
C652   C     0.00313   0.64389   0.95000   0.00000  Uiso   1.00
C653   C     0.47197   0.13457   0.06796   0.00000  Uiso   1.00
C654   C     0.07443   0.60314   0.71712   0.00000  Uiso   1.00
C655   C     0.05238   0.59067   0.68020   0.00000  Uiso   1.00
C656   C     0.56085   0.04881   0.65359   0.00000  Uiso   1.00
C657   C     0.56311   0.98447   0.59998   0.00000  Uiso   1.00
C658   C     0.12434   0.59520   0.76911   0.00000  Uiso   1.00
C659   C     0.14955   0.63626   0.72995   0.00000  Uiso   1.00
C660   C     0.19645   0.64609   0.70575   0.00000  Uiso   1.00
C661   C     0.21286   0.68530   0.67114   0.00000  Uiso   1.00
C662   C     0.08238   0.61025   0.83764   0.00000  Uiso   1.00
C663   C     0.07279   0.59821   0.90398   0.00000  Uiso   1.00
C664   C     0.03265   0.61551   0.96004   0.00000  Uiso   1.00
C665   C     0.10390   0.57481   0.72713   0.00000  Uiso   1.00
C666   C     0.11240   0.53297   0.70059   0.00000  Uiso   1.00
C667   C     0.59037   0.02043   0.66363   0.00000  Uiso   1.00
H668   H     0.04714   0.66941   0.74289   0.00000  Uiso   1.00
H669   H     0.11361   0.72571   0.67762   0.00000  Uiso   1.00
H670   H     0.98997   0.67783   0.87582   0.00000  Uiso   1.00
H671   H     0.02958   0.61260   0.67246   0.00000  Uiso   1.00
H672   H     0.20030   0.77565   0.60970   0.00000  Uiso   1.00
H673   H     0.43958   0.17467   0.02762   0.00000  Uiso   1.00
H674   H     0.52310   0.03713   0.59879   0.00000  Uiso   1.00
H675   H     0.14728   0.57314   0.77691   0.00000  Uiso   1.00
H676   H     0.21925   0.62416   0.71351   0.00000  Uiso   1.00
H677   H     0.09560   0.57628   0.91171   0.00000  Uiso   1.00
H678   H     0.13521   0.51105   0.70835   0.00000  Uiso   1.00
H679   H     0.28603   0.69323   0.63883   0.00000  Uiso   1.00
H680   H     0.52532   0.09225   0.05675   0.00000  Uiso   1.00
H681   H     0.60884   0.95471   0.62792   0.00000  Uiso   1.00
O682   O     0.28870   0.76975   0.58197   0.00000  Uiso   1.00
O683   O     0.44664   0.13726   0.13026   0.00000  Uiso   1.00
O684   O     0.55622   0.95681   0.56764   0.00000  Uiso   1.00
N685   N     0.21060   0.74925   0.62525   0.00000  Uiso   1.00
N686   N     0.46685   0.15484   0.01598   0.00000  Uiso   1.00
N687   N     0.54492   0.02625   0.61507   0.00000  Uiso   1.00
N688   N     0.25674   0.70490   0.64092   0.00000  Uiso   1.00
N689   N     0.51299   0.11049   0.03165   0.00000  Uiso   1.00
N690   N     0.59106   0.98190   0.63074   0.00000  Uiso   1.00
C691   C     0.82232   0.14365   0.26443   0.00000  Uiso   1.00
C692   C     0.83705   0.14934   0.31941   0.00000  Uiso   1.00
C693   C     0.80892   0.14158   0.39040   0.00000  Uiso   1.00
C694   C     0.82892   0.14871   0.43205   0.00000  Uiso   1.00
C695   C     0.84474   0.15534   0.52174   0.00000  Uiso   1.00
C696   C     0.85780   0.11244   0.21030   0.00000  Uiso   1.00
C697   C     0.84712   0.07365   0.18954   0.00000  Uiso   1.00
C698   C     0.88459   0.04972   0.13932   0.00000  Uiso   1.00
C699   C     0.43261   0.49906   0.05956   0.00000  Uiso   1.00
C700   C     0.83072   0.18732   0.22775   0.00000  Uiso   1.00
C701   C     0.79728   0.21148   0.22165   0.00000  Uiso   1.00
C702   C     0.81195   0.25060   0.18612   0.00000  Uiso   1.00
C703   C     0.81794   0.31621   0.13347   0.00000  Uiso   1.00
C704   C     0.90785   0.17013   0.21215   0.00000  Uiso   1.00
C705   C     0.88351   0.16373   0.29101   0.00000  Uiso   1.00
C706   C     0.90356   0.17088   0.33256   0.00000  Uiso   1.00
C707   C     0.87546   0.16313   0.40360   0.00000  Uiso   1.00
C708   C     0.90426   0.12682   0.18190   0.00000  Uiso   1.00
C709   C     0.94175   0.10295   0.13170   0.00000  Uiso   1.00
C710   C     0.93113   0.06413   0.11087   0.00000  Uiso   1.00
C711   C     0.87718   0.20170   0.19936   0.00000  Uiso   1.00
C712   C     0.89191   0.24078   0.16382   0.00000  Uiso   1.00
C713   C     0.85850   0.26501   0.15767   0.00000  Uiso   1.00
H714   H     0.78615   0.13245   0.28653   0.00000  Uiso   1.00
H715   H     0.77297   0.13044   0.41236   0.00000  Uiso   1.00
H716   H     0.81116   0.06253   0.21151   0.00000  Uiso   1.00
H717   H     0.76133   0.20034   0.24363   0.00000  Uiso   1.00
H718   H     0.77886   0.13455   0.53933   0.00000  Uiso   1.00
H719   H     0.85938   0.99134   0.11583   0.00000  Uiso   1.00
H720   H     0.75430   0.28196   0.18355   0.00000  Uiso   1.00
H721   H     0.94403   0.18133   0.19004   0.00000  Uiso   1.00
H722   H     0.93951   0.18201   0.31057   0.00000  Uiso   1.00
H723   H     0.97770   0.11409   0.10973   0.00000  Uiso   1.00
H724   H     0.92787   0.25191   0.14185   0.00000  Uiso   1.00
H725   H     0.91403   0.17640   0.45672   0.00000  Uiso   1.00
H726   H     0.49455   0.53319   0.03321   0.00000  Uiso   1.00
H727   H     0.88947   0.32381   0.10094   0.00000  Uiso   1.00
O728   O     0.84063   0.15502   0.57905   0.00000  Uiso   1.00
O729   O     0.44627   0.46715   0.02343   0.00000  Uiso   1.00
O730   O     0.80840   0.34843   0.11228   0.00000  Uiso   1.00
N731   N     0.81129   0.14431   0.50335   0.00000  Uiso   1.00
N732   N     0.88657   0.01042   0.10741   0.00000  Uiso   1.00
N733   N     0.78833   0.28212   0.17071   0.00000  Uiso   1.00
N734   N     0.88402   0.16683   0.45890   0.00000  Uiso   1.00
N735   N     0.95930   0.03294   0.06296   0.00000  Uiso   1.00
N736   N     0.86106   0.30464   0.12626   0.00000  Uiso   1.00
C737   C     0.75422   0.47160   0.46365   0.00000  Uiso   1.00
C738   C     0.78095   0.44127   0.48610   0.00000  Uiso   1.00
C739   C     0.80882   0.40663   0.44765   0.00000  Uiso   1.00
C740   C     0.83032   0.38280   0.47729   0.00000  Uiso   1.00
C741   C     0.87279   0.33412   0.50214   0.00000  Uiso   1.00
C742   C     0.77102   0.51726   0.46640   0.00000  Uiso   1.00
C743   C     0.79052   0.54652   0.41139   0.00000  Uiso   1.00
C744   C     0.80365   0.58667   0.42446   0.00000  Uiso   1.00
C745   C     0.83066   0.65597   0.41875   0.00000  Uiso   1.00
C746   C     0.70291   0.46951   0.52137   0.00000  Uiso   1.00
C747   C     0.66514   0.45862   0.51258   0.00000  Uiso   1.00
C748   C     0.62093   0.45858   0.57193   0.00000  Uiso   1.00
C749   C     0.54218   0.45374   0.65156   0.00000  Uiso   1.00
C750   C     0.74285   0.49089   0.58467   0.00000  Uiso   1.00
C751   C     0.77477   0.45175   0.55184   0.00000  Uiso   1.00
C752   C     0.79624   0.42797   0.58155   0.00000  Uiso   1.00
C753   C     0.82413   0.39330   0.54315   0.00000  Uiso   1.00
C754   C     0.76484   0.52774   0.53214   0.00000  Uiso   1.00
C755   C     0.77794   0.56785   0.54530   0.00000  Uiso   1.00
C756   C     0.79746   0.59716   0.49032   0.00000  Uiso   1.00
C757   C     0.69673   0.47998   0.58711   0.00000  Uiso   1.00
C758   C     0.65256   0.47996   0.64648   0.00000  Uiso   1.00
C759   C     0.61474   0.46907   0.63778   0.00000  Uiso   1.00
H760   H     0.75904   0.46345   0.41247   0.00000  Uiso   1.00
H761   H     0.81360   0.39853   0.39677   0.00000  Uiso   1.00
H762   H     0.79530   0.53840   0.36053   0.00000  Uiso   1.00
H763   H     0.66994   0.45052   0.46170   0.00000  Uiso   1.00
H764   H     0.87138   0.33119   0.40835   0.00000  Uiso   1.00
H765   H     0.83278   0.62611   0.33194   0.00000  Uiso   1.00
H766   H     0.56843   0.44080   0.54527   0.00000  Uiso   1.00
H767   H     0.73803   0.49905   0.63586   0.00000  Uiso   1.00
H768   H     0.79145   0.43608   0.63242   0.00000  Uiso   1.00
H769   H     0.77315   0.57595   0.59617   0.00000  Uiso   1.00
H770   H     0.64779   0.48807   0.69734   0.00000  Uiso   1.00
H771   H     0.85341   0.36167   0.59961   0.00000  Uiso   1.00
H772   H     0.81480   0.65659   0.52319   0.00000  Uiso   1.00
H773   H     0.55046   0.47127   0.73653   0.00000  Uiso   1.00
O774   O     0.89792   0.30437   0.49768   0.00000  Uiso   1.00
O775   O     0.84727   0.69130   0.39743   0.00000  Uiso   1.00
O776   O     0.50045   0.44817   0.67732   0.00000  Uiso   1.00
N777   N     0.85981   0.34700   0.45384   0.00000  Uiso   1.00
N778   N     0.82373   0.62273   0.38239   0.00000  Uiso   1.00
N779   N     0.57659   0.44949   0.58184   0.00000  Uiso   1.00
N780   N     0.85014   0.36340   0.55676   0.00000  Uiso   1.00
N781   N     0.81405   0.63913   0.48531   0.00000  Uiso   1.00
N782   N     0.56691   0.46589   0.68476   0.00000  Uiso   1.00
C783   C     0.57008   0.14735   0.75068   0.00000  Uiso   1.00
C784   C     0.62009   0.16459   0.71993   0.00000  Uiso   1.00
C785   C     0.63643   0.20380   0.68536   0.00000  Uiso   1.00
C786   C     0.68334   0.21368   0.66112   0.00000  Uiso   1.00
C787   C     0.75649   0.24477   0.61188   0.00000  Uiso   1.00
C788   C     0.55291   0.13858   0.82762   0.00000  Uiso   1.00
C789   C     0.51277   0.15591   0.88359   0.00000  Uiso   1.00
C790   C     0.50313   0.14389   0.95000   0.00000  Uiso   1.00
C791   C     0.97197   0.63457   0.06796   0.00000  Uiso   1.00
C792   C     0.57443   0.10314   0.71712   0.00000  Uiso   1.00
C793   C     0.55238   0.09067   0.68020   0.00000  Uiso   1.00
C794   C     0.06085   0.54881   0.65359   0.00000  Uiso   1.00
C795   C     0.06311   0.48447   0.59998   0.00000  Uiso   1.00
C796   C     0.62434   0.09520   0.76911   0.00000  Uiso   1.00
C797   C     0.64955   0.13626   0.72995   0.00000  Uiso   1.00
C798   C     0.69645   0.14609   0.70575   0.00000  Uiso   1.00
C799   C     0.71286   0.18530   0.67114   0.00000  Uiso   1.00
C800   C     0.58238   0.11025   0.83764   0.00000  Uiso   1.00
C801   C     0.57279   0.09821   0.90398   0.00000  Uiso   1.00
C802   C     0.53265   0.11551   0.96004   0.00000  Uiso   1.00
C803   C     0.60390   0.07481   0.72713   0.00000  Uiso   1.00
C804   C     0.61240   0.03297   0.70059   0.00000  Uiso   1.00
C805   C     0.09037   0.52043   0.66363   0.00000  Uiso   1.00
H806   H     0.54714   0.16941   0.74289   0.00000  Uiso   1.00
H807   H     0.61361   0.22571   0.67762   0.00000  Uiso   1.00
H808   H     0.48997   0.17783   0.87582   0.00000  Uiso   1.00
H809   H     0.52958   0.11260   0.67246   0.00000  Uiso   1.00
H810   H     0.70030   0.27565   0.60970   0.00000  Uiso   1.00
H811   H     0.93958   0.67467   0.02762   0.00000  Uiso   1.00
H812   H     0.02310   0.53713   0.59879   0.00000  Uiso   1.00
H813   H     0.64728   0.07314   0.77691   0.00000  Uiso   1.00
H814   H     0.71925   0.12416   0.71351   0.00000  Uiso   1.00
H815   H     0.59560   0.07628   0.91171   0.00000  Uiso   1.00
H816   H     0.63521   0.01105   0.70835   0.00000  Uiso   1.00
H817   H     0.78603   0.19323   0.63883   0.00000  Uiso   1.00
H818   H     0.02532   0.59225   0.05675   0.00000  Uiso   1.00
H819   H     0.10884   0.45471   0.62792   0.00000  Uiso   1.00
O820   O     0.78870   0.26975   0.58197   0.00000  Uiso   1.00
O821   O     0.94664   0.63726   0.13026   0.00000  Uiso   1.00
O822   O     0.05622   0.45681   0.56764   0.00000  Uiso   1.00
N823   N     0.71060   0.24925   0.62525   0.00000  Uiso   1.00
N824   N     0.96685   0.65484   0.01598   0.00000  Uiso   1.00
N825   N     0.04492   0.52625   0.61507   0.00000  Uiso   1.00
N826   N     0.75674   0.20490   0.64092   0.00000  Uiso   1.00
N827   N     0.01299   0.61049   0.03165   0.00000  Uiso   1.00
N828   N     0.09106   0.48190   0.63074   0.00000  Uiso   1.00
C829   C     0.67768   0.64365   0.23557   0.00000  Uiso   1.00
C830   C     0.66295   0.64934   0.18059   0.00000  Uiso   1.00
C831   C     0.69108   0.64158   0.10960   0.00000  Uiso   1.00
C832   C     0.67108   0.64871   0.06795   0.00000  Uiso   1.00
C833   C     0.65526   0.65534   0.97826   0.00000  Uiso   1.00
C834   C     0.64220   0.61244   0.28970   0.00000  Uiso   1.00
C835   C     0.65288   0.57365   0.31046   0.00000  Uiso   1.00
C836   C     0.61541   0.54972   0.36068   0.00000  Uiso   1.00
C837   C     0.06739   0.99906   0.44044   0.00000  Uiso   1.00
C838   C     0.66928   0.68732   0.27225   0.00000  Uiso   1.00
C839   C     0.70272   0.71148   0.27835   0.00000  Uiso   1.00
C840   C     0.68805   0.75060   0.31388   0.00000  Uiso   1.00
C841   C     0.68206   0.81621   0.36653   0.00000  Uiso   1.00
C842   C     0.59215   0.67013   0.28785   0.00000  Uiso   1.00
C843   C     0.61649   0.66373   0.20899   0.00000  Uiso   1.00
C844   C     0.59644   0.67088   0.16744   0.00000  Uiso   1.00
C845   C     0.62454   0.66313   0.09640   0.00000  Uiso   1.00
C846   C     0.59574   0.62682   0.31810   0.00000  Uiso   1.00
C847   C     0.55825   0.60295   0.36830   0.00000  Uiso   1.00
C848   C     0.56887   0.56413   0.38913   0.00000  Uiso   1.00
C849   C     0.62282   0.70170   0.30064   0.00000  Uiso   1.00
C850   C     0.60809   0.74078   0.33618   0.00000  Uiso   1.00
C851   C     0.64150   0.76501   0.34233   0.00000  Uiso   1.00
H852   H     0.71385   0.63245   0.21347   0.00000  Uiso   1.00
H853   H     0.72703   0.63044   0.08764   0.00000  Uiso   1.00
H854   H     0.68884   0.56253   0.28849   0.00000  Uiso   1.00
H855   H     0.73867   0.70034   0.25637   0.00000  Uiso   1.00
H856   H     0.72114   0.63455   0.96067   0.00000  Uiso   1.00
H857   H     0.64062   0.49134   0.38417   0.00000  Uiso   1.00
H858   H     0.74570   0.78196   0.31645   0.00000  Uiso   1.00
H859   H     0.55597   0.68133   0.30996   0.00000  Uiso   1.00
H860   H     0.56049   0.68201   0.18943   0.00000  Uiso   1.00
H861   H     0.52230   0.61409   0.39027   0.00000  Uiso   1.00
H862   H     0.57213   0.75191   0.35815   0.00000  Uiso   1.00
H863   H     0.58597   0.67640   0.04328   0.00000  Uiso   1.00
H864   H     0.00545   0.03319   0.46679   0.00000  Uiso   1.00
H865   H     0.61053   0.82381   0.39906   0.00000  Uiso   1.00
O866   O     0.65937   0.65502   0.92095   0.00000  Uiso   1.00
O867   O     0.05373   0.96715   0.47657   0.00000  Uiso   1.00
O868   O     0.69160   0.84843   0.38772   0.00000  Uiso   1.00
N869   N     0.68871   0.64431   0.99665   0.00000  Uiso   1.00
N870   N     0.61343   0.51042   0.39259   0.00000  Uiso   1.00
N871   N     0.71167   0.78212   0.32929   0.00000  Uiso   1.00
N872   N     0.61598   0.66683   0.04110   0.00000  Uiso   1.00
N873   N     0.54070   0.53294   0.43704   0.00000  Uiso   1.00
N874   N     0.63894   0.80464   0.37374   0.00000  Uiso   1.00
C875   C     0.74578   0.97160   0.03635   0.00000  Uiso   1.00
C876   C     0.71905   0.94127   0.01390   0.00000  Uiso   1.00
C877   C     0.69118   0.90663   0.05235   0.00000  Uiso   1.00
C878   C     0.66968   0.88280   0.02271   0.00000  Uiso   1.00
C879   C     0.62721   0.83412   0.99786   0.00000  Uiso   1.00
C880   C     0.72898   0.01726   0.03360   0.00000  Uiso   1.00
C881   C     0.70948   0.04652   0.08861   0.00000  Uiso   1.00
C882   C     0.69635   0.08667   0.07554   0.00000  Uiso   1.00
C883   C     0.66934   0.15597   0.08125   0.00000  Uiso   1.00
C884   C     0.79709   0.96951   0.97863   0.00000  Uiso   1.00
C885   C     0.83486   0.95862   0.98742   0.00000  Uiso   1.00
C886   C     0.87907   0.95858   0.92807   0.00000  Uiso   1.00
C887   C     0.95782   0.95374   0.84844   0.00000  Uiso   1.00
C888   C     0.75715   0.99089   0.91533   0.00000  Uiso   1.00
C889   C     0.72523   0.95175   0.94816   0.00000  Uiso   1.00
C890   C     0.70376   0.92797   0.91845   0.00000  Uiso   1.00
C891   C     0.67587   0.89330   0.95685   0.00000  Uiso   1.00
C892   C     0.73516   0.02774   0.96786   0.00000  Uiso   1.00
C893   C     0.72206   0.06785   0.95470   0.00000  Uiso   1.00
C894   C     0.70254   0.09716   0.00968   0.00000  Uiso   1.00
C895   C     0.80327   0.97998   0.91289   0.00000  Uiso   1.00
C896   C     0.84744   0.97996   0.85352   0.00000  Uiso   1.00
C897   C     0.88526   0.96907   0.86222   0.00000  Uiso   1.00
H898   H     0.74096   0.96345   0.08753   0.00000  Uiso   1.00
H899   H     0.68640   0.89853   0.10323   0.00000  Uiso   1.00
H900   H     0.70470   0.03840   0.13947   0.00000  Uiso   1.00
H901   H     0.83006   0.95052   0.03830   0.00000  Uiso   1.00
H902   H     0.62862   0.83119   0.09165   0.00000  Uiso   1.00
H903   H     0.66722   0.12611   0.16806   0.00000  Uiso   1.00
H904   H     0.93157   0.94080   0.95473   0.00000  Uiso   1.00
H905   H     0.76197   0.99905   0.86414   0.00000  Uiso   1.00
H906   H     0.70855   0.93608   0.86758   0.00000  Uiso   1.00
H907   H     0.72685   0.07595   0.90383   0.00000  Uiso   1.00
H908   H     0.85221   0.98807   0.80266   0.00000  Uiso   1.00
H909   H     0.64659   0.86167   0.90039   0.00000  Uiso   1.00
H910   H     0.68520   0.15659   0.97681   0.00000  Uiso   1.00
H911   H     0.94954   0.97127   0.76347   0.00000  Uiso   1.00
O912   O     0.60208   0.80437   0.00232   0.00000  Uiso   1.00
O913   O     0.65273   0.19130   0.10257   0.00000  Uiso   1.00
O914   O     0.99955   0.94817   0.82268   0.00000  Uiso   1.00
N915   N     0.64019   0.84700   0.04616   0.00000  Uiso   1.00
N916   N     0.67627   0.12273   0.11761   0.00000  Uiso   1.00
N917   N     0.92341   0.94949   0.91816   0.00000  Uiso   1.00
N918   N     0.64986   0.86340   0.94324   0.00000  Uiso   1.00
N919   N     0.68595   0.13913   0.01469   0.00000  Uiso   1.00
N920   N     0.93309   0.96589   0.81524   0.00000  Uiso   1.00
C921   C     0.92992   0.64735   0.74932   0.00000  Uiso   1.00
C922   C     0.87991   0.66459   0.78007   0.00000  Uiso   1.00
C923   C     0.86357   0.70380   0.81464   0.00000  Uiso   1.00
C924   C     0.81666   0.71368   0.83888   0.00000  Uiso   1.00
C925   C     0.74351   0.74477   0.88812   0.00000  Uiso   1.00
C926   C     0.94709   0.63858   0.67238   0.00000  Uiso   1.00
C927   C     0.98723   0.65591   0.61641   0.00000  Uiso   1.00
C928   C     0.99687   0.64389   0.55000   0.00000  Uiso   1.00
C929   C     0.52803   0.13457   0.43204   0.00000  Uiso   1.00
C930   C     0.92557   0.60314   0.78288   0.00000  Uiso   1.00
C931   C     0.94762   0.59067   0.81980   0.00000  Uiso   1.00
C932   C     0.43915   0.04881   0.84641   0.00000  Uiso   1.00
C933   C     0.43689   0.98447   0.90002   0.00000  Uiso   1.00
C934   C     0.87566   0.59520   0.73089   0.00000  Uiso   1.00
C935   C     0.85045   0.63626   0.77005   0.00000  Uiso   1.00
C936   C     0.80355   0.64609   0.79425   0.00000  Uiso   1.00
C937   C     0.78714   0.68530   0.82886   0.00000  Uiso   1.00
C938   C     0.91762   0.61025   0.66236   0.00000  Uiso   1.00
C939   C     0.92721   0.59821   0.59602   0.00000  Uiso   1.00
C940   C     0.96735   0.61551   0.53996   0.00000  Uiso   1.00
C941   C     0.89610   0.57481   0.77287   0.00000  Uiso   1.00
C942   C     0.88760   0.53297   0.79941   0.00000  Uiso   1.00
C943   C     0.40963   0.02043   0.83637   0.00000  Uiso   1.00
H944   H     0.95286   0.66941   0.75711   0.00000  Uiso   1.00
H945   H     0.88639   0.72571   0.82238   0.00000  Uiso   1.00
H946   H     0.01003   0.67783   0.62418   0.00000  Uiso   1.00
H947   H     0.97042   0.61260   0.82754   0.00000  Uiso   1.00
H948   H     0.79970   0.77565   0.89030   0.00000  Uiso   1.00
H949   H     0.56042   0.17467   0.47238   0.00000  Uiso   1.00
H950   H     0.47690   0.03713   0.90121   0.00000  Uiso   1.00
H951   H     0.85272   0.57314   0.72309   0.00000  Uiso   1.00
H952   H     0.78075   0.62416   0.78649   0.00000  Uiso   1.00
H953   H     0.90440   0.57628   0.58829   0.00000  Uiso   1.00
H954   H     0.86479   0.51105   0.79165   0.00000  Uiso   1.00
H955   H     0.71397   0.69323   0.86117   0.00000  Uiso   1.00
H956   H     0.47468   0.09225   0.44325   0.00000  Uiso   1.00
H957   H     0.39116   0.95471   0.87208   0.00000  Uiso   1.00
O958   O     0.71130   0.76975   0.91803   0.00000  Uiso   1.00
O959   O     0.55336   0.13726   0.36974   0.00000  Uiso   1.00
O960   O     0.44378   0.95681   0.93236   0.00000  Uiso   1.00
N961   N     0.78940   0.74925   0.87475   0.00000  Uiso   1.00
N962   N     0.53315   0.15484   0.48402   0.00000  Uiso   1.00
N963   N     0.45508   0.02625   0.88493   0.00000  Uiso   1.00
N964   N     0.74326   0.70490   0.85908   0.00000  Uiso   1.00
N965   N     0.48701   0.11049   0.46835   0.00000  Uiso   1.00
N966   N     0.40894   0.98190   0.86926   0.00000  Uiso   1.00
C967   C     0.17768   0.14365   0.23557   0.00000  Uiso   1.00
C968   C     0.16295   0.14934   0.18059   0.00000  Uiso   1.00
C969   C     0.19108   0.14158   0.10960   0.00000  Uiso   1.00
C970   C     0.17108   0.14871   0.06795   0.00000  Uiso   1.00
C971   C     0.15526   0.15534   0.97826   0.00000  Uiso   1.00
C972   C     0.14220   0.11244   0.28970   0.00000  Uiso   1.00
C973   C     0.15288   0.07365   0.31046   0.00000  Uiso   1.00
C974   C     0.11541   0.04972   0.36068   0.00000  Uiso   1.00
C975   C     0.56739   0.49906   0.44044   0.00000  Uiso   1.00
C976   C     0.16928   0.18732   0.27225   0.00000  Uiso   1.00
C977   C     0.20272   0.21148   0.27835   0.00000  Uiso   1.00
C978   C     0.18805   0.25060   0.31388   0.00000  Uiso   1.00
C979   C     0.18206   0.31621   0.36653   0.00000  Uiso   1.00
C980   C     0.09215   0.17013   0.28785   0.00000  Uiso   1.00
C981   C     0.11649   0.16373   0.20899   0.00000  Uiso   1.00
C982   C     0.09644   0.17088   0.16744   0.00000  Uiso   1.00
C983   C     0.12454   0.16313   0.09640   0.00000  Uiso   1.00
C984   C     0.09574   0.12682   0.31810   0.00000  Uiso   1.00
C985   C     0.05825   0.10295   0.36830   0.00000  Uiso   1.00
C986   C     0.06887   0.06413   0.38913   0.00000  Uiso   1.00
C987   C     0.12282   0.20170   0.30064   0.00000  Uiso   1.00
C988   C     0.10809   0.24078   0.33618   0.00000  Uiso   1.00
C989   C     0.14150   0.26501   0.34233   0.00000  Uiso   1.00
H990   H     0.21385   0.13245   0.21347   0.00000  Uiso   1.00
H991   H     0.22703   0.13044   0.08764   0.00000  Uiso   1.00
H992   H     0.18884   0.06253   0.28849   0.00000  Uiso   1.00
H993   H     0.23867   0.20034   0.25637   0.00000  Uiso   1.00
H994   H     0.22114   0.13455   0.96067   0.00000  Uiso   1.00
H995   H     0.14062   0.99134   0.38417   0.00000  Uiso   1.00
H996   H     0.24570   0.28196   0.31645   0.00000  Uiso   1.00
H997   H     0.05597   0.18133   0.30996   0.00000  Uiso   1.00
H998   H     0.06049   0.18201   0.18943   0.00000  Uiso   1.00
H999   H     0.02230   0.11409   0.39027   0.00000  Uiso   1.00
H1000  H     0.07213   0.25191   0.35815   0.00000  Uiso   1.00
H1001  H     0.08597   0.17640   0.04328   0.00000  Uiso   1.00
H1002  H     0.50545   0.53319   0.46679   0.00000  Uiso   1.00
H1003  H     0.11053   0.32381   0.39906   0.00000  Uiso   1.00
O1004  O     0.15937   0.15502   0.92095   0.00000  Uiso   1.00
O1005  O     0.55373   0.46715   0.47657   0.00000  Uiso   1.00
O1006  O     0.19160   0.34843   0.38772   0.00000  Uiso   1.00
N1007  N     0.18871   0.14431   0.99665   0.00000  Uiso   1.00
N1008  N     0.11343   0.01042   0.39259   0.00000  Uiso   1.00
N1009  N     0.21167   0.28212   0.32929   0.00000  Uiso   1.00
N1010  N     0.11598   0.16683   0.04110   0.00000  Uiso   1.00
N1011  N     0.04070   0.03294   0.43704   0.00000  Uiso   1.00
N1012  N     0.13894   0.30464   0.37374   0.00000  Uiso   1.00
C1013  C     0.24578   0.47160   0.03635   0.00000  Uiso   1.00
C1014  C     0.21905   0.44127   0.01390   0.00000  Uiso   1.00
C1015  C     0.19118   0.40663   0.05235   0.00000  Uiso   1.00
C1016  C     0.16968   0.38280   0.02271   0.00000  Uiso   1.00
C1017  C     0.12721   0.33412   0.99786   0.00000  Uiso   1.00
C1018  C     0.22898   0.51726   0.03360   0.00000  Uiso   1.00
C1019  C     0.20948   0.54652   0.08861   0.00000  Uiso   1.00
C1020  C     0.19635   0.58667   0.07554   0.00000  Uiso   1.00
C1021  C     0.16934   0.65597   0.08125   0.00000  Uiso   1.00
C1022  C     0.29709   0.46951   0.97863   0.00000  Uiso   1.00
C1023  C     0.33486   0.45862   0.98742   0.00000  Uiso   1.00
C1024  C     0.37907   0.45858   0.92807   0.00000  Uiso   1.00
C1025  C     0.45782   0.45374   0.84844   0.00000  Uiso   1.00
C1026  C     0.25715   0.49089   0.91533   0.00000  Uiso   1.00
C1027  C     0.22523   0.45175   0.94816   0.00000  Uiso   1.00
C1028  C     0.20376   0.42797   0.91845   0.00000  Uiso   1.00
C1029  C     0.17587   0.39330   0.95685   0.00000  Uiso   1.00
C1030  C     0.23516   0.52774   0.96786   0.00000  Uiso   1.00
C1031  C     0.22206   0.56785   0.95470   0.00000  Uiso   1.00
C1032  C     0.20254   0.59716   0.00968   0.00000  Uiso   1.00
C1033  C     0.30327   0.47998   0.91289   0.00000  Uiso   1.00
C1034  C     0.34744   0.47996   0.85352   0.00000  Uiso   1.00
C1035  C     0.38526   0.46907   0.86222   0.00000  Uiso   1.00
H1036  H     0.24096   0.46345   0.08753   0.00000  Uiso   1.00
H1037  H     0.18640   0.39853   0.10323   0.00000  Uiso   1.00
H1038  H     0.20470   0.53840   0.13947   0.00000  Uiso   1.00
H1039  H     0.33006   0.45052   0.03830   0.00000  Uiso   1.00
H1040  H     0.12862   0.33119   0.09165   0.00000  Uiso   1.00
H1041  H     0.16722   0.62611   0.16806   0.00000  Uiso   1.00
H1042  H     0.43157   0.44080   0.95473   0.00000  Uiso   1.00
H1043  H     0.26197   0.49905   0.86414   0.00000  Uiso   1.00
H1044  H     0.20855   0.43608   0.86758   0.00000  Uiso   1.00
H1045  H     0.22685   0.57595   0.90383   0.00000  Uiso   1.00
H1046  H     0.35221   0.48807   0.80266   0.00000  Uiso   1.00
H1047  H     0.14659   0.36167   0.90039   0.00000  Uiso   1.00
H1048  H     0.18520   0.65659   0.97681   0.00000  Uiso   1.00
H1049  H     0.44954   0.47127   0.76347   0.00000  Uiso   1.00
O1050  O     0.10208   0.30437   0.00232   0.00000  Uiso   1.00
O1051  O     0.15273   0.69130   0.10257   0.00000  Uiso   1.00
O1052  O     0.49955   0.44817   0.82268   0.00000  Uiso   1.00
N1053  N     0.14019   0.34700   0.04616   0.00000  Uiso   1.00
N1054  N     0.17627   0.62273   0.11761   0.00000  Uiso   1.00
N1055  N     0.42341   0.44949   0.91816   0.00000  Uiso   1.00
N1056  N     0.14986   0.36340   0.94324   0.00000  Uiso   1.00
N1057  N     0.18595   0.63913   0.01469   0.00000  Uiso   1.00
N1058  N     0.43309   0.46589   0.81524   0.00000  Uiso   1.00
C1059  C     0.42992   0.14735   0.74932   0.00000  Uiso   1.00
C1060  C     0.37991   0.16459   0.78007   0.00000  Uiso   1.00
C1061  C     0.36357   0.20380   0.81464   0.00000  Uiso   1.00
C1062  C     0.31666   0.21368   0.83888   0.00000  Uiso   1.00
C1063  C     0.24351   0.24477   0.88812   0.00000  Uiso   1.00
C1064  C     0.44709   0.13858   0.67238   0.00000  Uiso   1.00
C1065  C     0.48723   0.15591   0.61641   0.00000  Uiso   1.00
C1066  C     0.49687   0.14389   0.55000   0.00000  Uiso   1.00
C1067  C     0.02803   0.63457   0.43204   0.00000  Uiso   1.00
C1068  C     0.42557   0.10314   0.78288   0.00000  Uiso   1.00
C1069  C     0.44762   0.09067   0.81980   0.00000  Uiso   1.00
C1070  C     0.93915   0.54881   0.84641   0.00000  Uiso   1.00
C1071  C     0.93689   0.48447   0.90002   0.00000  Uiso   1.00
C1072  C     0.37566   0.09520   0.73089   0.00000  Uiso   1.00
C1073  C     0.35045   0.13626   0.77005   0.00000  Uiso   1.00
C1074  C     0.30355   0.14609   0.79425   0.00000  Uiso   1.00
C1075  C     0.28714   0.18530   0.82886   0.00000  Uiso   1.00
C1076  C     0.41762   0.11025   0.66236   0.00000  Uiso   1.00
C1077  C     0.42721   0.09821   0.59602   0.00000  Uiso   1.00
C1078  C     0.46735   0.11551   0.53996   0.00000  Uiso   1.00
C1079  C     0.39610   0.07481   0.77287   0.00000  Uiso   1.00
C1080  C     0.38760   0.03297   0.79941   0.00000  Uiso   1.00
C1081  C     0.90963   0.52043   0.83637   0.00000  Uiso   1.00
H1082  H     0.45286   0.16941   0.75711   0.00000  Uiso   1.00
H1083  H     0.38639   0.22571   0.82238   0.00000  Uiso   1.00
H1084  H     0.51003   0.17783   0.62418   0.00000  Uiso   1.00
H1085  H     0.47042   0.11260   0.82754   0.00000  Uiso   1.00
H1086  H     0.29970   0.27565   0.89030   0.00000  Uiso   1.00
H1087  H     0.06042   0.67467   0.47238   0.00000  Uiso   1.00
H1088  H     0.97690   0.53713   0.90121   0.00000  Uiso   1.00
H1089  H     0.35272   0.07314   0.72309   0.00000  Uiso   1.00
H1090  H     0.28075   0.12416   0.78649   0.00000  Uiso   1.00
H1091  H     0.40440   0.07628   0.58829   0.00000  Uiso   1.00
H1092  H     0.36479   0.01105   0.79165   0.00000  Uiso   1.00
H1093  H     0.21397   0.19323   0.86117   0.00000  Uiso   1.00
H1094  H     0.97468   0.59225   0.44325   0.00000  Uiso   1.00
H1095  H     0.89116   0.45471   0.87208   0.00000  Uiso   1.00
O1096  O     0.21130   0.26975   0.91803   0.00000  Uiso   1.00
O1097  O     0.05336   0.63726   0.36974   0.00000  Uiso   1.00
O1098  O     0.94378   0.45681   0.93236   0.00000  Uiso   1.00
N1099  N     0.28940   0.24925   0.87475   0.00000  Uiso   1.00
N1100  N     0.03315   0.65484   0.48402   0.00000  Uiso   1.00
N1101  N     0.95508   0.52625   0.88493   0.00000  Uiso   1.00
N1102  N     0.24326   0.20490   0.85908   0.00000  Uiso   1.00
N1103  N     0.98701   0.61049   0.46835   0.00000  Uiso   1.00
N1104  N     0.90894   0.48190   0.86926   0.00000  Uiso   1.00
