data_job_04341
_audit_creation_date              2018-12-19
_audit_creation_method            'Materials Studio'
_symmetry_space_group_name_H-M    'P1'
_symmetry_Int_Tables_number       1
_symmetry_cell_setting            triclinic
loop_
_symmetry_equiv_pos_as_xyz
  x,y,z
_cell_length_a                    41.5787
_cell_length_b                    7.0506
_cell_length_c                    47.7372
_cell_angle_alpha                 90.0000
_cell_angle_beta                  90.0000
_cell_angle_gamma                 90.0000
loop_
_atom_site_label
_atom_site_type_symbol
_atom_site_fract_x
_atom_site_fract_y
_atom_site_fract_z
_atom_site_U_iso_or_equiv
_atom_site_adp_type
_atom_site_occupancy
C1     C     0.41857   0.23754   0.56375   0.00000  Uiso   1.00
C2     C     0.43331   0.33203   0.58946   0.00000  Uiso   1.00
C3     C     0.45101   0.24124   0.61014   0.00000  Uiso   1.00
C4     C     0.46241   0.35269   0.63196   0.00000  Uiso   1.00
C5     C     0.48621   0.46970   0.67172   0.00000  Uiso   1.00
C6     C     0.38275   0.28342   0.56469   0.00000  Uiso   1.00
C7     C     0.35794   0.15174   0.56453   0.00000  Uiso   1.00
C8     C     0.32678   0.22228   0.56550   0.00000  Uiso   1.00
C9     C     0.27208   0.26380   0.56678   0.00000  Uiso   1.00
C10    C     0.43197   0.34347   0.53846   0.00000  Uiso   1.00
C11    C     0.44854   0.26229   0.51626   0.00000  Uiso   1.00
C12    C     0.45882   0.38340   0.49514   0.00000  Uiso   1.00
C13    C     0.48055   0.51817   0.45571   0.00000  Uiso   1.00
C14    C     0.40736   0.59695   0.56573   0.00000  Uiso   1.00
C15    C     0.42721   0.52724   0.59053   0.00000  Uiso   1.00
C16    C     0.43860   0.63887   0.61233   0.00000  Uiso   1.00
C17    C     0.45631   0.54826   0.63304   0.00000  Uiso   1.00
C18    C     0.37665   0.47862   0.56576   0.00000  Uiso   1.00
C19    C     0.34553   0.54937   0.56673   0.00000  Uiso   1.00
C20    C     0.32068   0.41784   0.56658   0.00000  Uiso   1.00
C21    C     0.42588   0.53869   0.53954   0.00000  Uiso   1.00
C22    C     0.43613   0.65993   0.51845   0.00000  Uiso   1.00
C23    C     0.45272   0.57896   0.49622   0.00000  Uiso   1.00
H24    H     0.42332   0.08556   0.56291   0.00000  Uiso   1.00
H25    H     0.45572   0.09016   0.60930   0.00000  Uiso   1.00
H26    H     0.36266   0.00068   0.56370   0.00000  Uiso   1.00
H27    H     0.45325   0.11123   0.51543   0.00000  Uiso   1.00
H28    H     0.48894   0.18133   0.66121   0.00000  Uiso   1.00
H29    H     0.29273   0.99266   0.56504   0.00000  Uiso   1.00
H30    H     0.48376   0.22576   0.46326   0.00000  Uiso   1.00
H31    H     0.40261   0.74893   0.56657   0.00000  Uiso   1.00
H32    H     0.43388   0.78993   0.61316   0.00000  Uiso   1.00
H33    H     0.34082   0.70045   0.56756   0.00000  Uiso   1.00
H34    H     0.43141   0.81099   0.51929   0.00000  Uiso   1.00
H35    H     0.47121   0.74929   0.66434   0.00000  Uiso   1.00
H36    H     0.27500   0.56062   0.56818   0.00000  Uiso   1.00
H37    H     0.46603   0.79372   0.46640   0.00000  Uiso   1.00
O38    O     0.50101   0.48030   0.69336   0.00000  Uiso   1.00
O39    O     0.24359   0.23277   0.56719   0.00000  Uiso   1.00
O40    O     0.49422   0.53860   0.43366   0.00000  Uiso   1.00
N41    N     0.48049   0.30938   0.65555   0.00000  Uiso   1.00
N42    N     0.29704   0.13298   0.56565   0.00000  Uiso   1.00
N43    N     0.47563   0.35090   0.47049   0.00000  Uiso   1.00
N44    N     0.47095   0.61500   0.65723   0.00000  Uiso   1.00
N45    N     0.28750   0.43860   0.56733   0.00000  Uiso   1.00
N46    N     0.46609   0.65652   0.47217   0.00000  Uiso   1.00
C47    C     0.41831   0.28545   0.31528   0.00000  Uiso   1.00
C48    C     0.43169   0.18698   0.28934   0.00000  Uiso   1.00
C49    C     0.44753   0.27525   0.26732   0.00000  Uiso   1.00
C50    C     0.45792   0.16028   0.24551   0.00000  Uiso   1.00
C51    C     0.47948   0.03722   0.20519   0.00000  Uiso   1.00
C52    C     0.38270   0.23424   0.31646   0.00000  Uiso   1.00
C53    C     0.35736   0.36226   0.31725   0.00000  Uiso   1.00
C54    C     0.32652   0.28706   0.31828   0.00000  Uiso   1.00
C55    C     0.27203   0.23739   0.32008   0.00000  Uiso   1.00
C56    C     0.43388   0.18765   0.34034   0.00000  Uiso   1.00
C57    C     0.45156   0.27650   0.36121   0.00000  Uiso   1.00
C58    C     0.46380   0.16208   0.38235   0.00000  Uiso   1.00
C59    C     0.48877   0.04007   0.42123   0.00000  Uiso   1.00
C60    C     0.40859   0.92429   0.31570   0.00000  Uiso   1.00
C61    C     0.42641   0.99081   0.28957   0.00000  Uiso   1.00
C62    C     0.43678   0.87567   0.26779   0.00000  Uiso   1.00
C63    C     0.45264   0.96376   0.24574   0.00000  Uiso   1.00
C64    C     0.37742   0.03808   0.31669   0.00000  Uiso   1.00
C65    C     0.34661   0.96268   0.31772   0.00000  Uiso   1.00
C66    C     0.32123   0.09054   0.31851   0.00000  Uiso   1.00
C67    C     0.42860   0.99148   0.34057   0.00000  Uiso   1.00
C68    C     0.44081   0.87691   0.36168   0.00000  Uiso   1.00
C69    C     0.45852   0.96556   0.38258   0.00000  Uiso   1.00
H70    H     0.42241   0.43818   0.31511   0.00000  Uiso   1.00
H71    H     0.45161   0.42707   0.26715   0.00000  Uiso   1.00
H72    H     0.36145   0.51405   0.31708   0.00000  Uiso   1.00
H73    H     0.45564   0.42830   0.36103   0.00000  Uiso   1.00
H74    H     0.48163   0.32825   0.21408   0.00000  Uiso   1.00
H75    H     0.29154   0.51167   0.31936   0.00000  Uiso   1.00
H76    H     0.49015   0.33085   0.41205   0.00000  Uiso   1.00
H77    H     0.40448   0.77156   0.31588   0.00000  Uiso   1.00
H78    H     0.43269   0.72387   0.26797   0.00000  Uiso   1.00
H79    H     0.34254   0.81086   0.31790   0.00000  Uiso   1.00
H80    H     0.43673   0.72511   0.36185   0.00000  Uiso   1.00
H81    H     0.46628   0.75751   0.21475   0.00000  Uiso   1.00
H82    H     0.27619   0.94093   0.32003   0.00000  Uiso   1.00
H83    H     0.47480   0.76011   0.41271   0.00000  Uiso   1.00
O84    O     0.49283   0.02354   0.18288   0.00000  Uiso   1.00
O85    O     0.24344   0.26419   0.32101   0.00000  Uiso   1.00
O86    O     0.50401   0.02695   0.44260   0.00000  Uiso   1.00
N87    N     0.47416   0.20046   0.22082   0.00000  Uiso   1.00
N88    N     0.29643   0.37195   0.31924   0.00000  Uiso   1.00
N89    N     0.48211   0.20291   0.40590   0.00000  Uiso   1.00
N90    N     0.46590   0.89335   0.22117   0.00000  Uiso   1.00
N91    N     0.28817   0.06484   0.31960   0.00000  Uiso   1.00
N92    N     0.47385   0.89580   0.40626   0.00000  Uiso   1.00
C93    C     0.08143   0.76246   0.56375   0.00000  Uiso   1.00
C94    C     0.06669   0.66797   0.58946   0.00000  Uiso   1.00
C95    C     0.04899   0.75876   0.61014   0.00000  Uiso   1.00
C96    C     0.03759   0.64731   0.63196   0.00000  Uiso   1.00
C97    C     0.01379   0.53030   0.67172   0.00000  Uiso   1.00
C98    C     0.11725   0.71658   0.56469   0.00000  Uiso   1.00
C99    C     0.14206   0.84826   0.56453   0.00000  Uiso   1.00
C100   C     0.17322   0.77772   0.56550   0.00000  Uiso   1.00
C101   C     0.22792   0.73620   0.56678   0.00000  Uiso   1.00
C102   C     0.06803   0.65653   0.53846   0.00000  Uiso   1.00
C103   C     0.05146   0.73771   0.51626   0.00000  Uiso   1.00
C104   C     0.04118   0.61660   0.49514   0.00000  Uiso   1.00
C105   C     0.01945   0.48183   0.45571   0.00000  Uiso   1.00
C106   C     0.09264   0.40305   0.56573   0.00000  Uiso   1.00
C107   C     0.07279   0.47276   0.59053   0.00000  Uiso   1.00
C108   C     0.06140   0.36113   0.61233   0.00000  Uiso   1.00
C109   C     0.04369   0.45174   0.63304   0.00000  Uiso   1.00
C110   C     0.12335   0.52138   0.56576   0.00000  Uiso   1.00
C111   C     0.15447   0.45063   0.56673   0.00000  Uiso   1.00
C112   C     0.17932   0.58216   0.56658   0.00000  Uiso   1.00
C113   C     0.07412   0.46131   0.53954   0.00000  Uiso   1.00
C114   C     0.06387   0.34007   0.51845   0.00000  Uiso   1.00
C115   C     0.04728   0.42104   0.49622   0.00000  Uiso   1.00
H116   H     0.07668   0.91444   0.56291   0.00000  Uiso   1.00
H117   H     0.04428   0.90984   0.60930   0.00000  Uiso   1.00
H118   H     0.13734   0.99932   0.56370   0.00000  Uiso   1.00
H119   H     0.04675   0.88877   0.51543   0.00000  Uiso   1.00
H120   H     0.01106   0.81867   0.66121   0.00000  Uiso   1.00
H121   H     0.20727   0.00734   0.56504   0.00000  Uiso   1.00
H122   H     0.01624   0.77424   0.46326   0.00000  Uiso   1.00
H123   H     0.09739   0.25107   0.56657   0.00000  Uiso   1.00
H124   H     0.06612   0.21007   0.61316   0.00000  Uiso   1.00
H125   H     0.15918   0.29955   0.56756   0.00000  Uiso   1.00
H126   H     0.06859   0.18901   0.51929   0.00000  Uiso   1.00
H127   H     0.02879   0.25071   0.66434   0.00000  Uiso   1.00
H128   H     0.22500   0.43938   0.56818   0.00000  Uiso   1.00
H129   H     0.03397   0.20628   0.46640   0.00000  Uiso   1.00
O130   O     0.99899   0.51970   0.69336   0.00000  Uiso   1.00
O131   O     0.25641   0.76723   0.56719   0.00000  Uiso   1.00
O132   O     0.00578   0.46140   0.43366   0.00000  Uiso   1.00
N133   N     0.01951   0.69062   0.65555   0.00000  Uiso   1.00
N134   N     0.20296   0.86702   0.56565   0.00000  Uiso   1.00
N135   N     0.02437   0.64910   0.47049   0.00000  Uiso   1.00
N136   N     0.02905   0.38500   0.65723   0.00000  Uiso   1.00
N137   N     0.21250   0.56140   0.56733   0.00000  Uiso   1.00
N138   N     0.03391   0.34348   0.47217   0.00000  Uiso   1.00
C139   C     0.08169   0.71455   0.31528   0.00000  Uiso   1.00
C140   C     0.06831   0.81302   0.28934   0.00000  Uiso   1.00
C141   C     0.05247   0.72475   0.26732   0.00000  Uiso   1.00
C142   C     0.04208   0.83972   0.24551   0.00000  Uiso   1.00
C143   C     0.02052   0.96278   0.20519   0.00000  Uiso   1.00
C144   C     0.11730   0.76576   0.31646   0.00000  Uiso   1.00
C145   C     0.14264   0.63774   0.31725   0.00000  Uiso   1.00
C146   C     0.17348   0.71294   0.31828   0.00000  Uiso   1.00
C147   C     0.22797   0.76261   0.32008   0.00000  Uiso   1.00
C148   C     0.06612   0.81235   0.34034   0.00000  Uiso   1.00
C149   C     0.04844   0.72350   0.36121   0.00000  Uiso   1.00
C150   C     0.03620   0.83792   0.38235   0.00000  Uiso   1.00
C151   C     0.01123   0.95993   0.42123   0.00000  Uiso   1.00
C152   C     0.09141   0.07571   0.31570   0.00000  Uiso   1.00
C153   C     0.07359   0.00919   0.28957   0.00000  Uiso   1.00
C154   C     0.06322   0.12433   0.26779   0.00000  Uiso   1.00
C155   C     0.04736   0.03624   0.24574   0.00000  Uiso   1.00
C156   C     0.12258   0.96192   0.31669   0.00000  Uiso   1.00
C157   C     0.15339   0.03732   0.31772   0.00000  Uiso   1.00
C158   C     0.17877   0.90946   0.31851   0.00000  Uiso   1.00
C159   C     0.07140   0.00852   0.34057   0.00000  Uiso   1.00
C160   C     0.05919   0.12309   0.36168   0.00000  Uiso   1.00
C161   C     0.04148   0.03444   0.38258   0.00000  Uiso   1.00
H162   H     0.07759   0.56182   0.31511   0.00000  Uiso   1.00
H163   H     0.04839   0.57293   0.26715   0.00000  Uiso   1.00
H164   H     0.13855   0.48595   0.31708   0.00000  Uiso   1.00
H165   H     0.04436   0.57170   0.36103   0.00000  Uiso   1.00
H166   H     0.01837   0.67175   0.21408   0.00000  Uiso   1.00
H167   H     0.20846   0.48833   0.31936   0.00000  Uiso   1.00
H168   H     0.00985   0.66915   0.41205   0.00000  Uiso   1.00
H169   H     0.09552   0.22844   0.31588   0.00000  Uiso   1.00
H170   H     0.06731   0.27613   0.26797   0.00000  Uiso   1.00
H171   H     0.15746   0.18914   0.31790   0.00000  Uiso   1.00
H172   H     0.06327   0.27489   0.36185   0.00000  Uiso   1.00
H173   H     0.03372   0.24249   0.21475   0.00000  Uiso   1.00
H174   H     0.22381   0.05907   0.32003   0.00000  Uiso   1.00
H175   H     0.02520   0.23989   0.41271   0.00000  Uiso   1.00
O176   O     0.00717   0.97646   0.18288   0.00000  Uiso   1.00
O177   O     0.25656   0.73581   0.32101   0.00000  Uiso   1.00
O178   O     0.99599   0.97305   0.44260   0.00000  Uiso   1.00
N179   N     0.02584   0.79954   0.22082   0.00000  Uiso   1.00
N180   N     0.20357   0.62805   0.31924   0.00000  Uiso   1.00
N181   N     0.01789   0.79709   0.40590   0.00000  Uiso   1.00
N182   N     0.03410   0.10665   0.22117   0.00000  Uiso   1.00
N183   N     0.21183   0.93516   0.31960   0.00000  Uiso   1.00
N184   N     0.02615   0.10420   0.40626   0.00000  Uiso   1.00
C185   C     0.58143   0.23754   0.93625   0.00000  Uiso   1.00
C186   C     0.56669   0.33203   0.91054   0.00000  Uiso   1.00
C187   C     0.54899   0.24124   0.88986   0.00000  Uiso   1.00
C188   C     0.53759   0.35269   0.86804   0.00000  Uiso   1.00
C189   C     0.51379   0.46970   0.82828   0.00000  Uiso   1.00
C190   C     0.61725   0.28342   0.93531   0.00000  Uiso   1.00
C191   C     0.64206   0.15174   0.93547   0.00000  Uiso   1.00
C192   C     0.67322   0.22228   0.93450   0.00000  Uiso   1.00
C193   C     0.72792   0.26380   0.93322   0.00000  Uiso   1.00
C194   C     0.56803   0.34347   0.96154   0.00000  Uiso   1.00
C195   C     0.55146   0.26229   0.98374   0.00000  Uiso   1.00
C196   C     0.54118   0.38340   0.00486   0.00000  Uiso   1.00
C197   C     0.51945   0.51817   0.04429   0.00000  Uiso   1.00
C198   C     0.59264   0.59695   0.93427   0.00000  Uiso   1.00
C199   C     0.57279   0.52724   0.90947   0.00000  Uiso   1.00
C200   C     0.56140   0.63887   0.88767   0.00000  Uiso   1.00
C201   C     0.54369   0.54826   0.86696   0.00000  Uiso   1.00
C202   C     0.62335   0.47862   0.93424   0.00000  Uiso   1.00
C203   C     0.65447   0.54937   0.93327   0.00000  Uiso   1.00
C204   C     0.67932   0.41784   0.93342   0.00000  Uiso   1.00
C205   C     0.57412   0.53869   0.96046   0.00000  Uiso   1.00
C206   C     0.56387   0.65993   0.98155   0.00000  Uiso   1.00
C207   C     0.54728   0.57896   0.00378   0.00000  Uiso   1.00
H208   H     0.57668   0.08556   0.93709   0.00000  Uiso   1.00
H209   H     0.54428   0.09016   0.89070   0.00000  Uiso   1.00
H210   H     0.63734   0.00068   0.93630   0.00000  Uiso   1.00
H211   H     0.54675   0.11123   0.98457   0.00000  Uiso   1.00
H212   H     0.51106   0.18133   0.83879   0.00000  Uiso   1.00
H213   H     0.70727   0.99266   0.93496   0.00000  Uiso   1.00
H214   H     0.51624   0.22576   0.03674   0.00000  Uiso   1.00
H215   H     0.59739   0.74893   0.93343   0.00000  Uiso   1.00
H216   H     0.56612   0.78993   0.88684   0.00000  Uiso   1.00
H217   H     0.65918   0.70045   0.93244   0.00000  Uiso   1.00
H218   H     0.56859   0.81099   0.98071   0.00000  Uiso   1.00
H219   H     0.52879   0.74929   0.83566   0.00000  Uiso   1.00
H220   H     0.72500   0.56062   0.93182   0.00000  Uiso   1.00
H221   H     0.53397   0.79372   0.03360   0.00000  Uiso   1.00
O222   O     0.49899   0.48030   0.80664   0.00000  Uiso   1.00
O223   O     0.75641   0.23277   0.93281   0.00000  Uiso   1.00
O224   O     0.50578   0.53860   0.06634   0.00000  Uiso   1.00
N225   N     0.51951   0.30938   0.84445   0.00000  Uiso   1.00
N226   N     0.70296   0.13298   0.93435   0.00000  Uiso   1.00
N227   N     0.52437   0.35090   0.02951   0.00000  Uiso   1.00
N228   N     0.52905   0.61500   0.84277   0.00000  Uiso   1.00
N229   N     0.71250   0.43860   0.93267   0.00000  Uiso   1.00
N230   N     0.53391   0.65652   0.02783   0.00000  Uiso   1.00
C231   C     0.58169   0.28545   0.18472   0.00000  Uiso   1.00
C232   C     0.56831   0.18698   0.21066   0.00000  Uiso   1.00
C233   C     0.55247   0.27525   0.23268   0.00000  Uiso   1.00
C234   C     0.54208   0.16028   0.25449   0.00000  Uiso   1.00
C235   C     0.52052   0.03722   0.29481   0.00000  Uiso   1.00
C236   C     0.61730   0.23424   0.18354   0.00000  Uiso   1.00
C237   C     0.64264   0.36226   0.18275   0.00000  Uiso   1.00
C238   C     0.67348   0.28706   0.18172   0.00000  Uiso   1.00
C239   C     0.72797   0.23739   0.17992   0.00000  Uiso   1.00
C240   C     0.56612   0.18765   0.15966   0.00000  Uiso   1.00
C241   C     0.54844   0.27650   0.13879   0.00000  Uiso   1.00
C242   C     0.53620   0.16208   0.11765   0.00000  Uiso   1.00
C243   C     0.51123   0.04007   0.07877   0.00000  Uiso   1.00
C244   C     0.59141   0.92429   0.18430   0.00000  Uiso   1.00
C245   C     0.57359   0.99081   0.21043   0.00000  Uiso   1.00
C246   C     0.56322   0.87567   0.23221   0.00000  Uiso   1.00
C247   C     0.54736   0.96376   0.25426   0.00000  Uiso   1.00
C248   C     0.62258   0.03808   0.18331   0.00000  Uiso   1.00
C249   C     0.65339   0.96268   0.18228   0.00000  Uiso   1.00
C250   C     0.67877   0.09054   0.18149   0.00000  Uiso   1.00
C251   C     0.57140   0.99148   0.15943   0.00000  Uiso   1.00
C252   C     0.55919   0.87691   0.13832   0.00000  Uiso   1.00
C253   C     0.54148   0.96556   0.11742   0.00000  Uiso   1.00
H254   H     0.57759   0.43818   0.18489   0.00000  Uiso   1.00
H255   H     0.54839   0.42707   0.23285   0.00000  Uiso   1.00
H256   H     0.63855   0.51405   0.18292   0.00000  Uiso   1.00
H257   H     0.54436   0.42830   0.13897   0.00000  Uiso   1.00
H258   H     0.51837   0.32825   0.28592   0.00000  Uiso   1.00
H259   H     0.70846   0.51167   0.18064   0.00000  Uiso   1.00
H260   H     0.50985   0.33085   0.08795   0.00000  Uiso   1.00
H261   H     0.59552   0.77156   0.18412   0.00000  Uiso   1.00
H262   H     0.56731   0.72387   0.23203   0.00000  Uiso   1.00
H263   H     0.65746   0.81086   0.18210   0.00000  Uiso   1.00
H264   H     0.56327   0.72511   0.13815   0.00000  Uiso   1.00
H265   H     0.53372   0.75751   0.28525   0.00000  Uiso   1.00
H266   H     0.72381   0.94093   0.17997   0.00000  Uiso   1.00
H267   H     0.52520   0.76011   0.08729   0.00000  Uiso   1.00
O268   O     0.50717   0.02354   0.31712   0.00000  Uiso   1.00
O269   O     0.75656   0.26419   0.17899   0.00000  Uiso   1.00
O270   O     0.49599   0.02695   0.05740   0.00000  Uiso   1.00
N271   N     0.52584   0.20046   0.27918   0.00000  Uiso   1.00
N272   N     0.70357   0.37195   0.18076   0.00000  Uiso   1.00
N273   N     0.51789   0.20291   0.09410   0.00000  Uiso   1.00
N274   N     0.53410   0.89335   0.27883   0.00000  Uiso   1.00
N275   N     0.71183   0.06484   0.18040   0.00000  Uiso   1.00
N276   N     0.52615   0.89580   0.09374   0.00000  Uiso   1.00
C277   C     0.91857   0.76246   0.93625   0.00000  Uiso   1.00
C278   C     0.93331   0.66797   0.91054   0.00000  Uiso   1.00
C279   C     0.95101   0.75876   0.88986   0.00000  Uiso   1.00
C280   C     0.96241   0.64731   0.86804   0.00000  Uiso   1.00
C281   C     0.98621   0.53030   0.82828   0.00000  Uiso   1.00
C282   C     0.88275   0.71658   0.93531   0.00000  Uiso   1.00
C283   C     0.85794   0.84826   0.93547   0.00000  Uiso   1.00
C284   C     0.82678   0.77772   0.93450   0.00000  Uiso   1.00
C285   C     0.77208   0.73620   0.93322   0.00000  Uiso   1.00
C286   C     0.93197   0.65653   0.96154   0.00000  Uiso   1.00
C287   C     0.94854   0.73771   0.98374   0.00000  Uiso   1.00
C288   C     0.95882   0.61660   0.00486   0.00000  Uiso   1.00
C289   C     0.98055   0.48183   0.04429   0.00000  Uiso   1.00
C290   C     0.90736   0.40305   0.93427   0.00000  Uiso   1.00
C291   C     0.92721   0.47276   0.90947   0.00000  Uiso   1.00
C292   C     0.93860   0.36113   0.88767   0.00000  Uiso   1.00
C293   C     0.95631   0.45174   0.86696   0.00000  Uiso   1.00
C294   C     0.87665   0.52138   0.93424   0.00000  Uiso   1.00
C295   C     0.84553   0.45063   0.93327   0.00000  Uiso   1.00
C296   C     0.82068   0.58216   0.93342   0.00000  Uiso   1.00
C297   C     0.92588   0.46131   0.96046   0.00000  Uiso   1.00
C298   C     0.93613   0.34007   0.98155   0.00000  Uiso   1.00
C299   C     0.95272   0.42104   0.00378   0.00000  Uiso   1.00
H300   H     0.92332   0.91444   0.93709   0.00000  Uiso   1.00
H301   H     0.95572   0.90984   0.89070   0.00000  Uiso   1.00
H302   H     0.86266   0.99932   0.93630   0.00000  Uiso   1.00
H303   H     0.95325   0.88877   0.98457   0.00000  Uiso   1.00
H304   H     0.98894   0.81867   0.83879   0.00000  Uiso   1.00
H305   H     0.79273   0.00734   0.93496   0.00000  Uiso   1.00
H306   H     0.98376   0.77424   0.03674   0.00000  Uiso   1.00
H307   H     0.90261   0.25107   0.93343   0.00000  Uiso   1.00
H308   H     0.93388   0.21007   0.88684   0.00000  Uiso   1.00
H309   H     0.84082   0.29955   0.93244   0.00000  Uiso   1.00
H310   H     0.93141   0.18901   0.98071   0.00000  Uiso   1.00
H311   H     0.97121   0.25071   0.83566   0.00000  Uiso   1.00
H312   H     0.77500   0.43938   0.93182   0.00000  Uiso   1.00
H313   H     0.96603   0.20628   0.03360   0.00000  Uiso   1.00
O314   O     0.00101   0.51970   0.80664   0.00000  Uiso   1.00
O315   O     0.74359   0.76723   0.93281   0.00000  Uiso   1.00
O316   O     0.99422   0.46140   0.06634   0.00000  Uiso   1.00
N317   N     0.98049   0.69062   0.84445   0.00000  Uiso   1.00
N318   N     0.79704   0.86702   0.93435   0.00000  Uiso   1.00
N319   N     0.97563   0.64910   0.02951   0.00000  Uiso   1.00
N320   N     0.97095   0.38500   0.84277   0.00000  Uiso   1.00
N321   N     0.78750   0.56140   0.93267   0.00000  Uiso   1.00
N322   N     0.96609   0.34348   0.02783   0.00000  Uiso   1.00
C323   C     0.91831   0.71455   0.18472   0.00000  Uiso   1.00
C324   C     0.93169   0.81302   0.21066   0.00000  Uiso   1.00
C325   C     0.94753   0.72475   0.23268   0.00000  Uiso   1.00
C326   C     0.95792   0.83972   0.25449   0.00000  Uiso   1.00
C327   C     0.97948   0.96278   0.29481   0.00000  Uiso   1.00
C328   C     0.88270   0.76576   0.18354   0.00000  Uiso   1.00
C329   C     0.85736   0.63774   0.18275   0.00000  Uiso   1.00
C330   C     0.82652   0.71294   0.18172   0.00000  Uiso   1.00
C331   C     0.77203   0.76261   0.17992   0.00000  Uiso   1.00
C332   C     0.93388   0.81235   0.15966   0.00000  Uiso   1.00
C333   C     0.95156   0.72350   0.13879   0.00000  Uiso   1.00
C334   C     0.96380   0.83792   0.11765   0.00000  Uiso   1.00
C335   C     0.98877   0.95993   0.07877   0.00000  Uiso   1.00
C336   C     0.90859   0.07571   0.18430   0.00000  Uiso   1.00
C337   C     0.92641   0.00919   0.21043   0.00000  Uiso   1.00
C338   C     0.93678   0.12433   0.23221   0.00000  Uiso   1.00
C339   C     0.95264   0.03624   0.25426   0.00000  Uiso   1.00
C340   C     0.87742   0.96192   0.18331   0.00000  Uiso   1.00
C341   C     0.84661   0.03732   0.18228   0.00000  Uiso   1.00
C342   C     0.82123   0.90946   0.18149   0.00000  Uiso   1.00
C343   C     0.92860   0.00852   0.15943   0.00000  Uiso   1.00
C344   C     0.94081   0.12309   0.13832   0.00000  Uiso   1.00
C345   C     0.95852   0.03444   0.11742   0.00000  Uiso   1.00
H346   H     0.92241   0.56182   0.18489   0.00000  Uiso   1.00
H347   H     0.95161   0.57293   0.23285   0.00000  Uiso   1.00
H348   H     0.86145   0.48595   0.18292   0.00000  Uiso   1.00
H349   H     0.95564   0.57170   0.13897   0.00000  Uiso   1.00
H350   H     0.98163   0.67175   0.28592   0.00000  Uiso   1.00
H351   H     0.79154   0.48833   0.18064   0.00000  Uiso   1.00
H352   H     0.99015   0.66915   0.08795   0.00000  Uiso   1.00
H353   H     0.90448   0.22844   0.18412   0.00000  Uiso   1.00
H354   H     0.93269   0.27613   0.23203   0.00000  Uiso   1.00
H355   H     0.84254   0.18914   0.18210   0.00000  Uiso   1.00
H356   H     0.93673   0.27489   0.13815   0.00000  Uiso   1.00
H357   H     0.96628   0.24249   0.28525   0.00000  Uiso   1.00
H358   H     0.77619   0.05907   0.17997   0.00000  Uiso   1.00
H359   H     0.97480   0.23989   0.08729   0.00000  Uiso   1.00
O360   O     0.99283   0.97646   0.31712   0.00000  Uiso   1.00
O361   O     0.74344   0.73581   0.17899   0.00000  Uiso   1.00
O362   O     0.00401   0.97305   0.05740   0.00000  Uiso   1.00
N363   N     0.97416   0.79954   0.27918   0.00000  Uiso   1.00
N364   N     0.79643   0.62805   0.18076   0.00000  Uiso   1.00
N365   N     0.98211   0.79709   0.09410   0.00000  Uiso   1.00
N366   N     0.96590   0.10665   0.27883   0.00000  Uiso   1.00
N367   N     0.78817   0.93516   0.18040   0.00000  Uiso   1.00
N368   N     0.97385   0.10420   0.09374   0.00000  Uiso   1.00
C369   C     0.58143   0.76246   0.43625   0.00000  Uiso   1.00
C370   C     0.56669   0.66797   0.41054   0.00000  Uiso   1.00
C371   C     0.54899   0.75876   0.38986   0.00000  Uiso   1.00
C372   C     0.53759   0.64731   0.36804   0.00000  Uiso   1.00
C373   C     0.51379   0.53030   0.32828   0.00000  Uiso   1.00
C374   C     0.61725   0.71658   0.43531   0.00000  Uiso   1.00
C375   C     0.64206   0.84826   0.43547   0.00000  Uiso   1.00
C376   C     0.67322   0.77772   0.43450   0.00000  Uiso   1.00
C377   C     0.72792   0.73620   0.43322   0.00000  Uiso   1.00
C378   C     0.56803   0.65653   0.46154   0.00000  Uiso   1.00
C379   C     0.55146   0.73771   0.48374   0.00000  Uiso   1.00
C380   C     0.54118   0.61660   0.50486   0.00000  Uiso   1.00
C381   C     0.51945   0.48183   0.54429   0.00000  Uiso   1.00
C382   C     0.59264   0.40305   0.43427   0.00000  Uiso   1.00
C383   C     0.57279   0.47276   0.40947   0.00000  Uiso   1.00
C384   C     0.56140   0.36113   0.38767   0.00000  Uiso   1.00
C385   C     0.54369   0.45174   0.36696   0.00000  Uiso   1.00
C386   C     0.62335   0.52138   0.43424   0.00000  Uiso   1.00
C387   C     0.65447   0.45063   0.43327   0.00000  Uiso   1.00
C388   C     0.67932   0.58216   0.43342   0.00000  Uiso   1.00
C389   C     0.57412   0.46131   0.46046   0.00000  Uiso   1.00
C390   C     0.56387   0.34007   0.48155   0.00000  Uiso   1.00
C391   C     0.54728   0.42104   0.50378   0.00000  Uiso   1.00
H392   H     0.57668   0.91444   0.43709   0.00000  Uiso   1.00
H393   H     0.54428   0.90984   0.39070   0.00000  Uiso   1.00
H394   H     0.63734   0.99932   0.43630   0.00000  Uiso   1.00
H395   H     0.54675   0.88877   0.48457   0.00000  Uiso   1.00
H396   H     0.51106   0.81867   0.33879   0.00000  Uiso   1.00
H397   H     0.70727   0.00734   0.43496   0.00000  Uiso   1.00
H398   H     0.51624   0.77424   0.53674   0.00000  Uiso   1.00
H399   H     0.59739   0.25107   0.43343   0.00000  Uiso   1.00
H400   H     0.56612   0.21007   0.38684   0.00000  Uiso   1.00
H401   H     0.65918   0.29955   0.43244   0.00000  Uiso   1.00
H402   H     0.56859   0.18901   0.48071   0.00000  Uiso   1.00
H403   H     0.52879   0.25071   0.33566   0.00000  Uiso   1.00
H404   H     0.72500   0.43938   0.43182   0.00000  Uiso   1.00
H405   H     0.53397   0.20628   0.53360   0.00000  Uiso   1.00
O406   O     0.49899   0.51970   0.30664   0.00000  Uiso   1.00
O407   O     0.75641   0.76723   0.43281   0.00000  Uiso   1.00
O408   O     0.50578   0.46140   0.56634   0.00000  Uiso   1.00
N409   N     0.51951   0.69062   0.34445   0.00000  Uiso   1.00
N410   N     0.70296   0.86702   0.43435   0.00000  Uiso   1.00
N411   N     0.52437   0.64910   0.52951   0.00000  Uiso   1.00
N412   N     0.52905   0.38500   0.34277   0.00000  Uiso   1.00
N413   N     0.71250   0.56140   0.43267   0.00000  Uiso   1.00
N414   N     0.53391   0.34348   0.52783   0.00000  Uiso   1.00
C415   C     0.58169   0.71455   0.68472   0.00000  Uiso   1.00
C416   C     0.56831   0.81302   0.71066   0.00000  Uiso   1.00
C417   C     0.55247   0.72475   0.73268   0.00000  Uiso   1.00
C418   C     0.54208   0.83972   0.75449   0.00000  Uiso   1.00
C419   C     0.52052   0.96278   0.79481   0.00000  Uiso   1.00
C420   C     0.61730   0.76576   0.68354   0.00000  Uiso   1.00
C421   C     0.64264   0.63774   0.68275   0.00000  Uiso   1.00
C422   C     0.67348   0.71294   0.68172   0.00000  Uiso   1.00
C423   C     0.72797   0.76261   0.67992   0.00000  Uiso   1.00
C424   C     0.56612   0.81235   0.65966   0.00000  Uiso   1.00
C425   C     0.54844   0.72350   0.63879   0.00000  Uiso   1.00
C426   C     0.53620   0.83792   0.61765   0.00000  Uiso   1.00
C427   C     0.51123   0.95993   0.57877   0.00000  Uiso   1.00
C428   C     0.59141   0.07571   0.68430   0.00000  Uiso   1.00
C429   C     0.57359   0.00919   0.71043   0.00000  Uiso   1.00
C430   C     0.56322   0.12433   0.73221   0.00000  Uiso   1.00
C431   C     0.54736   0.03624   0.75426   0.00000  Uiso   1.00
C432   C     0.62258   0.96192   0.68331   0.00000  Uiso   1.00
C433   C     0.65339   0.03732   0.68228   0.00000  Uiso   1.00
C434   C     0.67877   0.90946   0.68149   0.00000  Uiso   1.00
C435   C     0.57140   0.00852   0.65943   0.00000  Uiso   1.00
C436   C     0.55919   0.12309   0.63832   0.00000  Uiso   1.00
C437   C     0.54148   0.03444   0.61742   0.00000  Uiso   1.00
H438   H     0.57759   0.56182   0.68489   0.00000  Uiso   1.00
H439   H     0.54839   0.57293   0.73285   0.00000  Uiso   1.00
H440   H     0.63855   0.48595   0.68292   0.00000  Uiso   1.00
H441   H     0.54436   0.57170   0.63897   0.00000  Uiso   1.00
H442   H     0.51837   0.67175   0.78592   0.00000  Uiso   1.00
H443   H     0.70846   0.48833   0.68064   0.00000  Uiso   1.00
H444   H     0.50985   0.66915   0.58795   0.00000  Uiso   1.00
H445   H     0.59552   0.22844   0.68412   0.00000  Uiso   1.00
H446   H     0.56731   0.27613   0.73203   0.00000  Uiso   1.00
H447   H     0.65746   0.18914   0.68210   0.00000  Uiso   1.00
H448   H     0.56327   0.27489   0.63815   0.00000  Uiso   1.00
H449   H     0.53372   0.24249   0.78525   0.00000  Uiso   1.00
H450   H     0.72381   0.05907   0.67997   0.00000  Uiso   1.00
H451   H     0.52520   0.23989   0.58729   0.00000  Uiso   1.00
O452   O     0.50717   0.97646   0.81712   0.00000  Uiso   1.00
O453   O     0.75656   0.73581   0.67899   0.00000  Uiso   1.00
O454   O     0.49599   0.97305   0.55740   0.00000  Uiso   1.00
N455   N     0.52584   0.79954   0.77918   0.00000  Uiso   1.00
N456   N     0.70357   0.62805   0.68076   0.00000  Uiso   1.00
N457   N     0.51789   0.79709   0.59410   0.00000  Uiso   1.00
N458   N     0.53410   0.10665   0.77883   0.00000  Uiso   1.00
N459   N     0.71183   0.93516   0.68040   0.00000  Uiso   1.00
N460   N     0.52615   0.10420   0.59374   0.00000  Uiso   1.00
C461   C     0.91857   0.23754   0.43625   0.00000  Uiso   1.00
C462   C     0.93331   0.33203   0.41054   0.00000  Uiso   1.00
C463   C     0.95101   0.24124   0.38986   0.00000  Uiso   1.00
C464   C     0.96241   0.35269   0.36804   0.00000  Uiso   1.00
C465   C     0.98621   0.46970   0.32828   0.00000  Uiso   1.00
C466   C     0.88275   0.28342   0.43531   0.00000  Uiso   1.00
C467   C     0.85794   0.15174   0.43547   0.00000  Uiso   1.00
C468   C     0.82678   0.22228   0.43450   0.00000  Uiso   1.00
C469   C     0.77208   0.26380   0.43322   0.00000  Uiso   1.00
C470   C     0.93197   0.34347   0.46154   0.00000  Uiso   1.00
C471   C     0.94854   0.26229   0.48374   0.00000  Uiso   1.00
C472   C     0.95882   0.38340   0.50486   0.00000  Uiso   1.00
C473   C     0.98055   0.51817   0.54429   0.00000  Uiso   1.00
C474   C     0.90736   0.59695   0.43427   0.00000  Uiso   1.00
C475   C     0.92721   0.52724   0.40947   0.00000  Uiso   1.00
C476   C     0.93860   0.63887   0.38767   0.00000  Uiso   1.00
C477   C     0.95631   0.54826   0.36696   0.00000  Uiso   1.00
C478   C     0.87665   0.47862   0.43424   0.00000  Uiso   1.00
C479   C     0.84553   0.54937   0.43327   0.00000  Uiso   1.00
C480   C     0.82068   0.41784   0.43342   0.00000  Uiso   1.00
C481   C     0.92588   0.53869   0.46046   0.00000  Uiso   1.00
C482   C     0.93613   0.65993   0.48155   0.00000  Uiso   1.00
C483   C     0.95272   0.57896   0.50378   0.00000  Uiso   1.00
H484   H     0.92332   0.08556   0.43709   0.00000  Uiso   1.00
H485   H     0.95572   0.09016   0.39070   0.00000  Uiso   1.00
H486   H     0.86266   0.00068   0.43630   0.00000  Uiso   1.00
H487   H     0.95325   0.11123   0.48457   0.00000  Uiso   1.00
H488   H     0.98894   0.18133   0.33879   0.00000  Uiso   1.00
H489   H     0.79273   0.99266   0.43496   0.00000  Uiso   1.00
H490   H     0.98376   0.22576   0.53674   0.00000  Uiso   1.00
H491   H     0.90261   0.74893   0.43343   0.00000  Uiso   1.00
H492   H     0.93388   0.78993   0.38684   0.00000  Uiso   1.00
H493   H     0.84082   0.70045   0.43244   0.00000  Uiso   1.00
H494   H     0.93141   0.81099   0.48071   0.00000  Uiso   1.00
H495   H     0.97121   0.74929   0.33566   0.00000  Uiso   1.00
H496   H     0.77500   0.56062   0.43182   0.00000  Uiso   1.00
H497   H     0.96603   0.79372   0.53360   0.00000  Uiso   1.00
O498   O     0.00101   0.48030   0.30664   0.00000  Uiso   1.00
O499   O     0.74359   0.23277   0.43281   0.00000  Uiso   1.00
O500   O     0.99422   0.53860   0.56634   0.00000  Uiso   1.00
N501   N     0.98049   0.30938   0.34445   0.00000  Uiso   1.00
N502   N     0.79704   0.13298   0.43435   0.00000  Uiso   1.00
N503   N     0.97563   0.35090   0.52951   0.00000  Uiso   1.00
N504   N     0.97095   0.61500   0.34277   0.00000  Uiso   1.00
N505   N     0.78750   0.43860   0.43267   0.00000  Uiso   1.00
N506   N     0.96609   0.65652   0.52783   0.00000  Uiso   1.00
C507   C     0.91831   0.28545   0.68472   0.00000  Uiso   1.00
C508   C     0.93169   0.18698   0.71066   0.00000  Uiso   1.00
C509   C     0.94753   0.27525   0.73268   0.00000  Uiso   1.00
C510   C     0.95792   0.16028   0.75449   0.00000  Uiso   1.00
C511   C     0.97948   0.03722   0.79481   0.00000  Uiso   1.00
C512   C     0.88270   0.23424   0.68354   0.00000  Uiso   1.00
C513   C     0.85736   0.36226   0.68275   0.00000  Uiso   1.00
C514   C     0.82652   0.28706   0.68172   0.00000  Uiso   1.00
C515   C     0.77203   0.23739   0.67992   0.00000  Uiso   1.00
C516   C     0.93388   0.18765   0.65966   0.00000  Uiso   1.00
C517   C     0.95156   0.27650   0.63879   0.00000  Uiso   1.00
C518   C     0.96380   0.16208   0.61765   0.00000  Uiso   1.00
C519   C     0.98877   0.04007   0.57877   0.00000  Uiso   1.00
C520   C     0.90859   0.92429   0.68430   0.00000  Uiso   1.00
C521   C     0.92641   0.99081   0.71043   0.00000  Uiso   1.00
C522   C     0.93678   0.87567   0.73221   0.00000  Uiso   1.00
C523   C     0.95264   0.96376   0.75426   0.00000  Uiso   1.00
C524   C     0.87742   0.03808   0.68331   0.00000  Uiso   1.00
C525   C     0.84661   0.96268   0.68228   0.00000  Uiso   1.00
C526   C     0.82123   0.09054   0.68149   0.00000  Uiso   1.00
C527   C     0.92860   0.99148   0.65943   0.00000  Uiso   1.00
C528   C     0.94081   0.87691   0.63832   0.00000  Uiso   1.00
C529   C     0.95852   0.96556   0.61742   0.00000  Uiso   1.00
H530   H     0.92241   0.43818   0.68489   0.00000  Uiso   1.00
H531   H     0.95161   0.42707   0.73285   0.00000  Uiso   1.00
H532   H     0.86145   0.51405   0.68292   0.00000  Uiso   1.00
H533   H     0.95564   0.42830   0.63897   0.00000  Uiso   1.00
H534   H     0.98163   0.32825   0.78592   0.00000  Uiso   1.00
H535   H     0.79154   0.51167   0.68064   0.00000  Uiso   1.00
H536   H     0.99015   0.33085   0.58795   0.00000  Uiso   1.00
H537   H     0.90448   0.77156   0.68412   0.00000  Uiso   1.00
H538   H     0.93269   0.72387   0.73203   0.00000  Uiso   1.00
H539   H     0.84254   0.81086   0.68210   0.00000  Uiso   1.00
H540   H     0.93673   0.72511   0.63815   0.00000  Uiso   1.00
H541   H     0.96628   0.75751   0.78525   0.00000  Uiso   1.00
H542   H     0.77619   0.94093   0.67997   0.00000  Uiso   1.00
H543   H     0.97480   0.76011   0.58729   0.00000  Uiso   1.00
O544   O     0.99283   0.02354   0.81712   0.00000  Uiso   1.00
O545   O     0.74344   0.26419   0.67899   0.00000  Uiso   1.00
O546   O     0.00401   0.02695   0.55740   0.00000  Uiso   1.00
N547   N     0.97416   0.20046   0.77918   0.00000  Uiso   1.00
N548   N     0.79643   0.37195   0.68076   0.00000  Uiso   1.00
N549   N     0.98211   0.20291   0.59410   0.00000  Uiso   1.00
N550   N     0.96590   0.89335   0.77883   0.00000  Uiso   1.00
N551   N     0.78817   0.06484   0.68040   0.00000  Uiso   1.00
N552   N     0.97385   0.89580   0.59374   0.00000  Uiso   1.00
C553   C     0.41857   0.76246   0.06375   0.00000  Uiso   1.00
C554   C     0.43331   0.66797   0.08946   0.00000  Uiso   1.00
C555   C     0.45101   0.75876   0.11014   0.00000  Uiso   1.00
C556   C     0.46241   0.64731   0.13196   0.00000  Uiso   1.00
C557   C     0.48621   0.53030   0.17172   0.00000  Uiso   1.00
C558   C     0.38275   0.71658   0.06469   0.00000  Uiso   1.00
C559   C     0.35794   0.84826   0.06453   0.00000  Uiso   1.00
C560   C     0.32678   0.77772   0.06550   0.00000  Uiso   1.00
C561   C     0.27208   0.73620   0.06678   0.00000  Uiso   1.00
C562   C     0.43197   0.65653   0.03846   0.00000  Uiso   1.00
C563   C     0.44854   0.73771   0.01626   0.00000  Uiso   1.00
C564   C     0.45882   0.61660   0.99514   0.00000  Uiso   1.00
C565   C     0.48055   0.48183   0.95571   0.00000  Uiso   1.00
C566   C     0.40736   0.40305   0.06573   0.00000  Uiso   1.00
C567   C     0.42721   0.47276   0.09053   0.00000  Uiso   1.00
C568   C     0.43860   0.36113   0.11233   0.00000  Uiso   1.00
C569   C     0.45631   0.45174   0.13304   0.00000  Uiso   1.00
C570   C     0.37665   0.52138   0.06576   0.00000  Uiso   1.00
C571   C     0.34553   0.45063   0.06673   0.00000  Uiso   1.00
C572   C     0.32068   0.58216   0.06658   0.00000  Uiso   1.00
C573   C     0.42588   0.46131   0.03954   0.00000  Uiso   1.00
C574   C     0.43613   0.34007   0.01845   0.00000  Uiso   1.00
C575   C     0.45272   0.42104   0.99622   0.00000  Uiso   1.00
H576   H     0.42332   0.91444   0.06291   0.00000  Uiso   1.00
H577   H     0.45572   0.90984   0.10930   0.00000  Uiso   1.00
H578   H     0.36266   0.99932   0.06370   0.00000  Uiso   1.00
H579   H     0.45325   0.88877   0.01543   0.00000  Uiso   1.00
H580   H     0.48894   0.81867   0.16121   0.00000  Uiso   1.00
H581   H     0.29273   0.00734   0.06504   0.00000  Uiso   1.00
H582   H     0.48376   0.77424   0.96326   0.00000  Uiso   1.00
H583   H     0.40261   0.25107   0.06657   0.00000  Uiso   1.00
H584   H     0.43388   0.21007   0.11316   0.00000  Uiso   1.00
H585   H     0.34082   0.29955   0.06756   0.00000  Uiso   1.00
H586   H     0.43141   0.18901   0.01929   0.00000  Uiso   1.00
H587   H     0.47121   0.25071   0.16434   0.00000  Uiso   1.00
H588   H     0.27500   0.43938   0.06818   0.00000  Uiso   1.00
H589   H     0.46603   0.20628   0.96640   0.00000  Uiso   1.00
O590   O     0.50101   0.51970   0.19336   0.00000  Uiso   1.00
O591   O     0.24359   0.76723   0.06719   0.00000  Uiso   1.00
O592   O     0.49422   0.46140   0.93366   0.00000  Uiso   1.00
N593   N     0.48049   0.69062   0.15555   0.00000  Uiso   1.00
N594   N     0.29704   0.86702   0.06565   0.00000  Uiso   1.00
N595   N     0.47563   0.64910   0.97049   0.00000  Uiso   1.00
N596   N     0.47095   0.38500   0.15723   0.00000  Uiso   1.00
N597   N     0.28750   0.56140   0.06733   0.00000  Uiso   1.00
N598   N     0.46609   0.34348   0.97217   0.00000  Uiso   1.00
C599   C     0.41831   0.71455   0.81528   0.00000  Uiso   1.00
C600   C     0.43169   0.81302   0.78934   0.00000  Uiso   1.00
C601   C     0.44753   0.72475   0.76732   0.00000  Uiso   1.00
C602   C     0.45792   0.83972   0.74551   0.00000  Uiso   1.00
C603   C     0.47948   0.96278   0.70519   0.00000  Uiso   1.00
C604   C     0.38270   0.76576   0.81646   0.00000  Uiso   1.00
C605   C     0.35736   0.63774   0.81725   0.00000  Uiso   1.00
C606   C     0.32652   0.71294   0.81828   0.00000  Uiso   1.00
C607   C     0.27203   0.76261   0.82008   0.00000  Uiso   1.00
C608   C     0.43388   0.81235   0.84034   0.00000  Uiso   1.00
C609   C     0.45156   0.72350   0.86121   0.00000  Uiso   1.00
C610   C     0.46380   0.83792   0.88235   0.00000  Uiso   1.00
C611   C     0.48877   0.95993   0.92123   0.00000  Uiso   1.00
C612   C     0.40859   0.07571   0.81570   0.00000  Uiso   1.00
C613   C     0.42641   0.00919   0.78957   0.00000  Uiso   1.00
C614   C     0.43678   0.12433   0.76779   0.00000  Uiso   1.00
C615   C     0.45264   0.03624   0.74574   0.00000  Uiso   1.00
C616   C     0.37742   0.96192   0.81669   0.00000  Uiso   1.00
C617   C     0.34661   0.03732   0.81772   0.00000  Uiso   1.00
C618   C     0.32123   0.90946   0.81851   0.00000  Uiso   1.00
C619   C     0.42860   0.00852   0.84057   0.00000  Uiso   1.00
C620   C     0.44081   0.12309   0.86168   0.00000  Uiso   1.00
C621   C     0.45852   0.03444   0.88258   0.00000  Uiso   1.00
H622   H     0.42241   0.56182   0.81511   0.00000  Uiso   1.00
H623   H     0.45161   0.57293   0.76715   0.00000  Uiso   1.00
H624   H     0.36145   0.48595   0.81708   0.00000  Uiso   1.00
H625   H     0.45564   0.57170   0.86103   0.00000  Uiso   1.00
H626   H     0.48163   0.67175   0.71408   0.00000  Uiso   1.00
H627   H     0.29154   0.48833   0.81936   0.00000  Uiso   1.00
H628   H     0.49015   0.66915   0.91205   0.00000  Uiso   1.00
H629   H     0.40448   0.22844   0.81588   0.00000  Uiso   1.00
H630   H     0.43269   0.27613   0.76797   0.00000  Uiso   1.00
H631   H     0.34254   0.18914   0.81790   0.00000  Uiso   1.00
H632   H     0.43673   0.27489   0.86185   0.00000  Uiso   1.00
H633   H     0.46628   0.24249   0.71475   0.00000  Uiso   1.00
H634   H     0.27619   0.05907   0.82003   0.00000  Uiso   1.00
H635   H     0.47480   0.23989   0.91271   0.00000  Uiso   1.00
O636   O     0.49283   0.97646   0.68288   0.00000  Uiso   1.00
O637   O     0.24344   0.73581   0.82101   0.00000  Uiso   1.00
O638   O     0.50401   0.97305   0.94260   0.00000  Uiso   1.00
N639   N     0.47416   0.79954   0.72082   0.00000  Uiso   1.00
N640   N     0.29643   0.62805   0.81924   0.00000  Uiso   1.00
N641   N     0.48211   0.79709   0.90590   0.00000  Uiso   1.00
N642   N     0.46590   0.10665   0.72117   0.00000  Uiso   1.00
N643   N     0.28817   0.93516   0.81960   0.00000  Uiso   1.00
N644   N     0.47385   0.10420   0.90626   0.00000  Uiso   1.00
C645   C     0.08143   0.23754   0.06375   0.00000  Uiso   1.00
C646   C     0.06669   0.33203   0.08946   0.00000  Uiso   1.00
C647   C     0.04899   0.24124   0.11014   0.00000  Uiso   1.00
C648   C     0.03759   0.35269   0.13196   0.00000  Uiso   1.00
C649   C     0.01379   0.46970   0.17172   0.00000  Uiso   1.00
C650   C     0.11725   0.28342   0.06469   0.00000  Uiso   1.00
C651   C     0.14206   0.15174   0.06453   0.00000  Uiso   1.00
C652   C     0.17322   0.22228   0.06550   0.00000  Uiso   1.00
C653   C     0.22792   0.26380   0.06678   0.00000  Uiso   1.00
C654   C     0.06803   0.34347   0.03846   0.00000  Uiso   1.00
C655   C     0.05146   0.26229   0.01626   0.00000  Uiso   1.00
C656   C     0.04118   0.38340   0.99514   0.00000  Uiso   1.00
C657   C     0.01945   0.51817   0.95571   0.00000  Uiso   1.00
C658   C     0.09264   0.59695   0.06573   0.00000  Uiso   1.00
C659   C     0.07279   0.52724   0.09053   0.00000  Uiso   1.00
C660   C     0.06140   0.63887   0.11233   0.00000  Uiso   1.00
C661   C     0.04369   0.54826   0.13304   0.00000  Uiso   1.00
C662   C     0.12335   0.47862   0.06576   0.00000  Uiso   1.00
C663   C     0.15447   0.54937   0.06673   0.00000  Uiso   1.00
C664   C     0.17932   0.41784   0.06658   0.00000  Uiso   1.00
C665   C     0.07412   0.53869   0.03954   0.00000  Uiso   1.00
C666   C     0.06387   0.65993   0.01845   0.00000  Uiso   1.00
C667   C     0.04728   0.57896   0.99622   0.00000  Uiso   1.00
H668   H     0.07668   0.08556   0.06291   0.00000  Uiso   1.00
H669   H     0.04428   0.09016   0.10930   0.00000  Uiso   1.00
H670   H     0.13734   0.00068   0.06370   0.00000  Uiso   1.00
H671   H     0.04675   0.11123   0.01543   0.00000  Uiso   1.00
H672   H     0.01106   0.18133   0.16121   0.00000  Uiso   1.00
H673   H     0.20727   0.99266   0.06504   0.00000  Uiso   1.00
H674   H     0.01624   0.22576   0.96326   0.00000  Uiso   1.00
H675   H     0.09739   0.74893   0.06657   0.00000  Uiso   1.00
H676   H     0.06612   0.78993   0.11316   0.00000  Uiso   1.00
H677   H     0.15918   0.70045   0.06756   0.00000  Uiso   1.00
H678   H     0.06859   0.81099   0.01929   0.00000  Uiso   1.00
H679   H     0.02879   0.74929   0.16434   0.00000  Uiso   1.00
H680   H     0.22500   0.56062   0.06818   0.00000  Uiso   1.00
H681   H     0.03397   0.79372   0.96640   0.00000  Uiso   1.00
O682   O     0.99899   0.48030   0.19336   0.00000  Uiso   1.00
O683   O     0.25641   0.23277   0.06719   0.00000  Uiso   1.00
O684   O     0.00578   0.53860   0.93366   0.00000  Uiso   1.00
N685   N     0.01951   0.30938   0.15555   0.00000  Uiso   1.00
N686   N     0.20296   0.13298   0.06565   0.00000  Uiso   1.00
N687   N     0.02437   0.35090   0.97049   0.00000  Uiso   1.00
N688   N     0.02905   0.61500   0.15723   0.00000  Uiso   1.00
N689   N     0.21250   0.43860   0.06733   0.00000  Uiso   1.00
N690   N     0.03391   0.65652   0.97217   0.00000  Uiso   1.00
C691   C     0.08169   0.28545   0.81528   0.00000  Uiso   1.00
C692   C     0.06831   0.18698   0.78934   0.00000  Uiso   1.00
C693   C     0.05247   0.27525   0.76732   0.00000  Uiso   1.00
C694   C     0.04208   0.16028   0.74551   0.00000  Uiso   1.00
C695   C     0.02052   0.03722   0.70519   0.00000  Uiso   1.00
C696   C     0.11730   0.23424   0.81646   0.00000  Uiso   1.00
C697   C     0.14264   0.36226   0.81725   0.00000  Uiso   1.00
C698   C     0.17348   0.28706   0.81828   0.00000  Uiso   1.00
C699   C     0.22797   0.23739   0.82008   0.00000  Uiso   1.00
C700   C     0.06612   0.18765   0.84034   0.00000  Uiso   1.00
C701   C     0.04844   0.27650   0.86121   0.00000  Uiso   1.00
C702   C     0.03620   0.16208   0.88235   0.00000  Uiso   1.00
C703   C     0.01123   0.04007   0.92123   0.00000  Uiso   1.00
C704   C     0.09141   0.92429   0.81570   0.00000  Uiso   1.00
C705   C     0.07359   0.99081   0.78957   0.00000  Uiso   1.00
C706   C     0.06322   0.87567   0.76779   0.00000  Uiso   1.00
C707   C     0.04736   0.96376   0.74574   0.00000  Uiso   1.00
C708   C     0.12258   0.03808   0.81669   0.00000  Uiso   1.00
C709   C     0.15339   0.96268   0.81772   0.00000  Uiso   1.00
C710   C     0.17877   0.09054   0.81851   0.00000  Uiso   1.00
C711   C     0.07140   0.99148   0.84057   0.00000  Uiso   1.00
C712   C     0.05919   0.87691   0.86168   0.00000  Uiso   1.00
C713   C     0.04148   0.96556   0.88258   0.00000  Uiso   1.00
H714   H     0.07759   0.43818   0.81511   0.00000  Uiso   1.00
H715   H     0.04839   0.42707   0.76715   0.00000  Uiso   1.00
H716   H     0.13855   0.51405   0.81708   0.00000  Uiso   1.00
H717   H     0.04436   0.42830   0.86103   0.00000  Uiso   1.00
H718   H     0.01837   0.32825   0.71408   0.00000  Uiso   1.00
H719   H     0.20846   0.51167   0.81936   0.00000  Uiso   1.00
H720   H     0.00985   0.33085   0.91205   0.00000  Uiso   1.00
H721   H     0.09552   0.77156   0.81588   0.00000  Uiso   1.00
H722   H     0.06731   0.72387   0.76797   0.00000  Uiso   1.00
H723   H     0.15746   0.81086   0.81790   0.00000  Uiso   1.00
H724   H     0.06327   0.72511   0.86185   0.00000  Uiso   1.00
H725   H     0.03372   0.75751   0.71475   0.00000  Uiso   1.00
H726   H     0.22381   0.94093   0.82003   0.00000  Uiso   1.00
H727   H     0.02520   0.76011   0.91271   0.00000  Uiso   1.00
O728   O     0.00717   0.02354   0.68288   0.00000  Uiso   1.00
O729   O     0.25656   0.26419   0.82101   0.00000  Uiso   1.00
O730   O     0.99599   0.02695   0.94260   0.00000  Uiso   1.00
N731   N     0.02584   0.20046   0.72082   0.00000  Uiso   1.00
N732   N     0.20357   0.37195   0.81924   0.00000  Uiso   1.00
N733   N     0.01789   0.20291   0.90590   0.00000  Uiso   1.00
N734   N     0.03410   0.89335   0.72117   0.00000  Uiso   1.00
N735   N     0.21183   0.06484   0.81960   0.00000  Uiso   1.00
N736   N     0.02615   0.89580   0.90626   0.00000  Uiso   1.00
