data_job_03557
_audit_creation_date              2018-12-19
_audit_creation_method            'Materials Studio'
_symmetry_space_group_name_H-M    'P1'
_symmetry_Int_Tables_number       1
_symmetry_cell_setting            triclinic
loop_
_symmetry_equiv_pos_as_xyz
  x,y,z
_cell_length_a                    12.4476
_cell_length_b                    65.4842
_cell_length_c                    15.5038
_cell_angle_alpha                 90.0000
_cell_angle_beta                  90.0000
_cell_angle_gamma                 90.0000
loop_
_atom_site_label
_atom_site_type_symbol
_atom_site_fract_x
_atom_site_fract_y
_atom_site_fract_z
_atom_site_U_iso_or_equiv
_atom_site_adp_type
_atom_site_occupancy
C1     C     0.00879   0.43618   0.44185   0.00000  Uiso   1.00
C2     C     0.10811   0.44975   0.43602   0.00000  Uiso   1.00
C3     C     0.10820   0.47058   0.41953   0.00000  Uiso   1.00
C4     C     0.20745   0.48023   0.41678   0.00000  Uiso   1.00
C5     C     0.34711   0.50293   0.40566   0.00000  Uiso   1.00
C6     C     0.02538   0.41916   0.37604   0.00000  Uiso   1.00
C7     C     0.95591   0.41428   0.30914   0.00000  Uiso   1.00
C8     C     0.98552   0.39819   0.25591   0.00000  Uiso   1.00
C9     C     0.99671   0.37340   0.15173   0.00000  Uiso   1.00
C10    C     0.01357   0.42600   0.53021   0.00000  Uiso   1.00
C11    C     0.93415   0.42686   0.59293   0.00000  Uiso   1.00
C12    C     0.95381   0.41651   0.66950   0.00000  Uiso   1.00
C13    C     0.94666   0.40234   0.80468   0.00000  Uiso   1.00
C14    C     0.18491   0.41628   0.46628   0.00000  Uiso   1.00
C15    C     0.20377   0.43894   0.44928   0.00000  Uiso   1.00
C16    C     0.30305   0.44856   0.44656   0.00000  Uiso   1.00
C17    C     0.30328   0.46940   0.43007   0.00000  Uiso   1.00
C18    C     0.12104   0.40835   0.38931   0.00000  Uiso   1.00
C19    C     0.15076   0.39226   0.33617   0.00000  Uiso   1.00
C20    C     0.08135   0.38736   0.26920   0.00000  Uiso   1.00
C21    C     0.10923   0.41519   0.54349   0.00000  Uiso   1.00
C22    C     0.12901   0.40484   0.61996   0.00000  Uiso   1.00
C23    C     0.04964   0.40568   0.68279   0.00000  Uiso   1.00
H24    H     0.93432   0.44460   0.43151   0.00000  Uiso   1.00
H25    H     0.03415   0.47894   0.40925   0.00000  Uiso   1.00
H26    H     0.88188   0.42265   0.29889   0.00000  Uiso   1.00
H27    H     0.86014   0.43522   0.58264   0.00000  Uiso   1.00
H28    H     0.18702   0.51224   0.39040   0.00000  Uiso   1.00
H29    H     0.86594   0.39355   0.15771   0.00000  Uiso   1.00
H30    H     0.82008   0.42006   0.75605   0.00000  Uiso   1.00
H31    H     0.25939   0.40787   0.47661   0.00000  Uiso   1.00
H32    H     0.37706   0.44019   0.45683   0.00000  Uiso   1.00
H33    H     0.22479   0.38390   0.34646   0.00000  Uiso   1.00
H34    H     0.20304   0.39648   0.63021   0.00000  Uiso   1.00
H35    H     0.46534   0.48079   0.42901   0.00000  Uiso   1.00
H36    H     0.14425   0.36210   0.19632   0.00000  Uiso   1.00
H37    H     0.09840   0.38861   0.79466   0.00000  Uiso   1.00
O38    O     0.39773   0.51844   0.39585   0.00000  Uiso   1.00
O39    O     0.97646   0.36272   0.09058   0.00000  Uiso   1.00
O40    O     0.91631   0.39751   0.87559   0.00000  Uiso   1.00
N41    N     0.23637   0.50040   0.40222   0.00000  Uiso   1.00
N42    N     0.93618   0.38943   0.18466   0.00000  Uiso   1.00
N43    N     0.89330   0.41422   0.74405   0.00000  Uiso   1.00
N44    N     0.38613   0.48348   0.42300   0.00000  Uiso   1.00
N45    N     0.08595   0.37251   0.20544   0.00000  Uiso   1.00
N46    N     0.04306   0.39730   0.76483   0.00000  Uiso   1.00
C47    C     0.00879   0.93618   0.94185   0.00000  Uiso   1.00
C48    C     0.10811   0.94975   0.93602   0.00000  Uiso   1.00
C49    C     0.10820   0.97058   0.91953   0.00000  Uiso   1.00
C50    C     0.20745   0.98023   0.91678   0.00000  Uiso   1.00
C51    C     0.34711   0.00293   0.90566   0.00000  Uiso   1.00
C52    C     0.02538   0.91916   0.87604   0.00000  Uiso   1.00
C53    C     0.95591   0.91428   0.80914   0.00000  Uiso   1.00
C54    C     0.98552   0.89819   0.75591   0.00000  Uiso   1.00
C55    C     0.99671   0.87340   0.65173   0.00000  Uiso   1.00
C56    C     0.01357   0.92600   0.03021   0.00000  Uiso   1.00
C57    C     0.93415   0.92686   0.09293   0.00000  Uiso   1.00
C58    C     0.95381   0.91651   0.16950   0.00000  Uiso   1.00
C59    C     0.94666   0.90234   0.30468   0.00000  Uiso   1.00
C60    C     0.18491   0.91628   0.96628   0.00000  Uiso   1.00
C61    C     0.20377   0.93894   0.94928   0.00000  Uiso   1.00
C62    C     0.30305   0.94856   0.94656   0.00000  Uiso   1.00
C63    C     0.30328   0.96940   0.93007   0.00000  Uiso   1.00
C64    C     0.12104   0.90835   0.88931   0.00000  Uiso   1.00
C65    C     0.15076   0.89226   0.83617   0.00000  Uiso   1.00
C66    C     0.08135   0.88736   0.76920   0.00000  Uiso   1.00
C67    C     0.10923   0.91519   0.04349   0.00000  Uiso   1.00
C68    C     0.12901   0.90484   0.11996   0.00000  Uiso   1.00
C69    C     0.04964   0.90568   0.18279   0.00000  Uiso   1.00
H70    H     0.93432   0.94460   0.93151   0.00000  Uiso   1.00
H71    H     0.03415   0.97894   0.90925   0.00000  Uiso   1.00
H72    H     0.88188   0.92265   0.79889   0.00000  Uiso   1.00
H73    H     0.86014   0.93522   0.08264   0.00000  Uiso   1.00
H74    H     0.18702   0.01224   0.89040   0.00000  Uiso   1.00
H75    H     0.86594   0.89355   0.65771   0.00000  Uiso   1.00
H76    H     0.82008   0.92006   0.25605   0.00000  Uiso   1.00
H77    H     0.25939   0.90787   0.97661   0.00000  Uiso   1.00
H78    H     0.37706   0.94019   0.95683   0.00000  Uiso   1.00
H79    H     0.22479   0.88390   0.84646   0.00000  Uiso   1.00
H80    H     0.20304   0.89648   0.13021   0.00000  Uiso   1.00
H81    H     0.46534   0.98079   0.92901   0.00000  Uiso   1.00
H82    H     0.14425   0.86210   0.69632   0.00000  Uiso   1.00
H83    H     0.09840   0.88861   0.29466   0.00000  Uiso   1.00
O84    O     0.39773   0.01844   0.89585   0.00000  Uiso   1.00
O85    O     0.97646   0.86272   0.59058   0.00000  Uiso   1.00
O86    O     0.91631   0.89751   0.37559   0.00000  Uiso   1.00
N87    N     0.23637   0.00040   0.90222   0.00000  Uiso   1.00
N88    N     0.93618   0.88943   0.68466   0.00000  Uiso   1.00
N89    N     0.89330   0.91422   0.24405   0.00000  Uiso   1.00
N90    N     0.38613   0.98348   0.92300   0.00000  Uiso   1.00
N91    N     0.08595   0.87251   0.70544   0.00000  Uiso   1.00
N92    N     0.04306   0.89730   0.26483   0.00000  Uiso   1.00
C93    C     0.50879   0.43618   0.94185   0.00000  Uiso   1.00
C94    C     0.60811   0.44975   0.93602   0.00000  Uiso   1.00
C95    C     0.60820   0.47058   0.91953   0.00000  Uiso   1.00
C96    C     0.70745   0.48023   0.91678   0.00000  Uiso   1.00
C97    C     0.84711   0.50293   0.90566   0.00000  Uiso   1.00
C98    C     0.52538   0.41916   0.87604   0.00000  Uiso   1.00
C99    C     0.45591   0.41428   0.80914   0.00000  Uiso   1.00
C100   C     0.48552   0.39819   0.75591   0.00000  Uiso   1.00
C101   C     0.49671   0.37340   0.65173   0.00000  Uiso   1.00
C102   C     0.51357   0.42600   0.03021   0.00000  Uiso   1.00
C103   C     0.43415   0.42686   0.09293   0.00000  Uiso   1.00
C104   C     0.45381   0.41651   0.16950   0.00000  Uiso   1.00
C105   C     0.44666   0.40234   0.30468   0.00000  Uiso   1.00
C106   C     0.68491   0.41628   0.96628   0.00000  Uiso   1.00
C107   C     0.70377   0.43894   0.94928   0.00000  Uiso   1.00
C108   C     0.80305   0.44856   0.94656   0.00000  Uiso   1.00
C109   C     0.80328   0.46940   0.93007   0.00000  Uiso   1.00
C110   C     0.62104   0.40835   0.88931   0.00000  Uiso   1.00
C111   C     0.65076   0.39226   0.83617   0.00000  Uiso   1.00
C112   C     0.58135   0.38736   0.76920   0.00000  Uiso   1.00
C113   C     0.60923   0.41519   0.04349   0.00000  Uiso   1.00
C114   C     0.62901   0.40484   0.11996   0.00000  Uiso   1.00
C115   C     0.54964   0.40568   0.18279   0.00000  Uiso   1.00
H116   H     0.43432   0.44460   0.93151   0.00000  Uiso   1.00
H117   H     0.53415   0.47894   0.90925   0.00000  Uiso   1.00
H118   H     0.38188   0.42265   0.79889   0.00000  Uiso   1.00
H119   H     0.36014   0.43522   0.08264   0.00000  Uiso   1.00
H120   H     0.68702   0.51224   0.89040   0.00000  Uiso   1.00
H121   H     0.36594   0.39355   0.65771   0.00000  Uiso   1.00
H122   H     0.32008   0.42006   0.25605   0.00000  Uiso   1.00
H123   H     0.75939   0.40787   0.97661   0.00000  Uiso   1.00
H124   H     0.87706   0.44019   0.95683   0.00000  Uiso   1.00
H125   H     0.72479   0.38390   0.84646   0.00000  Uiso   1.00
H126   H     0.70304   0.39648   0.13021   0.00000  Uiso   1.00
H127   H     0.96534   0.48079   0.92901   0.00000  Uiso   1.00
H128   H     0.64425   0.36210   0.69632   0.00000  Uiso   1.00
H129   H     0.59840   0.38861   0.29466   0.00000  Uiso   1.00
O130   O     0.89773   0.51844   0.89585   0.00000  Uiso   1.00
O131   O     0.47646   0.36272   0.59058   0.00000  Uiso   1.00
O132   O     0.41631   0.39751   0.37559   0.00000  Uiso   1.00
N133   N     0.73637   0.50040   0.90222   0.00000  Uiso   1.00
N134   N     0.43618   0.38943   0.68466   0.00000  Uiso   1.00
N135   N     0.39330   0.41422   0.24405   0.00000  Uiso   1.00
N136   N     0.88613   0.48348   0.92300   0.00000  Uiso   1.00
N137   N     0.58595   0.37251   0.70544   0.00000  Uiso   1.00
N138   N     0.54306   0.39730   0.26483   0.00000  Uiso   1.00
C139   C     0.50879   0.93618   0.44185   0.00000  Uiso   1.00
C140   C     0.60811   0.94975   0.43602   0.00000  Uiso   1.00
C141   C     0.60820   0.97058   0.41953   0.00000  Uiso   1.00
C142   C     0.70745   0.98023   0.41678   0.00000  Uiso   1.00
C143   C     0.84711   0.00293   0.40566   0.00000  Uiso   1.00
C144   C     0.52538   0.91916   0.37604   0.00000  Uiso   1.00
C145   C     0.45591   0.91428   0.30914   0.00000  Uiso   1.00
C146   C     0.48552   0.89819   0.25591   0.00000  Uiso   1.00
C147   C     0.49671   0.87340   0.15173   0.00000  Uiso   1.00
C148   C     0.51357   0.92600   0.53021   0.00000  Uiso   1.00
C149   C     0.43415   0.92686   0.59293   0.00000  Uiso   1.00
C150   C     0.45381   0.91651   0.66950   0.00000  Uiso   1.00
C151   C     0.44666   0.90234   0.80468   0.00000  Uiso   1.00
C152   C     0.68491   0.91628   0.46628   0.00000  Uiso   1.00
C153   C     0.70377   0.93894   0.44928   0.00000  Uiso   1.00
C154   C     0.80305   0.94856   0.44656   0.00000  Uiso   1.00
C155   C     0.80328   0.96940   0.43007   0.00000  Uiso   1.00
C156   C     0.62104   0.90835   0.38931   0.00000  Uiso   1.00
C157   C     0.65076   0.89226   0.33617   0.00000  Uiso   1.00
C158   C     0.58135   0.88736   0.26920   0.00000  Uiso   1.00
C159   C     0.60923   0.91519   0.54349   0.00000  Uiso   1.00
C160   C     0.62901   0.90484   0.61996   0.00000  Uiso   1.00
C161   C     0.54964   0.90568   0.68279   0.00000  Uiso   1.00
H162   H     0.43432   0.94460   0.43151   0.00000  Uiso   1.00
H163   H     0.53415   0.97894   0.40925   0.00000  Uiso   1.00
H164   H     0.38188   0.92265   0.29889   0.00000  Uiso   1.00
H165   H     0.36014   0.93522   0.58264   0.00000  Uiso   1.00
H166   H     0.68702   0.01224   0.39040   0.00000  Uiso   1.00
H167   H     0.36594   0.89355   0.15771   0.00000  Uiso   1.00
H168   H     0.32008   0.92006   0.75605   0.00000  Uiso   1.00
H169   H     0.75939   0.90787   0.47661   0.00000  Uiso   1.00
H170   H     0.87706   0.94019   0.45683   0.00000  Uiso   1.00
H171   H     0.72479   0.88390   0.34646   0.00000  Uiso   1.00
H172   H     0.70304   0.89648   0.63021   0.00000  Uiso   1.00
H173   H     0.96534   0.98079   0.42901   0.00000  Uiso   1.00
H174   H     0.64425   0.86210   0.19632   0.00000  Uiso   1.00
H175   H     0.59840   0.88861   0.79466   0.00000  Uiso   1.00
O176   O     0.89773   0.01844   0.39585   0.00000  Uiso   1.00
O177   O     0.47646   0.86272   0.09058   0.00000  Uiso   1.00
O178   O     0.41631   0.89751   0.87559   0.00000  Uiso   1.00
N179   N     0.73637   0.00040   0.40222   0.00000  Uiso   1.00
N180   N     0.43618   0.88943   0.18466   0.00000  Uiso   1.00
N181   N     0.39330   0.91422   0.74405   0.00000  Uiso   1.00
N182   N     0.88613   0.98348   0.42300   0.00000  Uiso   1.00
N183   N     0.58595   0.87251   0.20544   0.00000  Uiso   1.00
N184   N     0.54306   0.89730   0.76483   0.00000  Uiso   1.00
C185   C     0.99121   0.56382   0.44185   0.00000  Uiso   1.00
C186   C     0.89189   0.55025   0.43602   0.00000  Uiso   1.00
C187   C     0.89180   0.52942   0.41953   0.00000  Uiso   1.00
C188   C     0.79255   0.51977   0.41678   0.00000  Uiso   1.00
C189   C     0.65289   0.49707   0.40566   0.00000  Uiso   1.00
C190   C     0.97462   0.58084   0.37604   0.00000  Uiso   1.00
C191   C     0.04409   0.58572   0.30914   0.00000  Uiso   1.00
C192   C     0.01448   0.60181   0.25591   0.00000  Uiso   1.00
C193   C     0.00329   0.62660   0.15173   0.00000  Uiso   1.00
C194   C     0.98643   0.57400   0.53021   0.00000  Uiso   1.00
C195   C     0.06585   0.57314   0.59293   0.00000  Uiso   1.00
C196   C     0.04619   0.58349   0.66950   0.00000  Uiso   1.00
C197   C     0.05334   0.59766   0.80468   0.00000  Uiso   1.00
C198   C     0.81509   0.58372   0.46628   0.00000  Uiso   1.00
C199   C     0.79623   0.56106   0.44928   0.00000  Uiso   1.00
C200   C     0.69695   0.55144   0.44656   0.00000  Uiso   1.00
C201   C     0.69672   0.53060   0.43007   0.00000  Uiso   1.00
C202   C     0.87896   0.59165   0.38931   0.00000  Uiso   1.00
C203   C     0.84924   0.60774   0.33617   0.00000  Uiso   1.00
C204   C     0.91865   0.61264   0.26920   0.00000  Uiso   1.00
C205   C     0.89077   0.58481   0.54349   0.00000  Uiso   1.00
C206   C     0.87099   0.59516   0.61996   0.00000  Uiso   1.00
C207   C     0.95036   0.59432   0.68279   0.00000  Uiso   1.00
H208   H     0.06568   0.55540   0.43151   0.00000  Uiso   1.00
H209   H     0.96585   0.52106   0.40925   0.00000  Uiso   1.00
H210   H     0.11812   0.57735   0.29889   0.00000  Uiso   1.00
H211   H     0.13986   0.56478   0.58264   0.00000  Uiso   1.00
H212   H     0.81298   0.48776   0.39040   0.00000  Uiso   1.00
H213   H     0.13406   0.60645   0.15771   0.00000  Uiso   1.00
H214   H     0.17992   0.57994   0.75605   0.00000  Uiso   1.00
H215   H     0.74061   0.59213   0.47661   0.00000  Uiso   1.00
H216   H     0.62294   0.55981   0.45683   0.00000  Uiso   1.00
H217   H     0.77521   0.61610   0.34646   0.00000  Uiso   1.00
H218   H     0.79696   0.60352   0.63021   0.00000  Uiso   1.00
H219   H     0.53466   0.51921   0.42901   0.00000  Uiso   1.00
H220   H     0.85575   0.63790   0.19632   0.00000  Uiso   1.00
H221   H     0.90160   0.61139   0.79466   0.00000  Uiso   1.00
O222   O     0.60227   0.48156   0.39585   0.00000  Uiso   1.00
O223   O     0.02354   0.63728   0.09058   0.00000  Uiso   1.00
O224   O     0.08369   0.60249   0.87559   0.00000  Uiso   1.00
N225   N     0.76363   0.49960   0.40222   0.00000  Uiso   1.00
N226   N     0.06382   0.61057   0.18466   0.00000  Uiso   1.00
N227   N     0.10670   0.58578   0.74405   0.00000  Uiso   1.00
N228   N     0.61387   0.51652   0.42300   0.00000  Uiso   1.00
N229   N     0.91405   0.62749   0.20544   0.00000  Uiso   1.00
N230   N     0.95694   0.60270   0.76483   0.00000  Uiso   1.00
C231   C     0.99121   0.06382   0.94185   0.00000  Uiso   1.00
C232   C     0.89189   0.05025   0.93602   0.00000  Uiso   1.00
C233   C     0.89180   0.02942   0.91953   0.00000  Uiso   1.00
C234   C     0.79255   0.01977   0.91678   0.00000  Uiso   1.00
C235   C     0.65289   0.99707   0.90566   0.00000  Uiso   1.00
C236   C     0.97462   0.08084   0.87604   0.00000  Uiso   1.00
C237   C     0.04409   0.08572   0.80914   0.00000  Uiso   1.00
C238   C     0.01448   0.10181   0.75591   0.00000  Uiso   1.00
C239   C     0.00329   0.12660   0.65173   0.00000  Uiso   1.00
C240   C     0.98643   0.07400   0.03021   0.00000  Uiso   1.00
C241   C     0.06585   0.07314   0.09293   0.00000  Uiso   1.00
C242   C     0.04619   0.08349   0.16950   0.00000  Uiso   1.00
C243   C     0.05334   0.09766   0.30468   0.00000  Uiso   1.00
C244   C     0.81509   0.08372   0.96628   0.00000  Uiso   1.00
C245   C     0.79623   0.06106   0.94928   0.00000  Uiso   1.00
C246   C     0.69695   0.05144   0.94656   0.00000  Uiso   1.00
C247   C     0.69672   0.03060   0.93007   0.00000  Uiso   1.00
C248   C     0.87896   0.09165   0.88931   0.00000  Uiso   1.00
C249   C     0.84924   0.10774   0.83617   0.00000  Uiso   1.00
C250   C     0.91865   0.11264   0.76920   0.00000  Uiso   1.00
C251   C     0.89077   0.08481   0.04349   0.00000  Uiso   1.00
C252   C     0.87099   0.09516   0.11996   0.00000  Uiso   1.00
C253   C     0.95036   0.09432   0.18279   0.00000  Uiso   1.00
H254   H     0.06568   0.05540   0.93151   0.00000  Uiso   1.00
H255   H     0.96585   0.02106   0.90925   0.00000  Uiso   1.00
H256   H     0.11812   0.07735   0.79889   0.00000  Uiso   1.00
H257   H     0.13986   0.06478   0.08264   0.00000  Uiso   1.00
H258   H     0.81298   0.98776   0.89040   0.00000  Uiso   1.00
H259   H     0.13406   0.10645   0.65771   0.00000  Uiso   1.00
H260   H     0.17992   0.07994   0.25605   0.00000  Uiso   1.00
H261   H     0.74061   0.09213   0.97661   0.00000  Uiso   1.00
H262   H     0.62294   0.05981   0.95683   0.00000  Uiso   1.00
H263   H     0.77521   0.11610   0.84646   0.00000  Uiso   1.00
H264   H     0.79696   0.10352   0.13021   0.00000  Uiso   1.00
H265   H     0.53466   0.01921   0.92901   0.00000  Uiso   1.00
H266   H     0.85575   0.13790   0.69632   0.00000  Uiso   1.00
H267   H     0.90160   0.11139   0.29466   0.00000  Uiso   1.00
O268   O     0.60227   0.98156   0.89585   0.00000  Uiso   1.00
O269   O     0.02354   0.13728   0.59058   0.00000  Uiso   1.00
O270   O     0.08369   0.10249   0.37559   0.00000  Uiso   1.00
N271   N     0.76363   0.99960   0.90222   0.00000  Uiso   1.00
N272   N     0.06382   0.11057   0.68466   0.00000  Uiso   1.00
N273   N     0.10670   0.08578   0.24405   0.00000  Uiso   1.00
N274   N     0.61387   0.01652   0.92300   0.00000  Uiso   1.00
N275   N     0.91405   0.12749   0.70544   0.00000  Uiso   1.00
N276   N     0.95694   0.10270   0.26483   0.00000  Uiso   1.00
C277   C     0.49121   0.56382   0.94185   0.00000  Uiso   1.00
C278   C     0.39189   0.55025   0.93602   0.00000  Uiso   1.00
C279   C     0.39180   0.52942   0.91953   0.00000  Uiso   1.00
C280   C     0.29255   0.51977   0.91678   0.00000  Uiso   1.00
C281   C     0.15289   0.49707   0.90566   0.00000  Uiso   1.00
C282   C     0.47462   0.58084   0.87604   0.00000  Uiso   1.00
C283   C     0.54409   0.58572   0.80914   0.00000  Uiso   1.00
C284   C     0.51448   0.60181   0.75591   0.00000  Uiso   1.00
C285   C     0.50329   0.62660   0.65173   0.00000  Uiso   1.00
C286   C     0.48643   0.57400   0.03021   0.00000  Uiso   1.00
C287   C     0.56585   0.57314   0.09293   0.00000  Uiso   1.00
C288   C     0.54619   0.58349   0.16950   0.00000  Uiso   1.00
C289   C     0.55334   0.59766   0.30468   0.00000  Uiso   1.00
C290   C     0.31509   0.58372   0.96628   0.00000  Uiso   1.00
C291   C     0.29623   0.56106   0.94928   0.00000  Uiso   1.00
C292   C     0.19695   0.55144   0.94656   0.00000  Uiso   1.00
C293   C     0.19672   0.53060   0.93007   0.00000  Uiso   1.00
C294   C     0.37896   0.59165   0.88931   0.00000  Uiso   1.00
C295   C     0.34924   0.60774   0.83617   0.00000  Uiso   1.00
C296   C     0.41865   0.61264   0.76920   0.00000  Uiso   1.00
C297   C     0.39077   0.58481   0.04349   0.00000  Uiso   1.00
C298   C     0.37099   0.59516   0.11996   0.00000  Uiso   1.00
C299   C     0.45036   0.59432   0.18279   0.00000  Uiso   1.00
H300   H     0.56568   0.55540   0.93151   0.00000  Uiso   1.00
H301   H     0.46585   0.52106   0.90925   0.00000  Uiso   1.00
H302   H     0.61812   0.57735   0.79889   0.00000  Uiso   1.00
H303   H     0.63986   0.56478   0.08264   0.00000  Uiso   1.00
H304   H     0.31298   0.48776   0.89040   0.00000  Uiso   1.00
H305   H     0.63406   0.60645   0.65771   0.00000  Uiso   1.00
H306   H     0.67992   0.57994   0.25605   0.00000  Uiso   1.00
H307   H     0.24061   0.59213   0.97661   0.00000  Uiso   1.00
H308   H     0.12294   0.55981   0.95683   0.00000  Uiso   1.00
H309   H     0.27521   0.61610   0.84646   0.00000  Uiso   1.00
H310   H     0.29696   0.60352   0.13021   0.00000  Uiso   1.00
H311   H     0.03466   0.51921   0.92901   0.00000  Uiso   1.00
H312   H     0.35575   0.63790   0.69632   0.00000  Uiso   1.00
H313   H     0.40160   0.61139   0.29466   0.00000  Uiso   1.00
O314   O     0.10227   0.48156   0.89585   0.00000  Uiso   1.00
O315   O     0.52354   0.63728   0.59058   0.00000  Uiso   1.00
O316   O     0.58369   0.60249   0.37559   0.00000  Uiso   1.00
N317   N     0.26363   0.49960   0.90222   0.00000  Uiso   1.00
N318   N     0.56382   0.61057   0.68466   0.00000  Uiso   1.00
N319   N     0.60670   0.58578   0.24405   0.00000  Uiso   1.00
N320   N     0.11387   0.51652   0.92300   0.00000  Uiso   1.00
N321   N     0.41405   0.62749   0.70544   0.00000  Uiso   1.00
N322   N     0.45694   0.60270   0.26483   0.00000  Uiso   1.00
C323   C     0.49121   0.06382   0.44185   0.00000  Uiso   1.00
C324   C     0.39189   0.05025   0.43602   0.00000  Uiso   1.00
C325   C     0.39180   0.02942   0.41953   0.00000  Uiso   1.00
C326   C     0.29255   0.01977   0.41678   0.00000  Uiso   1.00
C327   C     0.15289   0.99707   0.40566   0.00000  Uiso   1.00
C328   C     0.47462   0.08084   0.37604   0.00000  Uiso   1.00
C329   C     0.54409   0.08572   0.30914   0.00000  Uiso   1.00
C330   C     0.51448   0.10181   0.25591   0.00000  Uiso   1.00
C331   C     0.50329   0.12660   0.15173   0.00000  Uiso   1.00
C332   C     0.48643   0.07400   0.53021   0.00000  Uiso   1.00
C333   C     0.56585   0.07314   0.59293   0.00000  Uiso   1.00
C334   C     0.54619   0.08349   0.66950   0.00000  Uiso   1.00
C335   C     0.55334   0.09766   0.80468   0.00000  Uiso   1.00
C336   C     0.31509   0.08372   0.46628   0.00000  Uiso   1.00
C337   C     0.29623   0.06106   0.44928   0.00000  Uiso   1.00
C338   C     0.19695   0.05144   0.44656   0.00000  Uiso   1.00
C339   C     0.19672   0.03060   0.43007   0.00000  Uiso   1.00
C340   C     0.37896   0.09165   0.38931   0.00000  Uiso   1.00
C341   C     0.34924   0.10774   0.33617   0.00000  Uiso   1.00
C342   C     0.41865   0.11264   0.26920   0.00000  Uiso   1.00
C343   C     0.39077   0.08481   0.54349   0.00000  Uiso   1.00
C344   C     0.37099   0.09516   0.61996   0.00000  Uiso   1.00
C345   C     0.45036   0.09432   0.68279   0.00000  Uiso   1.00
H346   H     0.56568   0.05540   0.43151   0.00000  Uiso   1.00
H347   H     0.46585   0.02106   0.40925   0.00000  Uiso   1.00
H348   H     0.61812   0.07735   0.29889   0.00000  Uiso   1.00
H349   H     0.63986   0.06478   0.58264   0.00000  Uiso   1.00
H350   H     0.31298   0.98776   0.39040   0.00000  Uiso   1.00
H351   H     0.63406   0.10645   0.15771   0.00000  Uiso   1.00
H352   H     0.67992   0.07994   0.75605   0.00000  Uiso   1.00
H353   H     0.24061   0.09213   0.47661   0.00000  Uiso   1.00
H354   H     0.12294   0.05981   0.45683   0.00000  Uiso   1.00
H355   H     0.27521   0.11610   0.34646   0.00000  Uiso   1.00
H356   H     0.29696   0.10352   0.63021   0.00000  Uiso   1.00
H357   H     0.03466   0.01921   0.42901   0.00000  Uiso   1.00
H358   H     0.35575   0.13790   0.19632   0.00000  Uiso   1.00
H359   H     0.40160   0.11139   0.79466   0.00000  Uiso   1.00
O360   O     0.10227   0.98156   0.39585   0.00000  Uiso   1.00
O361   O     0.52354   0.13728   0.09058   0.00000  Uiso   1.00
O362   O     0.58369   0.10249   0.87559   0.00000  Uiso   1.00
N363   N     0.26363   0.99960   0.40222   0.00000  Uiso   1.00
N364   N     0.56382   0.11057   0.18466   0.00000  Uiso   1.00
N365   N     0.60670   0.08578   0.74405   0.00000  Uiso   1.00
N366   N     0.11387   0.01652   0.42300   0.00000  Uiso   1.00
N367   N     0.41405   0.12749   0.20544   0.00000  Uiso   1.00
N368   N     0.45694   0.10270   0.76483   0.00000  Uiso   1.00
C369   C     0.25879   0.81382   0.69185   0.00000  Uiso   1.00
C370   C     0.35811   0.80025   0.68602   0.00000  Uiso   1.00
C371   C     0.35820   0.77942   0.66953   0.00000  Uiso   1.00
C372   C     0.45745   0.76977   0.66678   0.00000  Uiso   1.00
C373   C     0.59711   0.74707   0.65566   0.00000  Uiso   1.00
C374   C     0.27538   0.83084   0.62604   0.00000  Uiso   1.00
C375   C     0.20591   0.83572   0.55914   0.00000  Uiso   1.00
C376   C     0.23552   0.85181   0.50591   0.00000  Uiso   1.00
C377   C     0.24671   0.87660   0.40173   0.00000  Uiso   1.00
C378   C     0.26357   0.82400   0.78021   0.00000  Uiso   1.00
C379   C     0.18415   0.82314   0.84293   0.00000  Uiso   1.00
C380   C     0.20381   0.83349   0.91950   0.00000  Uiso   1.00
C381   C     0.19666   0.84766   0.05468   0.00000  Uiso   1.00
C382   C     0.43491   0.83372   0.71628   0.00000  Uiso   1.00
C383   C     0.45377   0.81106   0.69928   0.00000  Uiso   1.00
C384   C     0.55305   0.80144   0.69656   0.00000  Uiso   1.00
C385   C     0.55328   0.78060   0.68007   0.00000  Uiso   1.00
C386   C     0.37104   0.84165   0.63931   0.00000  Uiso   1.00
C387   C     0.40076   0.85774   0.58617   0.00000  Uiso   1.00
C388   C     0.33135   0.86264   0.51920   0.00000  Uiso   1.00
C389   C     0.35923   0.83481   0.79349   0.00000  Uiso   1.00
C390   C     0.37901   0.84516   0.86996   0.00000  Uiso   1.00
C391   C     0.29964   0.84432   0.93279   0.00000  Uiso   1.00
H392   H     0.18432   0.80540   0.68151   0.00000  Uiso   1.00
H393   H     0.28415   0.77106   0.65925   0.00000  Uiso   1.00
H394   H     0.13188   0.82735   0.54889   0.00000  Uiso   1.00
H395   H     0.11014   0.81478   0.83264   0.00000  Uiso   1.00
H396   H     0.43702   0.73776   0.64040   0.00000  Uiso   1.00
H397   H     0.11594   0.85645   0.40771   0.00000  Uiso   1.00
H398   H     0.07008   0.82994   0.00605   0.00000  Uiso   1.00
H399   H     0.50939   0.84213   0.72661   0.00000  Uiso   1.00
H400   H     0.62706   0.80981   0.70683   0.00000  Uiso   1.00
H401   H     0.47479   0.86610   0.59646   0.00000  Uiso   1.00
H402   H     0.45304   0.85352   0.88021   0.00000  Uiso   1.00
H403   H     0.71534   0.76921   0.67901   0.00000  Uiso   1.00
H404   H     0.39425   0.88790   0.44632   0.00000  Uiso   1.00
H405   H     0.34840   0.86139   0.04466   0.00000  Uiso   1.00
O406   O     0.64773   0.73156   0.64585   0.00000  Uiso   1.00
O407   O     0.22646   0.88728   0.34058   0.00000  Uiso   1.00
O408   O     0.16631   0.85249   0.12559   0.00000  Uiso   1.00
N409   N     0.48637   0.74960   0.65222   0.00000  Uiso   1.00
N410   N     0.18618   0.86057   0.43466   0.00000  Uiso   1.00
N411   N     0.14330   0.83578   0.99405   0.00000  Uiso   1.00
N412   N     0.63613   0.76652   0.67300   0.00000  Uiso   1.00
N413   N     0.33595   0.87749   0.45544   0.00000  Uiso   1.00
N414   N     0.29306   0.85270   0.01483   0.00000  Uiso   1.00
C415   C     0.25879   0.31382   0.19185   0.00000  Uiso   1.00
C416   C     0.35811   0.30025   0.18602   0.00000  Uiso   1.00
C417   C     0.35820   0.27942   0.16953   0.00000  Uiso   1.00
C418   C     0.45745   0.26977   0.16678   0.00000  Uiso   1.00
C419   C     0.59711   0.24707   0.15566   0.00000  Uiso   1.00
C420   C     0.27538   0.33084   0.12604   0.00000  Uiso   1.00
C421   C     0.20591   0.33572   0.05914   0.00000  Uiso   1.00
C422   C     0.23552   0.35181   0.00591   0.00000  Uiso   1.00
C423   C     0.24671   0.37660   0.90173   0.00000  Uiso   1.00
C424   C     0.26357   0.32400   0.28021   0.00000  Uiso   1.00
C425   C     0.18415   0.32314   0.34293   0.00000  Uiso   1.00
C426   C     0.20381   0.33349   0.41950   0.00000  Uiso   1.00
C427   C     0.19666   0.34766   0.55468   0.00000  Uiso   1.00
C428   C     0.43491   0.33372   0.21628   0.00000  Uiso   1.00
C429   C     0.45377   0.31106   0.19928   0.00000  Uiso   1.00
C430   C     0.55305   0.30144   0.19656   0.00000  Uiso   1.00
C431   C     0.55328   0.28060   0.18007   0.00000  Uiso   1.00
C432   C     0.37104   0.34165   0.13931   0.00000  Uiso   1.00
C433   C     0.40076   0.35774   0.08617   0.00000  Uiso   1.00
C434   C     0.33135   0.36264   0.01920   0.00000  Uiso   1.00
C435   C     0.35923   0.33481   0.29349   0.00000  Uiso   1.00
C436   C     0.37901   0.34516   0.36996   0.00000  Uiso   1.00
C437   C     0.29964   0.34432   0.43279   0.00000  Uiso   1.00
H438   H     0.18432   0.30540   0.18151   0.00000  Uiso   1.00
H439   H     0.28415   0.27106   0.15925   0.00000  Uiso   1.00
H440   H     0.13188   0.32735   0.04889   0.00000  Uiso   1.00
H441   H     0.11014   0.31478   0.33264   0.00000  Uiso   1.00
H442   H     0.43702   0.23776   0.14040   0.00000  Uiso   1.00
H443   H     0.11594   0.35645   0.90771   0.00000  Uiso   1.00
H444   H     0.07008   0.32994   0.50605   0.00000  Uiso   1.00
H445   H     0.50939   0.34213   0.22661   0.00000  Uiso   1.00
H446   H     0.62706   0.30981   0.20683   0.00000  Uiso   1.00
H447   H     0.47479   0.36610   0.09646   0.00000  Uiso   1.00
H448   H     0.45304   0.35352   0.38021   0.00000  Uiso   1.00
H449   H     0.71534   0.26921   0.17901   0.00000  Uiso   1.00
H450   H     0.39425   0.38790   0.94632   0.00000  Uiso   1.00
H451   H     0.34840   0.36139   0.54466   0.00000  Uiso   1.00
O452   O     0.64773   0.23156   0.14585   0.00000  Uiso   1.00
O453   O     0.22646   0.38728   0.84058   0.00000  Uiso   1.00
O454   O     0.16631   0.35249   0.62559   0.00000  Uiso   1.00
N455   N     0.48637   0.24960   0.15222   0.00000  Uiso   1.00
N456   N     0.18618   0.36057   0.93466   0.00000  Uiso   1.00
N457   N     0.14330   0.33578   0.49405   0.00000  Uiso   1.00
N458   N     0.63613   0.26652   0.17300   0.00000  Uiso   1.00
N459   N     0.33595   0.37749   0.95544   0.00000  Uiso   1.00
N460   N     0.29306   0.35270   0.51483   0.00000  Uiso   1.00
C461   C     0.75879   0.81382   0.19185   0.00000  Uiso   1.00
C462   C     0.85811   0.80025   0.18602   0.00000  Uiso   1.00
C463   C     0.85820   0.77942   0.16953   0.00000  Uiso   1.00
C464   C     0.95745   0.76977   0.16678   0.00000  Uiso   1.00
C465   C     0.09711   0.74707   0.15566   0.00000  Uiso   1.00
C466   C     0.77538   0.83084   0.12604   0.00000  Uiso   1.00
C467   C     0.70591   0.83572   0.05914   0.00000  Uiso   1.00
C468   C     0.73552   0.85181   0.00591   0.00000  Uiso   1.00
C469   C     0.74671   0.87660   0.90173   0.00000  Uiso   1.00
C470   C     0.76357   0.82400   0.28021   0.00000  Uiso   1.00
C471   C     0.68415   0.82314   0.34293   0.00000  Uiso   1.00
C472   C     0.70381   0.83349   0.41950   0.00000  Uiso   1.00
C473   C     0.69666   0.84766   0.55468   0.00000  Uiso   1.00
C474   C     0.93491   0.83372   0.21628   0.00000  Uiso   1.00
C475   C     0.95377   0.81106   0.19928   0.00000  Uiso   1.00
C476   C     0.05305   0.80144   0.19656   0.00000  Uiso   1.00
C477   C     0.05328   0.78060   0.18007   0.00000  Uiso   1.00
C478   C     0.87104   0.84165   0.13931   0.00000  Uiso   1.00
C479   C     0.90076   0.85774   0.08617   0.00000  Uiso   1.00
C480   C     0.83135   0.86264   0.01920   0.00000  Uiso   1.00
C481   C     0.85923   0.83481   0.29349   0.00000  Uiso   1.00
C482   C     0.87901   0.84516   0.36996   0.00000  Uiso   1.00
C483   C     0.79964   0.84432   0.43279   0.00000  Uiso   1.00
H484   H     0.68432   0.80540   0.18151   0.00000  Uiso   1.00
H485   H     0.78415   0.77106   0.15925   0.00000  Uiso   1.00
H486   H     0.63188   0.82735   0.04889   0.00000  Uiso   1.00
H487   H     0.61014   0.81478   0.33264   0.00000  Uiso   1.00
H488   H     0.93702   0.73776   0.14040   0.00000  Uiso   1.00
H489   H     0.61594   0.85645   0.90771   0.00000  Uiso   1.00
H490   H     0.57008   0.82994   0.50605   0.00000  Uiso   1.00
H491   H     0.00939   0.84213   0.22661   0.00000  Uiso   1.00
H492   H     0.12706   0.80981   0.20683   0.00000  Uiso   1.00
H493   H     0.97479   0.86610   0.09646   0.00000  Uiso   1.00
H494   H     0.95304   0.85352   0.38021   0.00000  Uiso   1.00
H495   H     0.21534   0.76921   0.17901   0.00000  Uiso   1.00
H496   H     0.89425   0.88790   0.94632   0.00000  Uiso   1.00
H497   H     0.84840   0.86139   0.54466   0.00000  Uiso   1.00
O498   O     0.14773   0.73156   0.14585   0.00000  Uiso   1.00
O499   O     0.72646   0.88728   0.84058   0.00000  Uiso   1.00
O500   O     0.66631   0.85249   0.62559   0.00000  Uiso   1.00
N501   N     0.98637   0.74960   0.15222   0.00000  Uiso   1.00
N502   N     0.68618   0.86057   0.93466   0.00000  Uiso   1.00
N503   N     0.64330   0.83578   0.49405   0.00000  Uiso   1.00
N504   N     0.13613   0.76652   0.17300   0.00000  Uiso   1.00
N505   N     0.83595   0.87749   0.95544   0.00000  Uiso   1.00
N506   N     0.79306   0.85270   0.51483   0.00000  Uiso   1.00
C507   C     0.75879   0.31382   0.69185   0.00000  Uiso   1.00
C508   C     0.85811   0.30025   0.68602   0.00000  Uiso   1.00
C509   C     0.85820   0.27942   0.66953   0.00000  Uiso   1.00
C510   C     0.95745   0.26977   0.66678   0.00000  Uiso   1.00
C511   C     0.09711   0.24707   0.65566   0.00000  Uiso   1.00
C512   C     0.77538   0.33084   0.62604   0.00000  Uiso   1.00
C513   C     0.70591   0.33572   0.55914   0.00000  Uiso   1.00
C514   C     0.73552   0.35181   0.50591   0.00000  Uiso   1.00
C515   C     0.74671   0.37660   0.40173   0.00000  Uiso   1.00
C516   C     0.76357   0.32400   0.78021   0.00000  Uiso   1.00
C517   C     0.68415   0.32314   0.84293   0.00000  Uiso   1.00
C518   C     0.70381   0.33349   0.91950   0.00000  Uiso   1.00
C519   C     0.69666   0.34766   0.05468   0.00000  Uiso   1.00
C520   C     0.93491   0.33372   0.71628   0.00000  Uiso   1.00
C521   C     0.95377   0.31106   0.69928   0.00000  Uiso   1.00
C522   C     0.05305   0.30144   0.69656   0.00000  Uiso   1.00
C523   C     0.05328   0.28060   0.68007   0.00000  Uiso   1.00
C524   C     0.87104   0.34165   0.63931   0.00000  Uiso   1.00
C525   C     0.90076   0.35774   0.58617   0.00000  Uiso   1.00
C526   C     0.83135   0.36264   0.51920   0.00000  Uiso   1.00
C527   C     0.85923   0.33481   0.79349   0.00000  Uiso   1.00
C528   C     0.87901   0.34516   0.86996   0.00000  Uiso   1.00
C529   C     0.79964   0.34432   0.93279   0.00000  Uiso   1.00
H530   H     0.68432   0.30540   0.68151   0.00000  Uiso   1.00
H531   H     0.78415   0.27106   0.65925   0.00000  Uiso   1.00
H532   H     0.63188   0.32735   0.54889   0.00000  Uiso   1.00
H533   H     0.61014   0.31478   0.83264   0.00000  Uiso   1.00
H534   H     0.93702   0.23776   0.64040   0.00000  Uiso   1.00
H535   H     0.61594   0.35645   0.40771   0.00000  Uiso   1.00
H536   H     0.57008   0.32994   0.00605   0.00000  Uiso   1.00
H537   H     0.00939   0.34213   0.72661   0.00000  Uiso   1.00
H538   H     0.12706   0.30981   0.70683   0.00000  Uiso   1.00
H539   H     0.97479   0.36610   0.59646   0.00000  Uiso   1.00
H540   H     0.95304   0.35352   0.88021   0.00000  Uiso   1.00
H541   H     0.21534   0.26921   0.67901   0.00000  Uiso   1.00
H542   H     0.89425   0.38790   0.44632   0.00000  Uiso   1.00
H543   H     0.84840   0.36139   0.04466   0.00000  Uiso   1.00
O544   O     0.14773   0.23156   0.64585   0.00000  Uiso   1.00
O545   O     0.72646   0.38728   0.34058   0.00000  Uiso   1.00
O546   O     0.66631   0.35249   0.12559   0.00000  Uiso   1.00
N547   N     0.98637   0.24960   0.65222   0.00000  Uiso   1.00
N548   N     0.68618   0.36057   0.43466   0.00000  Uiso   1.00
N549   N     0.64330   0.33578   0.99405   0.00000  Uiso   1.00
N550   N     0.13613   0.26652   0.67300   0.00000  Uiso   1.00
N551   N     0.83595   0.37749   0.45544   0.00000  Uiso   1.00
N552   N     0.79306   0.35270   0.01483   0.00000  Uiso   1.00
C553   C     0.24121   0.68618   0.69185   0.00000  Uiso   1.00
C554   C     0.14189   0.69975   0.68602   0.00000  Uiso   1.00
C555   C     0.14180   0.72058   0.66953   0.00000  Uiso   1.00
C556   C     0.04255   0.73023   0.66678   0.00000  Uiso   1.00
C557   C     0.90289   0.75293   0.65566   0.00000  Uiso   1.00
C558   C     0.22462   0.66916   0.62604   0.00000  Uiso   1.00
C559   C     0.29409   0.66428   0.55914   0.00000  Uiso   1.00
C560   C     0.26448   0.64819   0.50591   0.00000  Uiso   1.00
C561   C     0.25329   0.62340   0.40173   0.00000  Uiso   1.00
C562   C     0.23643   0.67600   0.78021   0.00000  Uiso   1.00
C563   C     0.31585   0.67686   0.84293   0.00000  Uiso   1.00
C564   C     0.29619   0.66651   0.91950   0.00000  Uiso   1.00
C565   C     0.30334   0.65234   0.05468   0.00000  Uiso   1.00
C566   C     0.06509   0.66628   0.71628   0.00000  Uiso   1.00
C567   C     0.04623   0.68894   0.69928   0.00000  Uiso   1.00
C568   C     0.94695   0.69856   0.69656   0.00000  Uiso   1.00
C569   C     0.94672   0.71940   0.68007   0.00000  Uiso   1.00
C570   C     0.12896   0.65835   0.63931   0.00000  Uiso   1.00
C571   C     0.09924   0.64226   0.58617   0.00000  Uiso   1.00
C572   C     0.16865   0.63736   0.51920   0.00000  Uiso   1.00
C573   C     0.14077   0.66519   0.79349   0.00000  Uiso   1.00
C574   C     0.12099   0.65484   0.86996   0.00000  Uiso   1.00
C575   C     0.20036   0.65568   0.93279   0.00000  Uiso   1.00
H576   H     0.31568   0.69460   0.68151   0.00000  Uiso   1.00
H577   H     0.21585   0.72894   0.65925   0.00000  Uiso   1.00
H578   H     0.36812   0.67265   0.54889   0.00000  Uiso   1.00
H579   H     0.38986   0.68522   0.83264   0.00000  Uiso   1.00
H580   H     0.06298   0.76224   0.64040   0.00000  Uiso   1.00
H581   H     0.38406   0.64355   0.40771   0.00000  Uiso   1.00
H582   H     0.42992   0.67006   0.00605   0.00000  Uiso   1.00
H583   H     0.99061   0.65787   0.72661   0.00000  Uiso   1.00
H584   H     0.87294   0.69019   0.70683   0.00000  Uiso   1.00
H585   H     0.02521   0.63390   0.59646   0.00000  Uiso   1.00
H586   H     0.04696   0.64648   0.88021   0.00000  Uiso   1.00
H587   H     0.78466   0.73079   0.67901   0.00000  Uiso   1.00
H588   H     0.10575   0.61210   0.44632   0.00000  Uiso   1.00
H589   H     0.15160   0.63861   0.04466   0.00000  Uiso   1.00
O590   O     0.85227   0.76844   0.64585   0.00000  Uiso   1.00
O591   O     0.27354   0.61272   0.34058   0.00000  Uiso   1.00
O592   O     0.33369   0.64751   0.12559   0.00000  Uiso   1.00
N593   N     0.01363   0.75040   0.65222   0.00000  Uiso   1.00
N594   N     0.31382   0.63943   0.43466   0.00000  Uiso   1.00
N595   N     0.35670   0.66422   0.99405   0.00000  Uiso   1.00
N596   N     0.86387   0.73348   0.67300   0.00000  Uiso   1.00
N597   N     0.16405   0.62251   0.45544   0.00000  Uiso   1.00
N598   N     0.20694   0.64730   0.01483   0.00000  Uiso   1.00
C599   C     0.24121   0.18618   0.19185   0.00000  Uiso   1.00
C600   C     0.14189   0.19975   0.18602   0.00000  Uiso   1.00
C601   C     0.14180   0.22058   0.16953   0.00000  Uiso   1.00
C602   C     0.04255   0.23023   0.16678   0.00000  Uiso   1.00
C603   C     0.90289   0.25293   0.15566   0.00000  Uiso   1.00
C604   C     0.22462   0.16916   0.12604   0.00000  Uiso   1.00
C605   C     0.29409   0.16428   0.05914   0.00000  Uiso   1.00
C606   C     0.26448   0.14819   0.00591   0.00000  Uiso   1.00
C607   C     0.25329   0.12340   0.90173   0.00000  Uiso   1.00
C608   C     0.23643   0.17600   0.28021   0.00000  Uiso   1.00
C609   C     0.31585   0.17686   0.34293   0.00000  Uiso   1.00
C610   C     0.29619   0.16651   0.41950   0.00000  Uiso   1.00
C611   C     0.30334   0.15234   0.55468   0.00000  Uiso   1.00
C612   C     0.06509   0.16628   0.21628   0.00000  Uiso   1.00
C613   C     0.04623   0.18894   0.19928   0.00000  Uiso   1.00
C614   C     0.94695   0.19856   0.19656   0.00000  Uiso   1.00
C615   C     0.94672   0.21940   0.18007   0.00000  Uiso   1.00
C616   C     0.12896   0.15835   0.13931   0.00000  Uiso   1.00
C617   C     0.09924   0.14226   0.08617   0.00000  Uiso   1.00
C618   C     0.16865   0.13736   0.01920   0.00000  Uiso   1.00
C619   C     0.14077   0.16519   0.29349   0.00000  Uiso   1.00
C620   C     0.12099   0.15484   0.36996   0.00000  Uiso   1.00
C621   C     0.20036   0.15568   0.43279   0.00000  Uiso   1.00
H622   H     0.31568   0.19460   0.18151   0.00000  Uiso   1.00
H623   H     0.21585   0.22894   0.15925   0.00000  Uiso   1.00
H624   H     0.36812   0.17265   0.04889   0.00000  Uiso   1.00
H625   H     0.38986   0.18522   0.33264   0.00000  Uiso   1.00
H626   H     0.06298   0.26224   0.14040   0.00000  Uiso   1.00
H627   H     0.38406   0.14355   0.90771   0.00000  Uiso   1.00
H628   H     0.42992   0.17006   0.50605   0.00000  Uiso   1.00
H629   H     0.99061   0.15787   0.22661   0.00000  Uiso   1.00
H630   H     0.87294   0.19019   0.20683   0.00000  Uiso   1.00
H631   H     0.02521   0.13390   0.09646   0.00000  Uiso   1.00
H632   H     0.04696   0.14648   0.38021   0.00000  Uiso   1.00
H633   H     0.78466   0.23079   0.17901   0.00000  Uiso   1.00
H634   H     0.10575   0.11210   0.94632   0.00000  Uiso   1.00
H635   H     0.15160   0.13861   0.54466   0.00000  Uiso   1.00
O636   O     0.85227   0.26844   0.14585   0.00000  Uiso   1.00
O637   O     0.27354   0.11272   0.84058   0.00000  Uiso   1.00
O638   O     0.33369   0.14751   0.62559   0.00000  Uiso   1.00
N639   N     0.01363   0.25040   0.15222   0.00000  Uiso   1.00
N640   N     0.31382   0.13943   0.93466   0.00000  Uiso   1.00
N641   N     0.35670   0.16422   0.49405   0.00000  Uiso   1.00
N642   N     0.86387   0.23348   0.17300   0.00000  Uiso   1.00
N643   N     0.16405   0.12251   0.95544   0.00000  Uiso   1.00
N644   N     0.20694   0.14730   0.51483   0.00000  Uiso   1.00
C645   C     0.74121   0.68618   0.19185   0.00000  Uiso   1.00
C646   C     0.64189   0.69975   0.18602   0.00000  Uiso   1.00
C647   C     0.64180   0.72058   0.16953   0.00000  Uiso   1.00
C648   C     0.54255   0.73023   0.16678   0.00000  Uiso   1.00
C649   C     0.40289   0.75293   0.15566   0.00000  Uiso   1.00
C650   C     0.72462   0.66916   0.12604   0.00000  Uiso   1.00
C651   C     0.79409   0.66428   0.05914   0.00000  Uiso   1.00
C652   C     0.76448   0.64819   0.00591   0.00000  Uiso   1.00
C653   C     0.75329   0.62340   0.90173   0.00000  Uiso   1.00
C654   C     0.73643   0.67600   0.28021   0.00000  Uiso   1.00
C655   C     0.81585   0.67686   0.34293   0.00000  Uiso   1.00
C656   C     0.79619   0.66651   0.41950   0.00000  Uiso   1.00
C657   C     0.80334   0.65234   0.55468   0.00000  Uiso   1.00
C658   C     0.56509   0.66628   0.21628   0.00000  Uiso   1.00
C659   C     0.54623   0.68894   0.19928   0.00000  Uiso   1.00
C660   C     0.44695   0.69856   0.19656   0.00000  Uiso   1.00
C661   C     0.44672   0.71940   0.18007   0.00000  Uiso   1.00
C662   C     0.62896   0.65835   0.13931   0.00000  Uiso   1.00
C663   C     0.59924   0.64226   0.08617   0.00000  Uiso   1.00
C664   C     0.66865   0.63736   0.01920   0.00000  Uiso   1.00
C665   C     0.64077   0.66519   0.29349   0.00000  Uiso   1.00
C666   C     0.62099   0.65484   0.36996   0.00000  Uiso   1.00
C667   C     0.70036   0.65568   0.43279   0.00000  Uiso   1.00
H668   H     0.81568   0.69460   0.18151   0.00000  Uiso   1.00
H669   H     0.71585   0.72894   0.15925   0.00000  Uiso   1.00
H670   H     0.86812   0.67265   0.04889   0.00000  Uiso   1.00
H671   H     0.88986   0.68522   0.33264   0.00000  Uiso   1.00
H672   H     0.56298   0.76224   0.14040   0.00000  Uiso   1.00
H673   H     0.88406   0.64355   0.90771   0.00000  Uiso   1.00
H674   H     0.92992   0.67006   0.50605   0.00000  Uiso   1.00
H675   H     0.49061   0.65787   0.22661   0.00000  Uiso   1.00
H676   H     0.37294   0.69019   0.20683   0.00000  Uiso   1.00
H677   H     0.52521   0.63390   0.09646   0.00000  Uiso   1.00
H678   H     0.54696   0.64648   0.38021   0.00000  Uiso   1.00
H679   H     0.28466   0.73079   0.17901   0.00000  Uiso   1.00
H680   H     0.60575   0.61210   0.94632   0.00000  Uiso   1.00
H681   H     0.65160   0.63861   0.54466   0.00000  Uiso   1.00
O682   O     0.35227   0.76844   0.14585   0.00000  Uiso   1.00
O683   O     0.77354   0.61272   0.84058   0.00000  Uiso   1.00
O684   O     0.83369   0.64751   0.62559   0.00000  Uiso   1.00
N685   N     0.51363   0.75040   0.15222   0.00000  Uiso   1.00
N686   N     0.81382   0.63943   0.93466   0.00000  Uiso   1.00
N687   N     0.85670   0.66422   0.49405   0.00000  Uiso   1.00
N688   N     0.36387   0.73348   0.17300   0.00000  Uiso   1.00
N689   N     0.66405   0.62251   0.95544   0.00000  Uiso   1.00
N690   N     0.70694   0.64730   0.51483   0.00000  Uiso   1.00
C691   C     0.74121   0.18618   0.69185   0.00000  Uiso   1.00
C692   C     0.64189   0.19975   0.68602   0.00000  Uiso   1.00
C693   C     0.64180   0.22058   0.66953   0.00000  Uiso   1.00
C694   C     0.54255   0.23023   0.66678   0.00000  Uiso   1.00
C695   C     0.40289   0.25293   0.65566   0.00000  Uiso   1.00
C696   C     0.72462   0.16916   0.62604   0.00000  Uiso   1.00
C697   C     0.79409   0.16428   0.55914   0.00000  Uiso   1.00
C698   C     0.76448   0.14819   0.50591   0.00000  Uiso   1.00
C699   C     0.75329   0.12340   0.40173   0.00000  Uiso   1.00
C700   C     0.73643   0.17600   0.78021   0.00000  Uiso   1.00
C701   C     0.81585   0.17686   0.84293   0.00000  Uiso   1.00
C702   C     0.79619   0.16651   0.91950   0.00000  Uiso   1.00
C703   C     0.80334   0.15234   0.05468   0.00000  Uiso   1.00
C704   C     0.56509   0.16628   0.71628   0.00000  Uiso   1.00
C705   C     0.54623   0.18894   0.69928   0.00000  Uiso   1.00
C706   C     0.44695   0.19856   0.69656   0.00000  Uiso   1.00
C707   C     0.44672   0.21940   0.68007   0.00000  Uiso   1.00
C708   C     0.62896   0.15835   0.63931   0.00000  Uiso   1.00
C709   C     0.59924   0.14226   0.58617   0.00000  Uiso   1.00
C710   C     0.66865   0.13736   0.51920   0.00000  Uiso   1.00
C711   C     0.64077   0.16519   0.79349   0.00000  Uiso   1.00
C712   C     0.62099   0.15484   0.86996   0.00000  Uiso   1.00
C713   C     0.70036   0.15568   0.93279   0.00000  Uiso   1.00
H714   H     0.81568   0.19460   0.68151   0.00000  Uiso   1.00
H715   H     0.71585   0.22894   0.65925   0.00000  Uiso   1.00
H716   H     0.86812   0.17265   0.54889   0.00000  Uiso   1.00
H717   H     0.88986   0.18522   0.83264   0.00000  Uiso   1.00
H718   H     0.56298   0.26224   0.64040   0.00000  Uiso   1.00
H719   H     0.88406   0.14355   0.40771   0.00000  Uiso   1.00
H720   H     0.92992   0.17006   0.00605   0.00000  Uiso   1.00
H721   H     0.49061   0.15787   0.72661   0.00000  Uiso   1.00
H722   H     0.37294   0.19019   0.70683   0.00000  Uiso   1.00
H723   H     0.52521   0.13390   0.59646   0.00000  Uiso   1.00
H724   H     0.54696   0.14648   0.88021   0.00000  Uiso   1.00
H725   H     0.28466   0.23079   0.67901   0.00000  Uiso   1.00
H726   H     0.60575   0.11210   0.44632   0.00000  Uiso   1.00
H727   H     0.65160   0.13861   0.04466   0.00000  Uiso   1.00
O728   O     0.35227   0.26844   0.64585   0.00000  Uiso   1.00
O729   O     0.77354   0.11272   0.34058   0.00000  Uiso   1.00
O730   O     0.83369   0.14751   0.12559   0.00000  Uiso   1.00
N731   N     0.51363   0.25040   0.65222   0.00000  Uiso   1.00
N732   N     0.81382   0.13943   0.43466   0.00000  Uiso   1.00
N733   N     0.85670   0.16422   0.99405   0.00000  Uiso   1.00
N734   N     0.36387   0.23348   0.67300   0.00000  Uiso   1.00
N735   N     0.66405   0.12251   0.45544   0.00000  Uiso   1.00
N736   N     0.70694   0.14730   0.01483   0.00000  Uiso   1.00
