data_job_06882
_audit_creation_date              2018-12-19
_audit_creation_method            'Materials Studio'
_symmetry_space_group_name_H-M    'P1'
_symmetry_Int_Tables_number       1
_symmetry_cell_setting            triclinic
loop_
_symmetry_equiv_pos_as_xyz
  x,y,z
_cell_length_a                    30.8423
_cell_length_b                    30.8423
_cell_length_c                    34.8116
_cell_angle_alpha                 90.0000
_cell_angle_beta                  90.0000
_cell_angle_gamma                 120.0000
loop_
_atom_site_label
_atom_site_type_symbol
_atom_site_fract_x
_atom_site_fract_y
_atom_site_fract_z
_atom_site_U_iso_or_equiv
_atom_site_adp_type
_atom_site_occupancy
C1     C     0.33335   0.84975   0.55148   0.00000  Uiso   1.00
C2     C     0.29477   0.81691   0.52151   0.00000  Uiso   1.00
C3     C     0.24323   0.79519   0.52510   0.00000  Uiso   1.00
C4     C     0.21433   0.76643   0.49447   0.00000  Uiso   1.00
C5     C     0.15109   0.71645   0.45296   0.00000  Uiso   1.00
C6     C     0.36437   0.82488   0.55998   0.00000  Uiso   1.00
C7     C     0.37137   0.80987   0.59592   0.00000  Uiso   1.00
C8     C     0.40107   0.78783   0.59768   0.00000  Uiso   1.00
C9     C     0.44592   0.75025   0.61591   0.00000  Uiso   1.00
C10    C     0.36853   0.89892   0.53130   0.00000  Uiso   1.00
C11    C     0.37904   0.94617   0.54313   0.00000  Uiso   1.00
C12    C     0.41225   0.98647   0.52075   0.00000  Uiso   1.00
C13    C     0.46356   0.06385   0.49445   0.00000  Uiso   1.00
C14    C     0.04033   0.17063   0.82403   0.00000  Uiso   1.00
C15    C     0.31666   0.81015   0.48849   0.00000  Uiso   1.00
C16    C     0.95450   0.11475   0.79119   0.00000  Uiso   1.00
C17    C     0.23626   0.75966   0.46140   0.00000  Uiso   1.00
C18    C     0.05293   0.15145   0.86030   0.00000  Uiso   1.00
C19    C     0.08263   0.12943   0.86201   0.00000  Uiso   1.00
C20    C     0.08967   0.11439   0.89794   0.00000  Uiso   1.00
C21    C     0.39043   0.89216   0.49829   0.00000  Uiso   1.00
C22    C     0.42363   0.93239   0.47589   0.00000  Uiso   1.00
C23    C     0.43418   0.97969   0.48768   0.00000  Uiso   1.00
H24    H     0.31631   0.85502   0.57718   0.00000  Uiso   1.00
H25    H     0.22630   0.80043   0.55065   0.00000  Uiso   1.00
H26    H     0.35443   0.81512   0.62147   0.00000  Uiso   1.00
H27    H     0.36209   0.95139   0.56868   0.00000  Uiso   1.00
H28    H     0.13617   0.73692   0.50669   0.00000  Uiso   1.00
H29    H     0.73967   0.43456   0.32267   0.00000  Uiso   1.00
H30    H     0.42250   0.05526   0.54470   0.00000  Uiso   1.00
H31    H     0.05737   0.16537   0.79833   0.00000  Uiso   1.00
H32    H     0.97145   0.10952   0.76564   0.00000  Uiso   1.00
H33    H     0.09957   0.12420   0.83645   0.00000  Uiso   1.00
H34    H     0.10723   0.26048   0.78367   0.00000  Uiso   1.00
H35    H     0.86654   0.05057   0.74397   0.00000  Uiso   1.00
H36    H     0.47004   0.74821   0.55995   0.00000  Uiso   1.00
H37    H     0.48620   0.03558   0.44865   0.00000  Uiso   1.00
O38    O     0.11016   0.69074   0.43919   0.00000  Uiso   1.00
O39    O     0.46461   0.73139   0.63508   0.00000  Uiso   1.00
O40    O     0.48581   0.10840   0.48906   0.00000  Uiso   1.00
N41    N     0.16296   0.73996   0.48856   0.00000  Uiso   1.00
N42    N     0.74887   0.43558   0.29483   0.00000  Uiso   1.00
N43    N     0.43066   0.03758   0.52411   0.00000  Uiso   1.00
N44    N     0.86390   0.06270   0.77021   0.00000  Uiso   1.00
N45    N     0.44981   0.75832   0.57648   0.00000  Uiso   1.00
N46    N     0.46493   0.02699   0.47243   0.00000  Uiso   1.00
C47    C     0.80445   0.00668   0.38954   0.00000  Uiso   1.00
C48    C     0.83405   0.04675   0.35951   0.00000  Uiso   1.00
C49    C     0.85226   0.09772   0.36377   0.00000  Uiso   1.00
C50    C     0.87844   0.12822   0.33297   0.00000  Uiso   1.00
C51    C     0.92326   0.19347   0.29150   0.00000  Uiso   1.00
C52    C     0.83339   0.97922   0.39629   0.00000  Uiso   1.00
C53    C     0.85104   0.97341   0.43147   0.00000  Uiso   1.00
C54    C     0.87666   0.94705   0.43162   0.00000  Uiso   1.00
C55    C     0.92043   0.90742   0.44726   0.00000  Uiso   1.00
C56    C     0.75559   0.96907   0.37013   0.00000  Uiso   1.00
C57    C     0.70780   0.95470   0.38332   0.00000  Uiso   1.00
C58    C     0.66792   0.91979   0.36145   0.00000  Uiso   1.00
C59    C     0.25754   0.19772   0.66979   0.00000  Uiso   1.00
C60    C     0.81858   0.97021   0.32724   0.00000  Uiso   1.00
C61    C     0.84173   0.02694   0.32568   0.00000  Uiso   1.00
C62    C     0.86789   0.05738   0.29486   0.00000  Uiso   1.00
C63    C     0.88613   0.10838   0.29907   0.00000  Uiso   1.00
C64    C     0.84107   0.95941   0.36245   0.00000  Uiso   1.00
C65    C     0.86667   0.93306   0.36255   0.00000  Uiso   1.00
C66    C     0.88435   0.92721   0.39773   0.00000  Uiso   1.00
C67    C     0.76326   0.94926   0.33629   0.00000  Uiso   1.00
C68    C     0.72344   0.91436   0.31440   0.00000  Uiso   1.00
C69    C     0.34227   0.23328   0.66088   0.00000  Uiso   1.00
H70    H     0.79847   0.02210   0.41588   0.00000  Uiso   1.00
H71    H     0.84631   0.11304   0.38996   0.00000  Uiso   1.00
H72    H     0.84509   0.98873   0.45765   0.00000  Uiso   1.00
H73    H     0.70188   0.97004   0.40950   0.00000  Uiso   1.00
H74    H     0.90275   0.20513   0.34632   0.00000  Uiso   1.00
H75    H     0.90016   0.94302   0.48904   0.00000  Uiso   1.00
H76    H     0.26483   0.23692   0.72084   0.00000  Uiso   1.00
H77    H     0.82456   0.95479   0.30090   0.00000  Uiso   1.00
H78    H     0.87383   0.04204   0.26868   0.00000  Uiso   1.00
H79    H     0.87260   0.91773   0.33637   0.00000  Uiso   1.00
H80    H     0.39606   0.23237   0.62155   0.00000  Uiso   1.00
H81    H     0.92509   0.14750   0.24788   0.00000  Uiso   1.00
H82    H     0.92249   0.88539   0.39060   0.00000  Uiso   1.00
H83    H     0.28717   0.17929   0.62240   0.00000  Uiso   1.00
O84    O     0.94587   0.23493   0.27798   0.00000  Uiso   1.00
O85    O     0.94246   0.89104   0.46523   0.00000  Uiso   1.00
O86    O     0.21293   0.17264   0.66535   0.00000  Uiso   1.00
N87    N     0.90124   0.17959   0.32757   0.00000  Uiso   1.00
N88    N     0.89882   0.93454   0.46101   0.00000  Uiso   1.00
N89    N     0.28315   0.23100   0.69942   0.00000  Uiso   1.00
N90    N     0.91325   0.14858   0.27460   0.00000  Uiso   1.00
N91    N     0.91084   0.90353   0.40804   0.00000  Uiso   1.00
N92    N     0.29517   0.19999   0.64645   0.00000  Uiso   1.00
C93    C     0.00002   0.18309   0.88481   0.00000  Uiso   1.00
C94    C     0.96143   0.15025   0.85484   0.00000  Uiso   1.00
C95    C     0.90990   0.12853   0.85843   0.00000  Uiso   1.00
C96    C     0.88100   0.09977   0.82780   0.00000  Uiso   1.00
C97    C     0.81775   0.04978   0.78629   0.00000  Uiso   1.00
C98    C     0.03104   0.15822   0.89331   0.00000  Uiso   1.00
C99    C     0.03804   0.14321   0.92926   0.00000  Uiso   1.00
C100   C     0.06773   0.12116   0.93101   0.00000  Uiso   1.00
C101   C     0.11259   0.08359   0.94924   0.00000  Uiso   1.00
C102   C     0.03520   0.23226   0.86464   0.00000  Uiso   1.00
C103   C     0.04570   0.27951   0.87647   0.00000  Uiso   1.00
C104   C     0.07891   0.31980   0.85408   0.00000  Uiso   1.00
C105   C     0.13023   0.39719   0.82778   0.00000  Uiso   1.00
C106   C     0.70699   0.50397   0.15737   0.00000  Uiso   1.00
C107   C     0.98333   0.14348   0.82183   0.00000  Uiso   1.00
C108   C     0.62116   0.44808   0.12452   0.00000  Uiso   1.00
C109   C     0.90293   0.09299   0.79473   0.00000  Uiso   1.00
C110   C     0.71960   0.48479   0.19364   0.00000  Uiso   1.00
C111   C     0.74930   0.46276   0.19534   0.00000  Uiso   1.00
C112   C     0.75634   0.44772   0.23127   0.00000  Uiso   1.00
C113   C     0.05709   0.22549   0.83162   0.00000  Uiso   1.00
C114   C     0.09030   0.26573   0.80922   0.00000  Uiso   1.00
C115   C     0.10085   0.31303   0.82101   0.00000  Uiso   1.00
H116   H     0.98297   0.18835   0.91052   0.00000  Uiso   1.00
H117   H     0.89297   0.13377   0.88399   0.00000  Uiso   1.00
H118   H     0.02109   0.14845   0.95480   0.00000  Uiso   1.00
H119   H     0.02875   0.28473   0.90202   0.00000  Uiso   1.00
H120   H     0.80284   0.07025   0.84002   0.00000  Uiso   1.00
H121   H     0.40634   0.76790   0.65600   0.00000  Uiso   1.00
H122   H     0.08917   0.38859   0.87803   0.00000  Uiso   1.00
H123   H     0.72404   0.49870   0.13166   0.00000  Uiso   1.00
H124   H     0.63812   0.44285   0.09897   0.00000  Uiso   1.00
H125   H     0.76624   0.45754   0.16979   0.00000  Uiso   1.00
H126   H     0.77390   0.59381   0.11701   0.00000  Uiso   1.00
H127   H     0.53320   0.38390   0.07730   0.00000  Uiso   1.00
H128   H     0.13670   0.08155   0.89328   0.00000  Uiso   1.00
H129   H     0.15286   0.36891   0.78198   0.00000  Uiso   1.00
O130   O     0.77682   0.02407   0.77252   0.00000  Uiso   1.00
O131   O     0.13128   0.06472   0.96841   0.00000  Uiso   1.00
O132   O     0.15248   0.44174   0.82239   0.00000  Uiso   1.00
N133   N     0.82962   0.07329   0.82190   0.00000  Uiso   1.00
N134   N     0.41554   0.76891   0.62816   0.00000  Uiso   1.00
N135   N     0.09732   0.37091   0.85744   0.00000  Uiso   1.00
N136   N     0.53056   0.39603   0.10354   0.00000  Uiso   1.00
N137   N     0.11648   0.09166   0.90981   0.00000  Uiso   1.00
N138   N     0.13160   0.36032   0.80576   0.00000  Uiso   1.00
C139   C     0.47111   0.34001   0.72287   0.00000  Uiso   1.00
C140   C     0.50072   0.38009   0.69284   0.00000  Uiso   1.00
C141   C     0.51892   0.43106   0.69711   0.00000  Uiso   1.00
C142   C     0.54511   0.46156   0.66630   0.00000  Uiso   1.00
C143   C     0.58993   0.52680   0.62483   0.00000  Uiso   1.00
C144   C     0.50006   0.31255   0.72962   0.00000  Uiso   1.00
C145   C     0.51770   0.30674   0.76481   0.00000  Uiso   1.00
C146   C     0.54333   0.28039   0.76496   0.00000  Uiso   1.00
C147   C     0.58710   0.24075   0.78059   0.00000  Uiso   1.00
C148   C     0.42225   0.30240   0.70346   0.00000  Uiso   1.00
C149   C     0.37447   0.28803   0.71665   0.00000  Uiso   1.00
C150   C     0.33458   0.25312   0.69478   0.00000  Uiso   1.00
C151   C     0.92421   0.53105   0.00312   0.00000  Uiso   1.00
C152   C     0.48525   0.30354   0.66058   0.00000  Uiso   1.00
C153   C     0.50840   0.36028   0.65901   0.00000  Uiso   1.00
C154   C     0.53456   0.39071   0.62819   0.00000  Uiso   1.00
C155   C     0.55280   0.44172   0.63240   0.00000  Uiso   1.00
C156   C     0.50774   0.29275   0.69579   0.00000  Uiso   1.00
C157   C     0.53334   0.26639   0.69589   0.00000  Uiso   1.00
C158   C     0.55102   0.26054   0.73106   0.00000  Uiso   1.00
C159   C     0.42993   0.28259   0.66962   0.00000  Uiso   1.00
C160   C     0.39011   0.24769   0.64773   0.00000  Uiso   1.00
C161   C     0.00894   0.56661   0.99422   0.00000  Uiso   1.00
H162   H     0.46514   0.35543   0.74921   0.00000  Uiso   1.00
H163   H     0.51298   0.44637   0.72330   0.00000  Uiso   1.00
H164   H     0.51175   0.32207   0.79098   0.00000  Uiso   1.00
H165   H     0.36854   0.30337   0.74283   0.00000  Uiso   1.00
H166   H     0.56942   0.53846   0.67965   0.00000  Uiso   1.00
H167   H     0.56682   0.27635   0.82237   0.00000  Uiso   1.00
H168   H     0.93150   0.57025   0.05418   0.00000  Uiso   1.00
H169   H     0.49122   0.28812   0.63424   0.00000  Uiso   1.00
H170   H     0.54049   0.37537   0.60201   0.00000  Uiso   1.00
H171   H     0.53927   0.25107   0.66970   0.00000  Uiso   1.00
H172   H     0.06273   0.56570   0.95488   0.00000  Uiso   1.00
H173   H     0.59175   0.48084   0.58121   0.00000  Uiso   1.00
H174   H     0.58916   0.21872   0.72393   0.00000  Uiso   1.00
H175   H     0.95384   0.51262   0.95573   0.00000  Uiso   1.00
O176   O     0.61254   0.56826   0.61131   0.00000  Uiso   1.00
O177   O     0.60913   0.22437   0.79856   0.00000  Uiso   1.00
O178   O     0.87959   0.50597   0.99868   0.00000  Uiso   1.00
N179   N     0.56790   0.51293   0.66090   0.00000  Uiso   1.00
N180   N     0.56549   0.26787   0.79434   0.00000  Uiso   1.00
N181   N     0.94982   0.56433   0.03275   0.00000  Uiso   1.00
N182   N     0.57992   0.48192   0.60793   0.00000  Uiso   1.00
N183   N     0.57750   0.23686   0.74137   0.00000  Uiso   1.00
N184   N     0.96184   0.53332   0.97978   0.00000  Uiso   1.00
C185   C     0.66668   0.51642   0.21815   0.00000  Uiso   1.00
C186   C     0.62810   0.48358   0.18817   0.00000  Uiso   1.00
C187   C     0.57657   0.46186   0.19177   0.00000  Uiso   1.00
C188   C     0.54766   0.43310   0.16114   0.00000  Uiso   1.00
C189   C     0.48442   0.38311   0.11963   0.00000  Uiso   1.00
C190   C     0.69771   0.49155   0.22665   0.00000  Uiso   1.00
C191   C     0.70470   0.47654   0.26259   0.00000  Uiso   1.00
C192   C     0.73440   0.45450   0.26435   0.00000  Uiso   1.00
C193   C     0.77926   0.41692   0.28257   0.00000  Uiso   1.00
C194   C     0.70187   0.56559   0.19797   0.00000  Uiso   1.00
C195   C     0.71237   0.61284   0.20980   0.00000  Uiso   1.00
C196   C     0.74558   0.65314   0.18742   0.00000  Uiso   1.00
C197   C     0.79689   0.73052   0.16111   0.00000  Uiso   1.00
C198   C     0.37366   0.83730   0.49070   0.00000  Uiso   1.00
C199   C     0.65000   0.47681   0.15516   0.00000  Uiso   1.00
C200   C     0.28783   0.78141   0.45785   0.00000  Uiso   1.00
C201   C     0.56959   0.42632   0.12806   0.00000  Uiso   1.00
C202   C     0.38627   0.81812   0.52697   0.00000  Uiso   1.00
C203   C     0.41597   0.79610   0.52868   0.00000  Uiso   1.00
C204   C     0.42300   0.78105   0.56461   0.00000  Uiso   1.00
C205   C     0.72376   0.55883   0.16495   0.00000  Uiso   1.00
C206   C     0.75696   0.59906   0.14255   0.00000  Uiso   1.00
C207   C     0.76752   0.64636   0.15435   0.00000  Uiso   1.00
H208   H     0.64964   0.52169   0.24385   0.00000  Uiso   1.00
H209   H     0.55964   0.46710   0.21732   0.00000  Uiso   1.00
H210   H     0.68776   0.48178   0.28813   0.00000  Uiso   1.00
H211   H     0.69542   0.61806   0.23535   0.00000  Uiso   1.00
H212   H     0.46951   0.40358   0.17335   0.00000  Uiso   1.00
H213   H     0.07300   0.10123   0.98933   0.00000  Uiso   1.00
H214   H     0.75583   0.72193   0.21137   0.00000  Uiso   1.00
H215   H     0.39071   0.83203   0.46500   0.00000  Uiso   1.00
H216   H     0.30478   0.77619   0.43231   0.00000  Uiso   1.00
H217   H     0.43290   0.79087   0.50312   0.00000  Uiso   1.00
H218   H     0.44057   0.92714   0.45034   0.00000  Uiso   1.00
H219   H     0.19987   0.71723   0.41063   0.00000  Uiso   1.00
H220   H     0.80337   0.41488   0.22661   0.00000  Uiso   1.00
H221   H     0.81953   0.70224   0.11531   0.00000  Uiso   1.00
O222   O     0.44349   0.35740   0.10585   0.00000  Uiso   1.00
O223   O     0.79794   0.39806   0.30175   0.00000  Uiso   1.00
O224   O     0.81914   0.77507   0.15572   0.00000  Uiso   1.00
N225   N     0.49629   0.40662   0.15523   0.00000  Uiso   1.00
N226   N     0.08220   0.10225   0.96149   0.00000  Uiso   1.00
N227   N     0.76399   0.70424   0.19078   0.00000  Uiso   1.00
N228   N     0.19723   0.72937   0.43688   0.00000  Uiso   1.00
N229   N     0.78315   0.42499   0.24314   0.00000  Uiso   1.00
N230   N     0.79827   0.69365   0.13909   0.00000  Uiso   1.00
C231   C     0.13778   0.67334   0.05620   0.00000  Uiso   1.00
C232   C     0.16739   0.71342   0.02618   0.00000  Uiso   1.00
C233   C     0.18559   0.76439   0.03044   0.00000  Uiso   1.00
C234   C     0.21177   0.79489   0.99963   0.00000  Uiso   1.00
C235   C     0.25660   0.86014   0.95817   0.00000  Uiso   1.00
C236   C     0.16673   0.64589   0.06295   0.00000  Uiso   1.00
C237   C     0.18437   0.64007   0.09814   0.00000  Uiso   1.00
C238   C     0.21000   0.61372   0.09829   0.00000  Uiso   1.00
C239   C     0.25377   0.57409   0.11392   0.00000  Uiso   1.00
C240   C     0.08892   0.63573   0.03679   0.00000  Uiso   1.00
C241   C     0.04114   0.62137   0.04998   0.00000  Uiso   1.00
C242   C     0.00125   0.58645   0.02811   0.00000  Uiso   1.00
C243   C     0.59088   0.86439   0.33646   0.00000  Uiso   1.00
C244   C     0.15191   0.63688   0.99391   0.00000  Uiso   1.00
C245   C     0.17506   0.69361   0.99234   0.00000  Uiso   1.00
C246   C     0.20122   0.72404   0.96152   0.00000  Uiso   1.00
C247   C     0.21946   0.77505   0.96574   0.00000  Uiso   1.00
C248   C     0.17440   0.62608   0.02912   0.00000  Uiso   1.00
C249   C     0.20001   0.59973   0.02922   0.00000  Uiso   1.00
C250   C     0.21769   0.59387   0.06440   0.00000  Uiso   1.00
C251   C     0.09659   0.61592   0.00296   0.00000  Uiso   1.00
C252   C     0.05677   0.58102   0.98106   0.00000  Uiso   1.00
C253   C     0.67561   0.89994   0.32755   0.00000  Uiso   1.00
H254   H     0.13181   0.68876   0.08255   0.00000  Uiso   1.00
H255   H     0.17964   0.77970   0.05663   0.00000  Uiso   1.00
H256   H     0.17842   0.65540   0.12432   0.00000  Uiso   1.00
H257   H     0.03521   0.63670   0.07617   0.00000  Uiso   1.00
H258   H     0.23608   0.87180   0.01298   0.00000  Uiso   1.00
H259   H     0.23349   0.60968   0.15571   0.00000  Uiso   1.00
H260   H     0.59817   0.90358   0.38751   0.00000  Uiso   1.00
H261   H     0.15789   0.62145   0.96757   0.00000  Uiso   1.00
H262   H     0.20716   0.70870   0.93534   0.00000  Uiso   1.00
H263   H     0.20594   0.58440   0.00303   0.00000  Uiso   1.00
H264   H     0.72939   0.89904   0.28821   0.00000  Uiso   1.00
H265   H     0.25842   0.81417   0.91454   0.00000  Uiso   1.00
H266   H     0.25582   0.55205   0.05727   0.00000  Uiso   1.00
H267   H     0.62050   0.84596   0.28907   0.00000  Uiso   1.00
O268   O     0.27921   0.90160   0.94464   0.00000  Uiso   1.00
O269   O     0.27579   0.55770   0.13189   0.00000  Uiso   1.00
O270   O     0.54626   0.83931   0.33202   0.00000  Uiso   1.00
N271   N     0.23457   0.84626   0.99424   0.00000  Uiso   1.00
N272   N     0.23215   0.60120   0.12767   0.00000  Uiso   1.00
N273   N     0.61648   0.89766   0.36609   0.00000  Uiso   1.00
N274   N     0.24659   0.81525   0.94126   0.00000  Uiso   1.00
N275   N     0.24417   0.57020   0.07470   0.00000  Uiso   1.00
N276   N     0.62850   0.86666   0.31312   0.00000  Uiso   1.00
C277   C     0.15025   0.48360   0.55148   0.00000  Uiso   1.00
C278   C     0.18309   0.47785   0.52151   0.00000  Uiso   1.00
C279   C     0.20481   0.44804   0.52510   0.00000  Uiso   1.00
C280   C     0.23357   0.44790   0.49447   0.00000  Uiso   1.00
C281   C     0.28355   0.43464   0.45296   0.00000  Uiso   1.00
C282   C     0.17512   0.53949   0.55998   0.00000  Uiso   1.00
C283   C     0.19013   0.56150   0.59592   0.00000  Uiso   1.00
C284   C     0.21217   0.61324   0.59768   0.00000  Uiso   1.00
C285   C     0.24975   0.69567   0.61591   0.00000  Uiso   1.00
C286   C     0.10108   0.46961   0.53130   0.00000  Uiso   1.00
C287   C     0.05383   0.43286   0.54313   0.00000  Uiso   1.00
C288   C     0.01353   0.42578   0.52075   0.00000  Uiso   1.00
C289   C     0.93615   0.39971   0.49445   0.00000  Uiso   1.00
C290   C     0.82937   0.86969   0.82403   0.00000  Uiso   1.00
C291   C     0.18985   0.50652   0.48849   0.00000  Uiso   1.00
C292   C     0.88525   0.83975   0.79119   0.00000  Uiso   1.00
C293   C     0.24034   0.47661   0.46140   0.00000  Uiso   1.00
C294   C     0.84855   0.90148   0.86030   0.00000  Uiso   1.00
C295   C     0.87057   0.95320   0.86201   0.00000  Uiso   1.00
C296   C     0.88561   0.97528   0.89794   0.00000  Uiso   1.00
C297   C     0.10784   0.49827   0.49829   0.00000  Uiso   1.00
C298   C     0.06761   0.49124   0.47589   0.00000  Uiso   1.00
C299   C     0.02031   0.45449   0.48768   0.00000  Uiso   1.00
H300   H     0.14498   0.46129   0.57718   0.00000  Uiso   1.00
H301   H     0.19957   0.42587   0.55065   0.00000  Uiso   1.00
H302   H     0.18488   0.53931   0.62147   0.00000  Uiso   1.00
H303   H     0.04861   0.41069   0.56868   0.00000  Uiso   1.00
H304   H     0.26308   0.39926   0.50669   0.00000  Uiso   1.00
H305   H     0.56544   0.30511   0.32267   0.00000  Uiso   1.00
H306   H     0.94474   0.36724   0.54470   0.00000  Uiso   1.00
H307   H     0.83463   0.89201   0.79833   0.00000  Uiso   1.00
H308   H     0.89048   0.86193   0.76564   0.00000  Uiso   1.00
H309   H     0.87580   0.97537   0.83645   0.00000  Uiso   1.00
H310   H     0.73952   0.84676   0.78367   0.00000  Uiso   1.00
H311   H     0.94943   0.81597   0.74397   0.00000  Uiso   1.00
H312   H     0.25179   0.72182   0.55995   0.00000  Uiso   1.00
H313   H     0.96442   0.45062   0.44865   0.00000  Uiso   1.00
O314   O     0.30926   0.41942   0.43919   0.00000  Uiso   1.00
O315   O     0.26861   0.73322   0.63508   0.00000  Uiso   1.00
O316   O     0.89160   0.37740   0.48906   0.00000  Uiso   1.00
N317   N     0.26004   0.42300   0.48856   0.00000  Uiso   1.00
N318   N     0.56442   0.31329   0.29483   0.00000  Uiso   1.00
N319   N     0.96242   0.39308   0.52411   0.00000  Uiso   1.00
N320   N     0.93730   0.80120   0.77021   0.00000  Uiso   1.00
N321   N     0.24168   0.69149   0.57648   0.00000  Uiso   1.00
N322   N     0.97301   0.43795   0.47243   0.00000  Uiso   1.00
C323   C     0.99332   0.79777   0.38954   0.00000  Uiso   1.00
C324   C     0.95325   0.78730   0.35951   0.00000  Uiso   1.00
C325   C     0.90228   0.75453   0.36377   0.00000  Uiso   1.00
C326   C     0.87178   0.75022   0.33297   0.00000  Uiso   1.00
C327   C     0.80653   0.72980   0.29150   0.00000  Uiso   1.00
C328   C     0.02078   0.85417   0.39629   0.00000  Uiso   1.00
C329   C     0.02659   0.87763   0.43147   0.00000  Uiso   1.00
C330   C     0.05295   0.92961   0.43162   0.00000  Uiso   1.00
C331   C     0.09258   0.01301   0.44726   0.00000  Uiso   1.00
C332   C     0.03093   0.78652   0.37013   0.00000  Uiso   1.00
C333   C     0.04530   0.75310   0.38332   0.00000  Uiso   1.00
C334   C     0.08021   0.74813   0.36145   0.00000  Uiso   1.00
C335   C     0.80228   0.05982   0.66979   0.00000  Uiso   1.00
C336   C     0.02979   0.84837   0.32724   0.00000  Uiso   1.00
C337   C     0.97306   0.81479   0.32568   0.00000  Uiso   1.00
C338   C     0.94262   0.81052   0.29486   0.00000  Uiso   1.00
C339   C     0.89162   0.77775   0.29907   0.00000  Uiso   1.00
C340   C     0.04059   0.88166   0.36245   0.00000  Uiso   1.00
C341   C     0.06694   0.93361   0.36255   0.00000  Uiso   1.00
C342   C     0.07279   0.95715   0.39773   0.00000  Uiso   1.00
C343   C     0.05074   0.81400   0.33629   0.00000  Uiso   1.00
C344   C     0.08564   0.80908   0.31440   0.00000  Uiso   1.00
C345   C     0.76672   0.10900   0.66088   0.00000  Uiso   1.00
H346   H     0.97790   0.77638   0.41588   0.00000  Uiso   1.00
H347   H     0.88696   0.73327   0.38996   0.00000  Uiso   1.00
H348   H     0.01127   0.85635   0.45765   0.00000  Uiso   1.00
H349   H     0.02996   0.73184   0.40950   0.00000  Uiso   1.00
H350   H     0.79487   0.69762   0.34632   0.00000  Uiso   1.00
H351   H     0.05698   0.95714   0.48904   0.00000  Uiso   1.00
H352   H     0.76308   0.02792   0.72084   0.00000  Uiso   1.00
H353   H     0.04521   0.86977   0.30090   0.00000  Uiso   1.00
H354   H     0.95796   0.83179   0.26868   0.00000  Uiso   1.00
H355   H     0.08227   0.95487   0.33637   0.00000  Uiso   1.00
H356   H     0.76763   0.16369   0.62155   0.00000  Uiso   1.00
H357   H     0.85250   0.77758   0.24788   0.00000  Uiso   1.00
H358   H     0.11461   0.03710   0.39060   0.00000  Uiso   1.00
H359   H     0.82071   0.10788   0.62240   0.00000  Uiso   1.00
O360   O     0.76507   0.71094   0.27798   0.00000  Uiso   1.00
O361   O     0.10896   0.05142   0.46523   0.00000  Uiso   1.00
O362   O     0.82736   0.04029   0.66535   0.00000  Uiso   1.00
N363   N     0.82041   0.72164   0.32757   0.00000  Uiso   1.00
N364   N     0.06546   0.96428   0.46101   0.00000  Uiso   1.00
N365   N     0.76900   0.05215   0.69942   0.00000  Uiso   1.00
N366   N     0.85142   0.76467   0.27460   0.00000  Uiso   1.00
N367   N     0.09647   0.00731   0.40804   0.00000  Uiso   1.00
N368   N     0.80001   0.09518   0.64645   0.00000  Uiso   1.00
C369   C     0.81691   0.81693   0.88481   0.00000  Uiso   1.00
C370   C     0.84975   0.81119   0.85484   0.00000  Uiso   1.00
C371   C     0.87147   0.78137   0.85843   0.00000  Uiso   1.00
C372   C     0.90023   0.78123   0.82780   0.00000  Uiso   1.00
C373   C     0.95022   0.76797   0.78629   0.00000  Uiso   1.00
C374   C     0.84178   0.87282   0.89331   0.00000  Uiso   1.00
C375   C     0.85679   0.89483   0.92926   0.00000  Uiso   1.00
C376   C     0.87884   0.94657   0.93101   0.00000  Uiso   1.00
C377   C     0.91641   0.02900   0.94924   0.00000  Uiso   1.00
C378   C     0.76774   0.80294   0.86464   0.00000  Uiso   1.00
C379   C     0.72049   0.76620   0.87647   0.00000  Uiso   1.00
C380   C     0.68020   0.75911   0.85408   0.00000  Uiso   1.00
C381   C     0.60281   0.73304   0.82778   0.00000  Uiso   1.00
C382   C     0.49603   0.20303   0.15737   0.00000  Uiso   1.00
C383   C     0.85652   0.83985   0.82183   0.00000  Uiso   1.00
C384   C     0.55192   0.17308   0.12452   0.00000  Uiso   1.00
C385   C     0.90701   0.80994   0.79473   0.00000  Uiso   1.00
C386   C     0.51521   0.23482   0.19364   0.00000  Uiso   1.00
C387   C     0.53724   0.28654   0.19534   0.00000  Uiso   1.00
C388   C     0.55228   0.30862   0.23127   0.00000  Uiso   1.00
C389   C     0.77451   0.83160   0.83162   0.00000  Uiso   1.00
C390   C     0.73427   0.82457   0.80922   0.00000  Uiso   1.00
C391   C     0.68697   0.78782   0.82101   0.00000  Uiso   1.00
H392   H     0.81165   0.79462   0.91052   0.00000  Uiso   1.00
H393   H     0.86623   0.75920   0.88399   0.00000  Uiso   1.00
H394   H     0.85155   0.87264   0.95480   0.00000  Uiso   1.00
H395   H     0.71527   0.74403   0.90202   0.00000  Uiso   1.00
H396   H     0.92975   0.73259   0.84002   0.00000  Uiso   1.00
H397   H     0.23210   0.63844   0.65600   0.00000  Uiso   1.00
H398   H     0.61141   0.70057   0.87803   0.00000  Uiso   1.00
H399   H     0.50130   0.22534   0.13166   0.00000  Uiso   1.00
H400   H     0.55715   0.19526   0.09897   0.00000  Uiso   1.00
H401   H     0.54246   0.30870   0.16979   0.00000  Uiso   1.00
H402   H     0.40619   0.18009   0.11701   0.00000  Uiso   1.00
H403   H     0.61610   0.14930   0.07730   0.00000  Uiso   1.00
H404   H     0.91845   0.05516   0.89328   0.00000  Uiso   1.00
H405   H     0.63109   0.78395   0.78198   0.00000  Uiso   1.00
O406   O     0.97593   0.75275   0.77252   0.00000  Uiso   1.00
O407   O     0.93528   0.06655   0.96841   0.00000  Uiso   1.00
O408   O     0.55826   0.71074   0.82239   0.00000  Uiso   1.00
N409   N     0.92671   0.75633   0.82190   0.00000  Uiso   1.00
N410   N     0.23109   0.64663   0.62816   0.00000  Uiso   1.00
N411   N     0.62909   0.72641   0.85744   0.00000  Uiso   1.00
N412   N     0.60397   0.13453   0.10354   0.00000  Uiso   1.00
N413   N     0.90834   0.02482   0.90981   0.00000  Uiso   1.00
N414   N     0.63968   0.77128   0.80576   0.00000  Uiso   1.00
C415   C     0.65999   0.13110   0.72287   0.00000  Uiso   1.00
C416   C     0.61991   0.12063   0.69284   0.00000  Uiso   1.00
C417   C     0.56894   0.08787   0.69711   0.00000  Uiso   1.00
C418   C     0.53844   0.08355   0.66630   0.00000  Uiso   1.00
C419   C     0.47320   0.06313   0.62483   0.00000  Uiso   1.00
C420   C     0.68745   0.18751   0.72962   0.00000  Uiso   1.00
C421   C     0.69326   0.21097   0.76481   0.00000  Uiso   1.00
C422   C     0.71961   0.26295   0.76496   0.00000  Uiso   1.00
C423   C     0.75925   0.34635   0.78059   0.00000  Uiso   1.00
C424   C     0.69760   0.11985   0.70346   0.00000  Uiso   1.00
C425   C     0.71197   0.08644   0.71665   0.00000  Uiso   1.00
C426   C     0.74688   0.08146   0.69478   0.00000  Uiso   1.00
C427   C     0.46895   0.39315   0.00312   0.00000  Uiso   1.00
C428   C     0.69646   0.18170   0.66058   0.00000  Uiso   1.00
C429   C     0.63972   0.14812   0.65901   0.00000  Uiso   1.00
C430   C     0.60929   0.14385   0.62819   0.00000  Uiso   1.00
C431   C     0.55828   0.11108   0.63240   0.00000  Uiso   1.00
C432   C     0.70725   0.21499   0.69579   0.00000  Uiso   1.00
C433   C     0.73361   0.26695   0.69589   0.00000  Uiso   1.00
C434   C     0.73946   0.29048   0.73106   0.00000  Uiso   1.00
C435   C     0.71741   0.14734   0.66962   0.00000  Uiso   1.00
C436   C     0.75231   0.14242   0.64773   0.00000  Uiso   1.00
C437   C     0.43339   0.44233   0.99422   0.00000  Uiso   1.00
H438   H     0.64457   0.10971   0.74921   0.00000  Uiso   1.00
H439   H     0.55363   0.06661   0.72330   0.00000  Uiso   1.00
H440   H     0.67793   0.18969   0.79098   0.00000  Uiso   1.00
H441   H     0.69663   0.06518   0.74283   0.00000  Uiso   1.00
H442   H     0.46154   0.03095   0.67965   0.00000  Uiso   1.00
H443   H     0.72365   0.29047   0.82237   0.00000  Uiso   1.00
H444   H     0.42975   0.36125   0.05418   0.00000  Uiso   1.00
H445   H     0.71188   0.20310   0.63424   0.00000  Uiso   1.00
H446   H     0.62463   0.16512   0.60201   0.00000  Uiso   1.00
H447   H     0.74893   0.28820   0.66970   0.00000  Uiso   1.00
H448   H     0.43430   0.49703   0.95488   0.00000  Uiso   1.00
H449   H     0.51916   0.11091   0.58121   0.00000  Uiso   1.00
H450   H     0.78128   0.37044   0.72393   0.00000  Uiso   1.00
H451   H     0.48738   0.44121   0.95573   0.00000  Uiso   1.00
O452   O     0.43174   0.04428   0.61131   0.00000  Uiso   1.00
O453   O     0.77563   0.38476   0.79856   0.00000  Uiso   1.00
O454   O     0.49403   0.37362   0.99868   0.00000  Uiso   1.00
N455   N     0.48707   0.05498   0.66090   0.00000  Uiso   1.00
N456   N     0.73213   0.29761   0.79434   0.00000  Uiso   1.00
N457   N     0.43567   0.38549   0.03275   0.00000  Uiso   1.00
N458   N     0.51808   0.09800   0.60793   0.00000  Uiso   1.00
N459   N     0.76314   0.34064   0.74137   0.00000  Uiso   1.00
N460   N     0.46668   0.42851   0.97978   0.00000  Uiso   1.00
C461   C     0.48358   0.15026   0.21815   0.00000  Uiso   1.00
C462   C     0.51642   0.14452   0.18817   0.00000  Uiso   1.00
C463   C     0.53814   0.11471   0.19177   0.00000  Uiso   1.00
C464   C     0.56690   0.11456   0.16114   0.00000  Uiso   1.00
C465   C     0.61689   0.10131   0.11963   0.00000  Uiso   1.00
C466   C     0.50845   0.20616   0.22665   0.00000  Uiso   1.00
C467   C     0.52346   0.22816   0.26259   0.00000  Uiso   1.00
C468   C     0.54550   0.27990   0.26435   0.00000  Uiso   1.00
C469   C     0.58308   0.36234   0.28257   0.00000  Uiso   1.00
C470   C     0.43441   0.13627   0.19797   0.00000  Uiso   1.00
C471   C     0.38716   0.09953   0.20980   0.00000  Uiso   1.00
C472   C     0.34686   0.09245   0.18742   0.00000  Uiso   1.00
C473   C     0.26948   0.06637   0.16111   0.00000  Uiso   1.00
C474   C     0.16270   0.53636   0.49070   0.00000  Uiso   1.00
C475   C     0.52319   0.17318   0.15516   0.00000  Uiso   1.00
C476   C     0.21859   0.50642   0.45785   0.00000  Uiso   1.00
C477   C     0.57368   0.14327   0.12806   0.00000  Uiso   1.00
C478   C     0.18188   0.56815   0.52697   0.00000  Uiso   1.00
C479   C     0.20390   0.61987   0.52868   0.00000  Uiso   1.00
C480   C     0.21895   0.64195   0.56461   0.00000  Uiso   1.00
C481   C     0.44117   0.16493   0.16495   0.00000  Uiso   1.00
C482   C     0.40094   0.15791   0.14255   0.00000  Uiso   1.00
C483   C     0.35364   0.12116   0.15435   0.00000  Uiso   1.00
H484   H     0.47831   0.12795   0.24385   0.00000  Uiso   1.00
H485   H     0.53290   0.09254   0.21732   0.00000  Uiso   1.00
H486   H     0.51822   0.20597   0.28813   0.00000  Uiso   1.00
H487   H     0.38194   0.07736   0.23535   0.00000  Uiso   1.00
H488   H     0.59642   0.06592   0.17335   0.00000  Uiso   1.00
H489   H     0.89877   0.97178   0.98933   0.00000  Uiso   1.00
H490   H     0.27807   0.03391   0.21137   0.00000  Uiso   1.00
H491   H     0.16797   0.55867   0.46500   0.00000  Uiso   1.00
H492   H     0.22381   0.52860   0.43231   0.00000  Uiso   1.00
H493   H     0.20913   0.64204   0.50312   0.00000  Uiso   1.00
H494   H     0.07286   0.51342   0.45034   0.00000  Uiso   1.00
H495   H     0.28277   0.48264   0.41063   0.00000  Uiso   1.00
H496   H     0.58512   0.38849   0.22661   0.00000  Uiso   1.00
H497   H     0.29776   0.11728   0.11531   0.00000  Uiso   1.00
O498   O     0.64260   0.08608   0.10585   0.00000  Uiso   1.00
O499   O     0.60194   0.39989   0.30175   0.00000  Uiso   1.00
O500   O     0.22493   0.04407   0.15572   0.00000  Uiso   1.00
N501   N     0.59338   0.08967   0.15523   0.00000  Uiso   1.00
N502   N     0.89775   0.97996   0.96149   0.00000  Uiso   1.00
N503   N     0.29576   0.05975   0.19078   0.00000  Uiso   1.00
N504   N     0.27063   0.46786   0.43688   0.00000  Uiso   1.00
N505   N     0.57501   0.35816   0.24314   0.00000  Uiso   1.00
N506   N     0.30635   0.10461   0.13909   0.00000  Uiso   1.00
C507   C     0.32666   0.46444   0.05620   0.00000  Uiso   1.00
C508   C     0.28658   0.45397   0.02618   0.00000  Uiso   1.00
C509   C     0.23561   0.42120   0.03044   0.00000  Uiso   1.00
C510   C     0.20511   0.41688   0.99963   0.00000  Uiso   1.00
C511   C     0.13986   0.39646   0.95817   0.00000  Uiso   1.00
C512   C     0.35411   0.52084   0.06295   0.00000  Uiso   1.00
C513   C     0.35993   0.54430   0.09814   0.00000  Uiso   1.00
C514   C     0.38628   0.59628   0.09829   0.00000  Uiso   1.00
C515   C     0.42591   0.67968   0.11392   0.00000  Uiso   1.00
C516   C     0.36427   0.45319   0.03679   0.00000  Uiso   1.00
C517   C     0.37863   0.41977   0.04998   0.00000  Uiso   1.00
C518   C     0.41355   0.41480   0.02811   0.00000  Uiso   1.00
C519   C     0.13561   0.72649   0.33646   0.00000  Uiso   1.00
C520   C     0.36312   0.51504   0.99391   0.00000  Uiso   1.00
C521   C     0.30639   0.48145   0.99234   0.00000  Uiso   1.00
C522   C     0.27596   0.47718   0.96152   0.00000  Uiso   1.00
C523   C     0.22495   0.44441   0.96574   0.00000  Uiso   1.00
C524   C     0.37392   0.54832   0.02912   0.00000  Uiso   1.00
C525   C     0.40027   0.60028   0.02922   0.00000  Uiso   1.00
C526   C     0.40613   0.62381   0.06440   0.00000  Uiso   1.00
C527   C     0.38408   0.48067   0.00296   0.00000  Uiso   1.00
C528   C     0.41898   0.47575   0.98106   0.00000  Uiso   1.00
C529   C     0.10006   0.77567   0.32755   0.00000  Uiso   1.00
H530   H     0.31124   0.44304   0.08255   0.00000  Uiso   1.00
H531   H     0.22030   0.39994   0.05663   0.00000  Uiso   1.00
H532   H     0.34460   0.52302   0.12432   0.00000  Uiso   1.00
H533   H     0.36330   0.39851   0.07617   0.00000  Uiso   1.00
H534   H     0.12820   0.36429   0.01298   0.00000  Uiso   1.00
H535   H     0.39032   0.62381   0.15571   0.00000  Uiso   1.00
H536   H     0.09642   0.69458   0.38751   0.00000  Uiso   1.00
H537   H     0.37855   0.53644   0.96757   0.00000  Uiso   1.00
H538   H     0.29130   0.49846   0.93534   0.00000  Uiso   1.00
H539   H     0.41560   0.62154   0.00303   0.00000  Uiso   1.00
H540   H     0.10096   0.83036   0.28821   0.00000  Uiso   1.00
H541   H     0.18583   0.44425   0.91454   0.00000  Uiso   1.00
H542   H     0.44795   0.70377   0.05727   0.00000  Uiso   1.00
H543   H     0.15404   0.77454   0.28907   0.00000  Uiso   1.00
O544   O     0.09840   0.37761   0.94464   0.00000  Uiso   1.00
O545   O     0.44230   0.71809   0.13189   0.00000  Uiso   1.00
O546   O     0.16069   0.70695   0.33202   0.00000  Uiso   1.00
N547   N     0.15374   0.38831   0.99424   0.00000  Uiso   1.00
N548   N     0.39880   0.63095   0.12767   0.00000  Uiso   1.00
N549   N     0.10234   0.71882   0.36609   0.00000  Uiso   1.00
N550   N     0.18475   0.43134   0.94126   0.00000  Uiso   1.00
N551   N     0.42980   0.67397   0.07470   0.00000  Uiso   1.00
N552   N     0.13334   0.76185   0.31312   0.00000  Uiso   1.00
C553   C     0.51640   0.66665   0.55148   0.00000  Uiso   1.00
C554   C     0.52215   0.70523   0.52151   0.00000  Uiso   1.00
C555   C     0.55196   0.75677   0.52510   0.00000  Uiso   1.00
C556   C     0.55210   0.78567   0.49447   0.00000  Uiso   1.00
C557   C     0.56536   0.84891   0.45296   0.00000  Uiso   1.00
C558   C     0.46051   0.63563   0.55998   0.00000  Uiso   1.00
C559   C     0.43850   0.62863   0.59592   0.00000  Uiso   1.00
C560   C     0.38676   0.59893   0.59768   0.00000  Uiso   1.00
C561   C     0.30433   0.55408   0.61591   0.00000  Uiso   1.00
C562   C     0.53039   0.63147   0.53130   0.00000  Uiso   1.00
C563   C     0.56714   0.62096   0.54313   0.00000  Uiso   1.00
C564   C     0.57422   0.58775   0.52075   0.00000  Uiso   1.00
C565   C     0.60029   0.53644   0.49445   0.00000  Uiso   1.00
C566   C     0.13031   0.95967   0.82403   0.00000  Uiso   1.00
C567   C     0.49348   0.68334   0.48849   0.00000  Uiso   1.00
C568   C     0.16025   0.04550   0.79119   0.00000  Uiso   1.00
C569   C     0.52339   0.76374   0.46140   0.00000  Uiso   1.00
C570   C     0.09852   0.94707   0.86030   0.00000  Uiso   1.00
C571   C     0.04680   0.91737   0.86201   0.00000  Uiso   1.00
C572   C     0.02472   0.91033   0.89794   0.00000  Uiso   1.00
C573   C     0.50173   0.60957   0.49829   0.00000  Uiso   1.00
C574   C     0.50876   0.57637   0.47589   0.00000  Uiso   1.00
C575   C     0.54551   0.56582   0.48768   0.00000  Uiso   1.00
H576   H     0.53871   0.68369   0.57718   0.00000  Uiso   1.00
H577   H     0.57413   0.77370   0.55065   0.00000  Uiso   1.00
H578   H     0.46069   0.64557   0.62147   0.00000  Uiso   1.00
H579   H     0.58931   0.63791   0.56868   0.00000  Uiso   1.00
H580   H     0.60074   0.86383   0.50669   0.00000  Uiso   1.00
H581   H     0.69489   0.26033   0.32267   0.00000  Uiso   1.00
H582   H     0.63276   0.57750   0.54470   0.00000  Uiso   1.00
H583   H     0.10799   0.94263   0.79833   0.00000  Uiso   1.00
H584   H     0.13807   0.02855   0.76564   0.00000  Uiso   1.00
H585   H     0.02463   0.90043   0.83645   0.00000  Uiso   1.00
H586   H     0.15324   0.89277   0.78367   0.00000  Uiso   1.00
H587   H     0.18403   0.13346   0.74397   0.00000  Uiso   1.00
H588   H     0.27818   0.52996   0.55995   0.00000  Uiso   1.00
H589   H     0.54938   0.51380   0.44865   0.00000  Uiso   1.00
O590   O     0.58058   0.88984   0.43919   0.00000  Uiso   1.00
O591   O     0.26678   0.53539   0.63508   0.00000  Uiso   1.00
O592   O     0.62260   0.51419   0.48906   0.00000  Uiso   1.00
N593   N     0.57700   0.83704   0.48856   0.00000  Uiso   1.00
N594   N     0.68671   0.25113   0.29483   0.00000  Uiso   1.00
N595   N     0.60692   0.56934   0.52411   0.00000  Uiso   1.00
N596   N     0.19880   0.13610   0.77021   0.00000  Uiso   1.00
N597   N     0.30851   0.55019   0.57648   0.00000  Uiso   1.00
N598   N     0.56205   0.53507   0.47243   0.00000  Uiso   1.00
C599   C     0.20223   0.19555   0.38954   0.00000  Uiso   1.00
C600   C     0.21270   0.16595   0.35951   0.00000  Uiso   1.00
C601   C     0.24547   0.14774   0.36377   0.00000  Uiso   1.00
C602   C     0.24978   0.12156   0.33297   0.00000  Uiso   1.00
C603   C     0.27020   0.07674   0.29150   0.00000  Uiso   1.00
C604   C     0.14583   0.16661   0.39629   0.00000  Uiso   1.00
C605   C     0.12237   0.14896   0.43147   0.00000  Uiso   1.00
C606   C     0.07039   0.12334   0.43162   0.00000  Uiso   1.00
C607   C     0.98699   0.07957   0.44726   0.00000  Uiso   1.00
C608   C     0.21348   0.24441   0.37013   0.00000  Uiso   1.00
C609   C     0.24690   0.29220   0.38332   0.00000  Uiso   1.00
C610   C     0.25187   0.33208   0.36145   0.00000  Uiso   1.00
C611   C     0.94018   0.74246   0.66979   0.00000  Uiso   1.00
C612   C     0.15163   0.18142   0.32724   0.00000  Uiso   1.00
C613   C     0.18521   0.15827   0.32568   0.00000  Uiso   1.00
C614   C     0.18948   0.13211   0.29486   0.00000  Uiso   1.00
C615   C     0.22225   0.11387   0.29907   0.00000  Uiso   1.00
C616   C     0.11834   0.15893   0.36245   0.00000  Uiso   1.00
C617   C     0.06639   0.13333   0.36255   0.00000  Uiso   1.00
C618   C     0.04285   0.11565   0.39773   0.00000  Uiso   1.00
C619   C     0.18600   0.23674   0.33629   0.00000  Uiso   1.00
C620   C     0.19092   0.27656   0.31440   0.00000  Uiso   1.00
C621   C     0.89100   0.65773   0.66088   0.00000  Uiso   1.00
H622   H     0.22362   0.20153   0.41588   0.00000  Uiso   1.00
H623   H     0.26673   0.15369   0.38996   0.00000  Uiso   1.00
H624   H     0.14365   0.15491   0.45765   0.00000  Uiso   1.00
H625   H     0.26816   0.29812   0.40950   0.00000  Uiso   1.00
H626   H     0.30238   0.09725   0.34632   0.00000  Uiso   1.00
H627   H     0.04286   0.09984   0.48904   0.00000  Uiso   1.00
H628   H     0.97208   0.73517   0.72084   0.00000  Uiso   1.00
H629   H     0.13023   0.17544   0.30090   0.00000  Uiso   1.00
H630   H     0.16821   0.12617   0.26868   0.00000  Uiso   1.00
H631   H     0.04513   0.12740   0.33637   0.00000  Uiso   1.00
H632   H     0.83631   0.60394   0.62155   0.00000  Uiso   1.00
H633   H     0.22242   0.07491   0.24788   0.00000  Uiso   1.00
H634   H     0.96290   0.07751   0.39060   0.00000  Uiso   1.00
H635   H     0.89212   0.71283   0.62240   0.00000  Uiso   1.00
O636   O     0.28906   0.05413   0.27798   0.00000  Uiso   1.00
O637   O     0.94858   0.05754   0.46523   0.00000  Uiso   1.00
O638   O     0.95971   0.78707   0.66535   0.00000  Uiso   1.00
N639   N     0.27836   0.09876   0.32757   0.00000  Uiso   1.00
N640   N     0.03572   0.10118   0.46101   0.00000  Uiso   1.00
N641   N     0.94785   0.71685   0.69942   0.00000  Uiso   1.00
N642   N     0.23533   0.08675   0.27460   0.00000  Uiso   1.00
N643   N     0.99269   0.08916   0.40804   0.00000  Uiso   1.00
N644   N     0.90482   0.70483   0.64645   0.00000  Uiso   1.00
C645   C     0.18307   0.99998   0.88481   0.00000  Uiso   1.00
C646   C     0.18881   0.03857   0.85484   0.00000  Uiso   1.00
C647   C     0.21863   0.09010   0.85843   0.00000  Uiso   1.00
C648   C     0.21877   0.11900   0.82780   0.00000  Uiso   1.00
C649   C     0.23203   0.18225   0.78629   0.00000  Uiso   1.00
C650   C     0.12718   0.96896   0.89331   0.00000  Uiso   1.00
C651   C     0.10517   0.96196   0.92926   0.00000  Uiso   1.00
C652   C     0.05343   0.93227   0.93101   0.00000  Uiso   1.00
C653   C     0.97100   0.88741   0.94924   0.00000  Uiso   1.00
C654   C     0.19706   0.96480   0.86464   0.00000  Uiso   1.00
C655   C     0.23380   0.95430   0.87647   0.00000  Uiso   1.00
C656   C     0.24089   0.92109   0.85408   0.00000  Uiso   1.00
C657   C     0.26696   0.86977   0.82778   0.00000  Uiso   1.00
C658   C     0.79697   0.29301   0.15737   0.00000  Uiso   1.00
C659   C     0.16015   0.01667   0.82183   0.00000  Uiso   1.00
C660   C     0.82692   0.37884   0.12452   0.00000  Uiso   1.00
C661   C     0.19006   0.09707   0.79473   0.00000  Uiso   1.00
C662   C     0.76518   0.28040   0.19364   0.00000  Uiso   1.00
C663   C     0.71346   0.25070   0.19534   0.00000  Uiso   1.00
C664   C     0.69138   0.24366   0.23127   0.00000  Uiso   1.00
C665   C     0.16840   0.94291   0.83162   0.00000  Uiso   1.00
C666   C     0.17543   0.90970   0.80922   0.00000  Uiso   1.00
C667   C     0.21218   0.89915   0.82101   0.00000  Uiso   1.00
H668   H     0.20538   0.01703   0.91052   0.00000  Uiso   1.00
H669   H     0.24080   0.10703   0.88399   0.00000  Uiso   1.00
H670   H     0.12736   0.97891   0.95480   0.00000  Uiso   1.00
H671   H     0.25597   0.97125   0.90202   0.00000  Uiso   1.00
H672   H     0.26741   0.19716   0.84002   0.00000  Uiso   1.00
H673   H     0.36156   0.59366   0.65600   0.00000  Uiso   1.00
H674   H     0.29943   0.91083   0.87803   0.00000  Uiso   1.00
H675   H     0.77466   0.27596   0.13166   0.00000  Uiso   1.00
H676   H     0.80474   0.36188   0.09897   0.00000  Uiso   1.00
H677   H     0.69130   0.23376   0.16979   0.00000  Uiso   1.00
H678   H     0.81991   0.22610   0.11701   0.00000  Uiso   1.00
H679   H     0.85070   0.46680   0.07730   0.00000  Uiso   1.00
H680   H     0.94484   0.86330   0.89328   0.00000  Uiso   1.00
H681   H     0.21605   0.84714   0.78198   0.00000  Uiso   1.00
O682   O     0.24725   0.22318   0.77252   0.00000  Uiso   1.00
O683   O     0.93345   0.86872   0.96841   0.00000  Uiso   1.00
O684   O     0.28926   0.84752   0.82239   0.00000  Uiso   1.00
N685   N     0.24367   0.17038   0.82190   0.00000  Uiso   1.00
N686   N     0.35337   0.58446   0.62816   0.00000  Uiso   1.00
N687   N     0.27359   0.90268   0.85744   0.00000  Uiso   1.00
N688   N     0.86547   0.46944   0.10354   0.00000  Uiso   1.00
N689   N     0.97518   0.88352   0.90981   0.00000  Uiso   1.00
N690   N     0.22872   0.86840   0.80576   0.00000  Uiso   1.00
C691   C     0.86890   0.52889   0.72287   0.00000  Uiso   1.00
C692   C     0.87937   0.49928   0.69284   0.00000  Uiso   1.00
C693   C     0.91213   0.48108   0.69711   0.00000  Uiso   1.00
C694   C     0.91645   0.45489   0.66630   0.00000  Uiso   1.00
C695   C     0.93687   0.41007   0.62483   0.00000  Uiso   1.00
C696   C     0.81249   0.49994   0.72962   0.00000  Uiso   1.00
C697   C     0.78903   0.48230   0.76481   0.00000  Uiso   1.00
C698   C     0.73705   0.45667   0.76496   0.00000  Uiso   1.00
C699   C     0.65365   0.41290   0.78059   0.00000  Uiso   1.00
C700   C     0.88015   0.57775   0.70346   0.00000  Uiso   1.00
C701   C     0.91356   0.62553   0.71665   0.00000  Uiso   1.00
C702   C     0.91854   0.66542   0.69478   0.00000  Uiso   1.00
C703   C     0.60685   0.07579   0.00312   0.00000  Uiso   1.00
C704   C     0.81830   0.51475   0.66058   0.00000  Uiso   1.00
C705   C     0.85188   0.49160   0.65901   0.00000  Uiso   1.00
C706   C     0.85615   0.46544   0.62819   0.00000  Uiso   1.00
C707   C     0.88892   0.44720   0.63240   0.00000  Uiso   1.00
C708   C     0.78501   0.49226   0.69579   0.00000  Uiso   1.00
C709   C     0.73305   0.46666   0.69589   0.00000  Uiso   1.00
C710   C     0.70952   0.44898   0.73106   0.00000  Uiso   1.00
C711   C     0.85266   0.57007   0.66962   0.00000  Uiso   1.00
C712   C     0.85758   0.60989   0.64773   0.00000  Uiso   1.00
C713   C     0.55767   0.99106   0.99422   0.00000  Uiso   1.00
H714   H     0.89029   0.53486   0.74921   0.00000  Uiso   1.00
H715   H     0.93339   0.48702   0.72330   0.00000  Uiso   1.00
H716   H     0.81031   0.48825   0.79098   0.00000  Uiso   1.00
H717   H     0.93482   0.63146   0.74283   0.00000  Uiso   1.00
H718   H     0.96905   0.43058   0.67965   0.00000  Uiso   1.00
H719   H     0.70953   0.43318   0.82237   0.00000  Uiso   1.00
H720   H     0.63875   0.06850   0.05418   0.00000  Uiso   1.00
H721   H     0.79690   0.50878   0.63424   0.00000  Uiso   1.00
H722   H     0.83488   0.45951   0.60201   0.00000  Uiso   1.00
H723   H     0.71180   0.46073   0.66970   0.00000  Uiso   1.00
H724   H     0.50297   0.93727   0.95488   0.00000  Uiso   1.00
H725   H     0.88909   0.40825   0.58121   0.00000  Uiso   1.00
H726   H     0.62956   0.41084   0.72393   0.00000  Uiso   1.00
H727   H     0.55879   0.04616   0.95573   0.00000  Uiso   1.00
O728   O     0.95572   0.38746   0.61131   0.00000  Uiso   1.00
O729   O     0.61524   0.39087   0.79856   0.00000  Uiso   1.00
O730   O     0.62638   0.12041   0.99868   0.00000  Uiso   1.00
N731   N     0.94502   0.43210   0.66090   0.00000  Uiso   1.00
N732   N     0.70239   0.43451   0.79434   0.00000  Uiso   1.00
N733   N     0.61451   0.05018   0.03275   0.00000  Uiso   1.00
N734   N     0.90200   0.42008   0.60793   0.00000  Uiso   1.00
N735   N     0.65936   0.42250   0.74137   0.00000  Uiso   1.00
N736   N     0.57149   0.03816   0.97978   0.00000  Uiso   1.00
C737   C     0.84974   0.33332   0.21815   0.00000  Uiso   1.00
C738   C     0.85548   0.37190   0.18817   0.00000  Uiso   1.00
C739   C     0.88529   0.42343   0.19177   0.00000  Uiso   1.00
C740   C     0.88544   0.45234   0.16114   0.00000  Uiso   1.00
C741   C     0.89869   0.51558   0.11963   0.00000  Uiso   1.00
C742   C     0.79384   0.30229   0.22665   0.00000  Uiso   1.00
C743   C     0.77184   0.29530   0.26259   0.00000  Uiso   1.00
C744   C     0.72010   0.26560   0.26435   0.00000  Uiso   1.00
C745   C     0.63766   0.22074   0.28257   0.00000  Uiso   1.00
C746   C     0.86373   0.29813   0.19797   0.00000  Uiso   1.00
C747   C     0.90047   0.28763   0.20980   0.00000  Uiso   1.00
C748   C     0.90755   0.25442   0.18742   0.00000  Uiso   1.00
C749   C     0.93363   0.20311   0.16111   0.00000  Uiso   1.00
C750   C     0.46364   0.62634   0.49070   0.00000  Uiso   1.00
C751   C     0.82682   0.35000   0.15516   0.00000  Uiso   1.00
C752   C     0.49358   0.71217   0.45785   0.00000  Uiso   1.00
C753   C     0.85673   0.43041   0.12806   0.00000  Uiso   1.00
C754   C     0.43185   0.61373   0.52697   0.00000  Uiso   1.00
C755   C     0.38013   0.58403   0.52868   0.00000  Uiso   1.00
C756   C     0.35805   0.57700   0.56461   0.00000  Uiso   1.00
C757   C     0.83507   0.27624   0.16495   0.00000  Uiso   1.00
C758   C     0.84209   0.24304   0.14255   0.00000  Uiso   1.00
C759   C     0.87884   0.23248   0.15435   0.00000  Uiso   1.00
H760   H     0.87205   0.35036   0.24385   0.00000  Uiso   1.00
H761   H     0.90746   0.44036   0.21732   0.00000  Uiso   1.00
H762   H     0.79403   0.31224   0.28813   0.00000  Uiso   1.00
H763   H     0.92264   0.30458   0.23535   0.00000  Uiso   1.00
H764   H     0.93408   0.53049   0.17335   0.00000  Uiso   1.00
H765   H     0.02822   0.92700   0.98933   0.00000  Uiso   1.00
H766   H     0.96609   0.24417   0.21137   0.00000  Uiso   1.00
H767   H     0.44133   0.60929   0.46500   0.00000  Uiso   1.00
H768   H     0.47140   0.69522   0.43231   0.00000  Uiso   1.00
H769   H     0.35796   0.56710   0.50312   0.00000  Uiso   1.00
H770   H     0.48658   0.55943   0.45034   0.00000  Uiso   1.00
H771   H     0.51736   0.80013   0.41063   0.00000  Uiso   1.00
H772   H     0.61151   0.19663   0.22661   0.00000  Uiso   1.00
H773   H     0.88272   0.18047   0.11531   0.00000  Uiso   1.00
O774   O     0.91392   0.55651   0.10585   0.00000  Uiso   1.00
O775   O     0.60011   0.20206   0.30175   0.00000  Uiso   1.00
O776   O     0.95593   0.18086   0.15572   0.00000  Uiso   1.00
N777   N     0.91033   0.50371   0.15523   0.00000  Uiso   1.00
N778   N     0.02004   0.91780   0.96149   0.00000  Uiso   1.00
N779   N     0.94025   0.23601   0.19078   0.00000  Uiso   1.00
N780   N     0.53214   0.80277   0.43688   0.00000  Uiso   1.00
N781   N     0.64184   0.21685   0.24314   0.00000  Uiso   1.00
N782   N     0.89539   0.20173   0.13909   0.00000  Uiso   1.00
C783   C     0.53556   0.86222   0.05620   0.00000  Uiso   1.00
C784   C     0.54603   0.83261   0.02618   0.00000  Uiso   1.00
C785   C     0.57880   0.81441   0.03044   0.00000  Uiso   1.00
C786   C     0.58312   0.78823   0.99963   0.00000  Uiso   1.00
C787   C     0.60354   0.74340   0.95817   0.00000  Uiso   1.00
C788   C     0.47916   0.83327   0.06295   0.00000  Uiso   1.00
C789   C     0.45570   0.81563   0.09814   0.00000  Uiso   1.00
C790   C     0.40372   0.79000   0.09829   0.00000  Uiso   1.00
C791   C     0.32032   0.74623   0.11392   0.00000  Uiso   1.00
C792   C     0.54681   0.91108   0.03679   0.00000  Uiso   1.00
C793   C     0.58023   0.95886   0.04998   0.00000  Uiso   1.00
C794   C     0.58520   0.99875   0.02811   0.00000  Uiso   1.00
C795   C     0.27351   0.40912   0.33646   0.00000  Uiso   1.00
C796   C     0.48496   0.84809   0.99391   0.00000  Uiso   1.00
C797   C     0.51855   0.82494   0.99234   0.00000  Uiso   1.00
C798   C     0.52282   0.79878   0.96152   0.00000  Uiso   1.00
C799   C     0.55559   0.78054   0.96574   0.00000  Uiso   1.00
C800   C     0.45168   0.82560   0.02912   0.00000  Uiso   1.00
C801   C     0.39972   0.79999   0.02922   0.00000  Uiso   1.00
C802   C     0.37619   0.78231   0.06440   0.00000  Uiso   1.00
C803   C     0.51933   0.90341   0.00296   0.00000  Uiso   1.00
C804   C     0.52425   0.94323   0.98106   0.00000  Uiso   1.00
C805   C     0.22433   0.32439   0.32755   0.00000  Uiso   1.00
H806   H     0.55696   0.86819   0.08255   0.00000  Uiso   1.00
H807   H     0.60006   0.82036   0.05663   0.00000  Uiso   1.00
H808   H     0.47698   0.82158   0.12432   0.00000  Uiso   1.00
H809   H     0.60149   0.96479   0.07617   0.00000  Uiso   1.00
H810   H     0.63571   0.76392   0.01298   0.00000  Uiso   1.00
H811   H     0.37619   0.76651   0.15571   0.00000  Uiso   1.00
H812   H     0.30542   0.40183   0.38751   0.00000  Uiso   1.00
H813   H     0.46356   0.84211   0.96757   0.00000  Uiso   1.00
H814   H     0.50154   0.79284   0.93534   0.00000  Uiso   1.00
H815   H     0.37846   0.79406   0.00303   0.00000  Uiso   1.00
H816   H     0.16964   0.27061   0.28821   0.00000  Uiso   1.00
H817   H     0.55575   0.74158   0.91454   0.00000  Uiso   1.00
H818   H     0.29623   0.74418   0.05727   0.00000  Uiso   1.00
H819   H     0.22546   0.37950   0.28907   0.00000  Uiso   1.00
O820   O     0.62239   0.72079   0.94464   0.00000  Uiso   1.00
O821   O     0.28191   0.72421   0.13189   0.00000  Uiso   1.00
O822   O     0.29305   0.45374   0.33202   0.00000  Uiso   1.00
N823   N     0.61169   0.76543   0.99424   0.00000  Uiso   1.00
N824   N     0.36905   0.76785   0.12767   0.00000  Uiso   1.00
N825   N     0.28118   0.38352   0.36609   0.00000  Uiso   1.00
N826   N     0.56866   0.75341   0.94126   0.00000  Uiso   1.00
N827   N     0.32603   0.75583   0.07470   0.00000  Uiso   1.00
N828   N     0.23815   0.37150   0.31312   0.00000  Uiso   1.00
C829   C     0.66665   0.15025   0.44852   0.00000  Uiso   1.00
C830   C     0.70523   0.18309   0.47849   0.00000  Uiso   1.00
C831   C     0.75677   0.20481   0.47490   0.00000  Uiso   1.00
C832   C     0.78567   0.23357   0.50553   0.00000  Uiso   1.00
C833   C     0.84891   0.28355   0.54704   0.00000  Uiso   1.00
C834   C     0.63563   0.17512   0.44002   0.00000  Uiso   1.00
C835   C     0.62863   0.19013   0.40408   0.00000  Uiso   1.00
C836   C     0.59893   0.21217   0.40232   0.00000  Uiso   1.00
C837   C     0.55408   0.24975   0.38409   0.00000  Uiso   1.00
C838   C     0.63147   0.10108   0.46870   0.00000  Uiso   1.00
C839   C     0.62096   0.05383   0.45687   0.00000  Uiso   1.00
C840   C     0.58775   0.01353   0.47925   0.00000  Uiso   1.00
C841   C     0.53644   0.93615   0.50555   0.00000  Uiso   1.00
C842   C     0.95967   0.82937   0.17597   0.00000  Uiso   1.00
C843   C     0.68334   0.18985   0.51151   0.00000  Uiso   1.00
C844   C     0.04550   0.88525   0.20881   0.00000  Uiso   1.00
C845   C     0.76374   0.24034   0.53860   0.00000  Uiso   1.00
C846   C     0.94707   0.84855   0.13970   0.00000  Uiso   1.00
C847   C     0.91737   0.87057   0.13799   0.00000  Uiso   1.00
C848   C     0.91033   0.88561   0.10206   0.00000  Uiso   1.00
C849   C     0.60957   0.10784   0.50171   0.00000  Uiso   1.00
C850   C     0.57637   0.06761   0.52411   0.00000  Uiso   1.00
C851   C     0.56582   0.02031   0.51232   0.00000  Uiso   1.00
H852   H     0.68369   0.14498   0.42282   0.00000  Uiso   1.00
H853   H     0.77370   0.19957   0.44935   0.00000  Uiso   1.00
H854   H     0.64557   0.18488   0.37853   0.00000  Uiso   1.00
H855   H     0.63791   0.04861   0.43132   0.00000  Uiso   1.00
H856   H     0.86383   0.26308   0.49331   0.00000  Uiso   1.00
H857   H     0.26033   0.56544   0.67733   0.00000  Uiso   1.00
H858   H     0.57750   0.94474   0.45530   0.00000  Uiso   1.00
H859   H     0.94263   0.83463   0.20167   0.00000  Uiso   1.00
H860   H     0.02855   0.89048   0.23436   0.00000  Uiso   1.00
H861   H     0.90043   0.87580   0.16355   0.00000  Uiso   1.00
H862   H     0.89277   0.73952   0.21633   0.00000  Uiso   1.00
H863   H     0.13346   0.94943   0.25603   0.00000  Uiso   1.00
H864   H     0.52996   0.25179   0.44005   0.00000  Uiso   1.00
H865   H     0.51380   0.96442   0.55135   0.00000  Uiso   1.00
O866   O     0.88984   0.30926   0.56081   0.00000  Uiso   1.00
O867   O     0.53539   0.26861   0.36492   0.00000  Uiso   1.00
O868   O     0.51419   0.89160   0.51094   0.00000  Uiso   1.00
N869   N     0.83704   0.26004   0.51144   0.00000  Uiso   1.00
N870   N     0.25113   0.56442   0.70517   0.00000  Uiso   1.00
N871   N     0.56934   0.96242   0.47589   0.00000  Uiso   1.00
N872   N     0.13610   0.93730   0.22979   0.00000  Uiso   1.00
N873   N     0.55019   0.24168   0.42352   0.00000  Uiso   1.00
N874   N     0.53507   0.97301   0.52757   0.00000  Uiso   1.00
C875   C     0.19555   0.99332   0.61046   0.00000  Uiso   1.00
C876   C     0.16595   0.95325   0.64049   0.00000  Uiso   1.00
C877   C     0.14774   0.90228   0.63623   0.00000  Uiso   1.00
C878   C     0.12156   0.87178   0.66703   0.00000  Uiso   1.00
C879   C     0.07674   0.80653   0.70850   0.00000  Uiso   1.00
C880   C     0.16661   0.02078   0.60371   0.00000  Uiso   1.00
C881   C     0.14896   0.02659   0.56853   0.00000  Uiso   1.00
C882   C     0.12334   0.05295   0.56838   0.00000  Uiso   1.00
C883   C     0.07957   0.09258   0.55274   0.00000  Uiso   1.00
C884   C     0.24441   0.03093   0.62987   0.00000  Uiso   1.00
C885   C     0.29220   0.04530   0.61668   0.00000  Uiso   1.00
C886   C     0.33208   0.08021   0.63855   0.00000  Uiso   1.00
C887   C     0.74246   0.80228   0.33021   0.00000  Uiso   1.00
C888   C     0.18142   0.02979   0.67276   0.00000  Uiso   1.00
C889   C     0.15827   0.97306   0.67432   0.00000  Uiso   1.00
C890   C     0.13211   0.94262   0.70514   0.00000  Uiso   1.00
C891   C     0.11387   0.89162   0.70093   0.00000  Uiso   1.00
C892   C     0.15893   0.04059   0.63755   0.00000  Uiso   1.00
C893   C     0.13333   0.06694   0.63745   0.00000  Uiso   1.00
C894   C     0.11565   0.07279   0.60227   0.00000  Uiso   1.00
C895   C     0.23674   0.05074   0.66371   0.00000  Uiso   1.00
C896   C     0.27656   0.08564   0.68560   0.00000  Uiso   1.00
C897   C     0.65773   0.76672   0.33912   0.00000  Uiso   1.00
H898   H     0.20153   0.97790   0.58412   0.00000  Uiso   1.00
H899   H     0.15369   0.88696   0.61004   0.00000  Uiso   1.00
H900   H     0.15491   0.01127   0.54235   0.00000  Uiso   1.00
H901   H     0.29812   0.02996   0.59050   0.00000  Uiso   1.00
H902   H     0.09725   0.79487   0.65368   0.00000  Uiso   1.00
H903   H     0.09984   0.05698   0.51096   0.00000  Uiso   1.00
H904   H     0.73517   0.76308   0.27916   0.00000  Uiso   1.00
H905   H     0.17544   0.04521   0.69910   0.00000  Uiso   1.00
H906   H     0.12617   0.95796   0.73132   0.00000  Uiso   1.00
H907   H     0.12740   0.08227   0.66363   0.00000  Uiso   1.00
H908   H     0.60394   0.76763   0.37845   0.00000  Uiso   1.00
H909   H     0.07491   0.85250   0.75212   0.00000  Uiso   1.00
H910   H     0.07751   0.11461   0.60940   0.00000  Uiso   1.00
H911   H     0.71283   0.82071   0.37760   0.00000  Uiso   1.00
O912   O     0.05413   0.76507   0.72202   0.00000  Uiso   1.00
O913   O     0.05754   0.10896   0.53477   0.00000  Uiso   1.00
O914   O     0.78707   0.82736   0.33465   0.00000  Uiso   1.00
N915   N     0.09876   0.82041   0.67243   0.00000  Uiso   1.00
N916   N     0.10118   0.06546   0.53899   0.00000  Uiso   1.00
N917   N     0.71685   0.76900   0.30058   0.00000  Uiso   1.00
N918   N     0.08675   0.85142   0.72540   0.00000  Uiso   1.00
N919   N     0.08916   0.09647   0.59196   0.00000  Uiso   1.00
N920   N     0.70483   0.80001   0.35355   0.00000  Uiso   1.00
C921   C     0.33332   0.48358   0.78185   0.00000  Uiso   1.00
C922   C     0.37190   0.51642   0.81183   0.00000  Uiso   1.00
C923   C     0.42343   0.53814   0.80823   0.00000  Uiso   1.00
C924   C     0.45234   0.56690   0.83886   0.00000  Uiso   1.00
C925   C     0.51558   0.61689   0.88037   0.00000  Uiso   1.00
C926   C     0.30229   0.50845   0.77335   0.00000  Uiso   1.00
C927   C     0.29530   0.52346   0.73741   0.00000  Uiso   1.00
C928   C     0.26560   0.54550   0.73565   0.00000  Uiso   1.00
C929   C     0.22074   0.58308   0.71743   0.00000  Uiso   1.00
C930   C     0.29813   0.43441   0.80203   0.00000  Uiso   1.00
C931   C     0.28763   0.38716   0.79020   0.00000  Uiso   1.00
C932   C     0.25442   0.34686   0.81258   0.00000  Uiso   1.00
C933   C     0.20311   0.26948   0.83889   0.00000  Uiso   1.00
C934   C     0.62634   0.16270   0.50930   0.00000  Uiso   1.00
C935   C     0.35000   0.52319   0.84484   0.00000  Uiso   1.00
C936   C     0.71217   0.21859   0.54215   0.00000  Uiso   1.00
C937   C     0.43041   0.57368   0.87194   0.00000  Uiso   1.00
C938   C     0.61373   0.18188   0.47303   0.00000  Uiso   1.00
C939   C     0.58403   0.20390   0.47132   0.00000  Uiso   1.00
C940   C     0.57700   0.21895   0.43539   0.00000  Uiso   1.00
C941   C     0.27624   0.44117   0.83505   0.00000  Uiso   1.00
C942   C     0.24304   0.40094   0.85745   0.00000  Uiso   1.00
C943   C     0.23248   0.35364   0.84565   0.00000  Uiso   1.00
H944   H     0.35036   0.47831   0.75615   0.00000  Uiso   1.00
H945   H     0.44036   0.53290   0.78268   0.00000  Uiso   1.00
H946   H     0.31224   0.51822   0.71187   0.00000  Uiso   1.00
H947   H     0.30458   0.38194   0.76465   0.00000  Uiso   1.00
H948   H     0.53049   0.59642   0.82665   0.00000  Uiso   1.00
H949   H     0.92700   0.89877   0.01067   0.00000  Uiso   1.00
H950   H     0.24417   0.27807   0.78863   0.00000  Uiso   1.00
H951   H     0.60929   0.16797   0.53500   0.00000  Uiso   1.00
H952   H     0.69522   0.22381   0.56769   0.00000  Uiso   1.00
H953   H     0.56710   0.20913   0.49688   0.00000  Uiso   1.00
H954   H     0.55943   0.07286   0.54966   0.00000  Uiso   1.00
H955   H     0.80013   0.28277   0.58937   0.00000  Uiso   1.00
H956   H     0.19663   0.58512   0.77339   0.00000  Uiso   1.00
H957   H     0.18047   0.29776   0.88469   0.00000  Uiso   1.00
O958   O     0.55651   0.64260   0.89415   0.00000  Uiso   1.00
O959   O     0.20206   0.60194   0.69825   0.00000  Uiso   1.00
O960   O     0.18086   0.22493   0.84428   0.00000  Uiso   1.00
N961   N     0.50371   0.59338   0.84477   0.00000  Uiso   1.00
N962   N     0.91780   0.89775   0.03851   0.00000  Uiso   1.00
N963   N     0.23601   0.29576   0.80922   0.00000  Uiso   1.00
N964   N     0.80277   0.27063   0.56312   0.00000  Uiso   1.00
N965   N     0.21685   0.57501   0.75686   0.00000  Uiso   1.00
N966   N     0.20173   0.30635   0.86091   0.00000  Uiso   1.00
C967   C     0.86222   0.32666   0.94380   0.00000  Uiso   1.00
C968   C     0.83261   0.28658   0.97382   0.00000  Uiso   1.00
C969   C     0.81441   0.23561   0.96956   0.00000  Uiso   1.00
C970   C     0.78823   0.20511   0.00037   0.00000  Uiso   1.00
C971   C     0.74340   0.13986   0.04183   0.00000  Uiso   1.00
C972   C     0.83327   0.35411   0.93705   0.00000  Uiso   1.00
C973   C     0.81563   0.35993   0.90186   0.00000  Uiso   1.00
C974   C     0.79000   0.38628   0.90171   0.00000  Uiso   1.00
C975   C     0.74623   0.42591   0.88608   0.00000  Uiso   1.00
C976   C     0.91108   0.36427   0.96321   0.00000  Uiso   1.00
C977   C     0.95886   0.37863   0.95002   0.00000  Uiso   1.00
C978   C     0.99875   0.41355   0.97189   0.00000  Uiso   1.00
C979   C     0.40912   0.13561   0.66354   0.00000  Uiso   1.00
C980   C     0.84809   0.36312   0.00609   0.00000  Uiso   1.00
C981   C     0.82494   0.30639   0.00766   0.00000  Uiso   1.00
C982   C     0.79878   0.27596   0.03848   0.00000  Uiso   1.00
C983   C     0.78054   0.22495   0.03426   0.00000  Uiso   1.00
C984   C     0.82560   0.37392   0.97088   0.00000  Uiso   1.00
C985   C     0.79999   0.40027   0.97078   0.00000  Uiso   1.00
C986   C     0.78231   0.40613   0.93560   0.00000  Uiso   1.00
C987   C     0.90341   0.38408   0.99704   0.00000  Uiso   1.00
C988   C     0.94323   0.41898   0.01894   0.00000  Uiso   1.00
C989   C     0.32439   0.10006   0.67245   0.00000  Uiso   1.00
H990   H     0.86819   0.31124   0.91745   0.00000  Uiso   1.00
H991   H     0.82036   0.22030   0.94337   0.00000  Uiso   1.00
H992   H     0.82158   0.34460   0.87568   0.00000  Uiso   1.00
H993   H     0.96479   0.36330   0.92383   0.00000  Uiso   1.00
H994   H     0.76392   0.12820   0.98702   0.00000  Uiso   1.00
H995   H     0.76651   0.39032   0.84429   0.00000  Uiso   1.00
H996   H     0.40183   0.09642   0.61249   0.00000  Uiso   1.00
H997   H     0.84211   0.37855   0.03243   0.00000  Uiso   1.00
H998   H     0.79284   0.29130   0.06466   0.00000  Uiso   1.00
H999   H     0.79406   0.41560   0.99697   0.00000  Uiso   1.00
H1000  H     0.27061   0.10096   0.71179   0.00000  Uiso   1.00
H1001  H     0.74158   0.18583   0.08546   0.00000  Uiso   1.00
H1002  H     0.74418   0.44795   0.94273   0.00000  Uiso   1.00
H1003  H     0.37950   0.15404   0.71093   0.00000  Uiso   1.00
O1004  O     0.72079   0.09840   0.05536   0.00000  Uiso   1.00
O1005  O     0.72421   0.44230   0.86811   0.00000  Uiso   1.00
O1006  O     0.45374   0.16069   0.66798   0.00000  Uiso   1.00
N1007  N     0.76543   0.15374   0.00576   0.00000  Uiso   1.00
N1008  N     0.76785   0.39880   0.87233   0.00000  Uiso   1.00
N1009  N     0.38352   0.10234   0.63391   0.00000  Uiso   1.00
N1010  N     0.75341   0.18475   0.05874   0.00000  Uiso   1.00
N1011  N     0.75583   0.42980   0.92530   0.00000  Uiso   1.00
N1012  N     0.37150   0.13334   0.68688   0.00000  Uiso   1.00
C1013  C     0.99998   0.81691   0.11519   0.00000  Uiso   1.00
C1014  C     0.03857   0.84975   0.14516   0.00000  Uiso   1.00
C1015  C     0.09010   0.87147   0.14157   0.00000  Uiso   1.00
C1016  C     0.11900   0.90023   0.17220   0.00000  Uiso   1.00
C1017  C     0.18225   0.95022   0.21371   0.00000  Uiso   1.00
C1018  C     0.96896   0.84178   0.10669   0.00000  Uiso   1.00
C1019  C     0.96196   0.85679   0.07074   0.00000  Uiso   1.00
C1020  C     0.93227   0.87884   0.06899   0.00000  Uiso   1.00
C1021  C     0.88741   0.91641   0.05076   0.00000  Uiso   1.00
C1022  C     0.96480   0.76774   0.13536   0.00000  Uiso   1.00
C1023  C     0.95430   0.72049   0.12353   0.00000  Uiso   1.00
C1024  C     0.92109   0.68020   0.14592   0.00000  Uiso   1.00
C1025  C     0.86977   0.60281   0.17222   0.00000  Uiso   1.00
C1026  C     0.29301   0.49603   0.84263   0.00000  Uiso   1.00
C1027  C     0.01667   0.85652   0.17817   0.00000  Uiso   1.00
C1028  C     0.37884   0.55192   0.87548   0.00000  Uiso   1.00
C1029  C     0.09707   0.90701   0.20527   0.00000  Uiso   1.00
C1030  C     0.28040   0.51521   0.80636   0.00000  Uiso   1.00
C1031  C     0.25070   0.53724   0.80466   0.00000  Uiso   1.00
C1032  C     0.24366   0.55228   0.76873   0.00000  Uiso   1.00
C1033  C     0.94291   0.77451   0.16838   0.00000  Uiso   1.00
C1034  C     0.90970   0.73427   0.19078   0.00000  Uiso   1.00
C1035  C     0.89915   0.68697   0.17899   0.00000  Uiso   1.00
H1036  H     0.01703   0.81165   0.08948   0.00000  Uiso   1.00
H1037  H     0.10703   0.86623   0.11601   0.00000  Uiso   1.00
H1038  H     0.97891   0.85155   0.04520   0.00000  Uiso   1.00
H1039  H     0.97125   0.71527   0.09798   0.00000  Uiso   1.00
H1040  H     0.19716   0.92975   0.15998   0.00000  Uiso   1.00
H1041  H     0.59366   0.23210   0.34400   0.00000  Uiso   1.00
H1042  H     0.91083   0.61141   0.12197   0.00000  Uiso   1.00
H1043  H     0.27596   0.50130   0.86834   0.00000  Uiso   1.00
H1044  H     0.36188   0.55715   0.90103   0.00000  Uiso   1.00
H1045  H     0.23376   0.54246   0.83021   0.00000  Uiso   1.00
H1046  H     0.22610   0.40619   0.88299   0.00000  Uiso   1.00
H1047  H     0.46680   0.61610   0.92270   0.00000  Uiso   1.00
H1048  H     0.86330   0.91845   0.10672   0.00000  Uiso   1.00
H1049  H     0.84714   0.63109   0.21802   0.00000  Uiso   1.00
O1050  O     0.22318   0.97593   0.22748   0.00000  Uiso   1.00
O1051  O     0.86872   0.93528   0.03159   0.00000  Uiso   1.00
O1052  O     0.84752   0.55826   0.17761   0.00000  Uiso   1.00
N1053  N     0.17038   0.92671   0.17810   0.00000  Uiso   1.00
N1054  N     0.58446   0.23109   0.37184   0.00000  Uiso   1.00
N1055  N     0.90268   0.62909   0.14256   0.00000  Uiso   1.00
N1056  N     0.46944   0.60397   0.89646   0.00000  Uiso   1.00
N1057  N     0.88352   0.90834   0.09019   0.00000  Uiso   1.00
N1058  N     0.86840   0.63968   0.19424   0.00000  Uiso   1.00
C1059  C     0.52889   0.65999   0.27713   0.00000  Uiso   1.00
C1060  C     0.49928   0.61991   0.30716   0.00000  Uiso   1.00
C1061  C     0.48108   0.56894   0.30289   0.00000  Uiso   1.00
C1062  C     0.45489   0.53844   0.33370   0.00000  Uiso   1.00
C1063  C     0.41007   0.47320   0.37517   0.00000  Uiso   1.00
C1064  C     0.49994   0.68745   0.27038   0.00000  Uiso   1.00
C1065  C     0.48230   0.69326   0.23519   0.00000  Uiso   1.00
C1066  C     0.45667   0.71961   0.23504   0.00000  Uiso   1.00
C1067  C     0.41290   0.75925   0.21941   0.00000  Uiso   1.00
C1068  C     0.57775   0.69760   0.29654   0.00000  Uiso   1.00
C1069  C     0.62553   0.71197   0.28335   0.00000  Uiso   1.00
C1070  C     0.66542   0.74688   0.30522   0.00000  Uiso   1.00
C1071  C     0.07579   0.46895   0.99688   0.00000  Uiso   1.00
C1072  C     0.51475   0.69646   0.33942   0.00000  Uiso   1.00
C1073  C     0.49160   0.63972   0.34099   0.00000  Uiso   1.00
C1074  C     0.46544   0.60929   0.37181   0.00000  Uiso   1.00
C1075  C     0.44720   0.55828   0.36760   0.00000  Uiso   1.00
C1076  C     0.49226   0.70725   0.30421   0.00000  Uiso   1.00
C1077  C     0.46666   0.73361   0.30411   0.00000  Uiso   1.00
C1078  C     0.44898   0.73946   0.26894   0.00000  Uiso   1.00
C1079  C     0.57007   0.71741   0.33038   0.00000  Uiso   1.00
C1080  C     0.60989   0.75231   0.35227   0.00000  Uiso   1.00
C1081  C     0.99106   0.43339   0.00578   0.00000  Uiso   1.00
H1082  H     0.53486   0.64457   0.25079   0.00000  Uiso   1.00
H1083  H     0.48702   0.55363   0.27670   0.00000  Uiso   1.00
H1084  H     0.48825   0.67793   0.20902   0.00000  Uiso   1.00
H1085  H     0.63146   0.69663   0.25717   0.00000  Uiso   1.00
H1086  H     0.43058   0.46154   0.32035   0.00000  Uiso   1.00
H1087  H     0.43318   0.72365   0.17763   0.00000  Uiso   1.00
H1088  H     0.06850   0.42975   0.94582   0.00000  Uiso   1.00
H1089  H     0.50878   0.71188   0.36576   0.00000  Uiso   1.00
H1090  H     0.45951   0.62463   0.39799   0.00000  Uiso   1.00
H1091  H     0.46073   0.74893   0.33030   0.00000  Uiso   1.00
H1092  H     0.93727   0.43430   0.04512   0.00000  Uiso   1.00
H1093  H     0.40825   0.51916   0.41879   0.00000  Uiso   1.00
H1094  H     0.41084   0.78128   0.27607   0.00000  Uiso   1.00
H1095  H     0.04616   0.48738   0.04427   0.00000  Uiso   1.00
O1096  O     0.38746   0.43174   0.38869   0.00000  Uiso   1.00
O1097  O     0.39087   0.77563   0.20144   0.00000  Uiso   1.00
O1098  O     0.12041   0.49403   0.00132   0.00000  Uiso   1.00
N1099  N     0.43210   0.48707   0.33910   0.00000  Uiso   1.00
N1100  N     0.43451   0.73213   0.20566   0.00000  Uiso   1.00
N1101  N     0.05018   0.43567   0.96725   0.00000  Uiso   1.00
N1102  N     0.42008   0.51808   0.39207   0.00000  Uiso   1.00
N1103  N     0.42250   0.76314   0.25863   0.00000  Uiso   1.00
N1104  N     0.03816   0.46668   0.02022   0.00000  Uiso   1.00
C1105  C     0.84975   0.51640   0.44852   0.00000  Uiso   1.00
C1106  C     0.81691   0.52215   0.47849   0.00000  Uiso   1.00
C1107  C     0.79519   0.55196   0.47490   0.00000  Uiso   1.00
C1108  C     0.76643   0.55210   0.50553   0.00000  Uiso   1.00
C1109  C     0.71645   0.56536   0.54704   0.00000  Uiso   1.00
C1110  C     0.82488   0.46051   0.44002   0.00000  Uiso   1.00
C1111  C     0.80987   0.43850   0.40408   0.00000  Uiso   1.00
C1112  C     0.78783   0.38676   0.40232   0.00000  Uiso   1.00
C1113  C     0.75025   0.30433   0.38409   0.00000  Uiso   1.00
C1114  C     0.89892   0.53039   0.46870   0.00000  Uiso   1.00
C1115  C     0.94617   0.56714   0.45687   0.00000  Uiso   1.00
C1116  C     0.98647   0.57422   0.47925   0.00000  Uiso   1.00
C1117  C     0.06385   0.60029   0.50555   0.00000  Uiso   1.00
C1118  C     0.17063   0.13031   0.17597   0.00000  Uiso   1.00
C1119  C     0.81015   0.49348   0.51151   0.00000  Uiso   1.00
C1120  C     0.11475   0.16025   0.20881   0.00000  Uiso   1.00
C1121  C     0.75966   0.52339   0.53860   0.00000  Uiso   1.00
C1122  C     0.15145   0.09852   0.13970   0.00000  Uiso   1.00
C1123  C     0.12943   0.04680   0.13799   0.00000  Uiso   1.00
C1124  C     0.11439   0.02472   0.10206   0.00000  Uiso   1.00
C1125  C     0.89216   0.50173   0.50171   0.00000  Uiso   1.00
C1126  C     0.93239   0.50876   0.52411   0.00000  Uiso   1.00
C1127  C     0.97969   0.54551   0.51232   0.00000  Uiso   1.00
H1128  H     0.85502   0.53871   0.42282   0.00000  Uiso   1.00
H1129  H     0.80043   0.57413   0.44935   0.00000  Uiso   1.00
H1130  H     0.81512   0.46069   0.37853   0.00000  Uiso   1.00
H1131  H     0.95139   0.58931   0.43132   0.00000  Uiso   1.00
H1132  H     0.73692   0.60074   0.49331   0.00000  Uiso   1.00
H1133  H     0.43456   0.69489   0.67733   0.00000  Uiso   1.00
H1134  H     0.05526   0.63276   0.45530   0.00000  Uiso   1.00
H1135  H     0.16537   0.10799   0.20167   0.00000  Uiso   1.00
H1136  H     0.10952   0.13807   0.23436   0.00000  Uiso   1.00
H1137  H     0.12420   0.02463   0.16355   0.00000  Uiso   1.00
H1138  H     0.26048   0.15324   0.21633   0.00000  Uiso   1.00
H1139  H     0.05057   0.18403   0.25603   0.00000  Uiso   1.00
H1140  H     0.74821   0.27818   0.44005   0.00000  Uiso   1.00
H1141  H     0.03558   0.54938   0.55135   0.00000  Uiso   1.00
O1142  O     0.69074   0.58058   0.56081   0.00000  Uiso   1.00
O1143  O     0.73139   0.26678   0.36492   0.00000  Uiso   1.00
O1144  O     0.10840   0.62260   0.51094   0.00000  Uiso   1.00
N1145  N     0.73996   0.57700   0.51144   0.00000  Uiso   1.00
N1146  N     0.43558   0.68671   0.70517   0.00000  Uiso   1.00
N1147  N     0.03758   0.60692   0.47589   0.00000  Uiso   1.00
N1148  N     0.06270   0.19880   0.22979   0.00000  Uiso   1.00
N1149  N     0.75832   0.30851   0.42352   0.00000  Uiso   1.00
N1150  N     0.02699   0.56205   0.52757   0.00000  Uiso   1.00
C1151  C     0.00668   0.20223   0.61046   0.00000  Uiso   1.00
C1152  C     0.04675   0.21270   0.64049   0.00000  Uiso   1.00
C1153  C     0.09772   0.24547   0.63623   0.00000  Uiso   1.00
C1154  C     0.12822   0.24978   0.66703   0.00000  Uiso   1.00
C1155  C     0.19347   0.27020   0.70850   0.00000  Uiso   1.00
C1156  C     0.97922   0.14583   0.60371   0.00000  Uiso   1.00
C1157  C     0.97341   0.12237   0.56853   0.00000  Uiso   1.00
C1158  C     0.94705   0.07039   0.56838   0.00000  Uiso   1.00
C1159  C     0.90742   0.98699   0.55274   0.00000  Uiso   1.00
C1160  C     0.96907   0.21348   0.62987   0.00000  Uiso   1.00
C1161  C     0.95470   0.24690   0.61668   0.00000  Uiso   1.00
C1162  C     0.91979   0.25187   0.63855   0.00000  Uiso   1.00
C1163  C     0.19772   0.94018   0.33021   0.00000  Uiso   1.00
C1164  C     0.97021   0.15163   0.67276   0.00000  Uiso   1.00
C1165  C     0.02694   0.18521   0.67432   0.00000  Uiso   1.00
C1166  C     0.05738   0.18948   0.70514   0.00000  Uiso   1.00
C1167  C     0.10838   0.22225   0.70093   0.00000  Uiso   1.00
C1168  C     0.95941   0.11834   0.63755   0.00000  Uiso   1.00
C1169  C     0.93306   0.06639   0.63745   0.00000  Uiso   1.00
C1170  C     0.92721   0.04285   0.60227   0.00000  Uiso   1.00
C1171  C     0.94926   0.18600   0.66371   0.00000  Uiso   1.00
C1172  C     0.91436   0.19092   0.68560   0.00000  Uiso   1.00
C1173  C     0.23328   0.89100   0.33912   0.00000  Uiso   1.00
H1174  H     0.02210   0.22362   0.58412   0.00000  Uiso   1.00
H1175  H     0.11304   0.26673   0.61004   0.00000  Uiso   1.00
H1176  H     0.98873   0.14365   0.54235   0.00000  Uiso   1.00
H1177  H     0.97004   0.26816   0.59050   0.00000  Uiso   1.00
H1178  H     0.20513   0.30238   0.65368   0.00000  Uiso   1.00
H1179  H     0.94302   0.04286   0.51096   0.00000  Uiso   1.00
H1180  H     0.23692   0.97208   0.27916   0.00000  Uiso   1.00
H1181  H     0.95479   0.13023   0.69910   0.00000  Uiso   1.00
H1182  H     0.04204   0.16821   0.73132   0.00000  Uiso   1.00
H1183  H     0.91773   0.04513   0.66363   0.00000  Uiso   1.00
H1184  H     0.23237   0.83631   0.37845   0.00000  Uiso   1.00
H1185  H     0.14750   0.22242   0.75212   0.00000  Uiso   1.00
H1186  H     0.88539   0.96290   0.60940   0.00000  Uiso   1.00
H1187  H     0.17929   0.89212   0.37760   0.00000  Uiso   1.00
O1188  O     0.23493   0.28906   0.72202   0.00000  Uiso   1.00
O1189  O     0.89104   0.94858   0.53477   0.00000  Uiso   1.00
O1190  O     0.17264   0.95971   0.33465   0.00000  Uiso   1.00
N1191  N     0.17959   0.27836   0.67243   0.00000  Uiso   1.00
N1192  N     0.93454   0.03572   0.53899   0.00000  Uiso   1.00
N1193  N     0.23100   0.94785   0.30058   0.00000  Uiso   1.00
N1194  N     0.14858   0.23533   0.72540   0.00000  Uiso   1.00
N1195  N     0.90353   0.99269   0.59196   0.00000  Uiso   1.00
N1196  N     0.19999   0.90482   0.35355   0.00000  Uiso   1.00
C1197  C     0.51642   0.84974   0.78185   0.00000  Uiso   1.00
C1198  C     0.48358   0.85548   0.81183   0.00000  Uiso   1.00
C1199  C     0.46186   0.88529   0.80823   0.00000  Uiso   1.00
C1200  C     0.43310   0.88544   0.83886   0.00000  Uiso   1.00
C1201  C     0.38311   0.89869   0.88037   0.00000  Uiso   1.00
C1202  C     0.49155   0.79384   0.77335   0.00000  Uiso   1.00
C1203  C     0.47654   0.77184   0.73741   0.00000  Uiso   1.00
C1204  C     0.45450   0.72010   0.73565   0.00000  Uiso   1.00
C1205  C     0.41692   0.63766   0.71743   0.00000  Uiso   1.00
C1206  C     0.56559   0.86373   0.80203   0.00000  Uiso   1.00
C1207  C     0.61284   0.90047   0.79020   0.00000  Uiso   1.00
C1208  C     0.65314   0.90755   0.81258   0.00000  Uiso   1.00
C1209  C     0.73052   0.93363   0.83889   0.00000  Uiso   1.00
C1210  C     0.83730   0.46364   0.50930   0.00000  Uiso   1.00
C1211  C     0.47681   0.82682   0.84484   0.00000  Uiso   1.00
C1212  C     0.78141   0.49358   0.54215   0.00000  Uiso   1.00
C1213  C     0.42632   0.85673   0.87194   0.00000  Uiso   1.00
C1214  C     0.81812   0.43185   0.47303   0.00000  Uiso   1.00
C1215  C     0.79610   0.38013   0.47132   0.00000  Uiso   1.00
C1216  C     0.78105   0.35805   0.43539   0.00000  Uiso   1.00
C1217  C     0.55883   0.83507   0.83505   0.00000  Uiso   1.00
C1218  C     0.59906   0.84209   0.85745   0.00000  Uiso   1.00
C1219  C     0.64636   0.87884   0.84565   0.00000  Uiso   1.00
H1220  H     0.52169   0.87205   0.75615   0.00000  Uiso   1.00
H1221  H     0.46710   0.90746   0.78268   0.00000  Uiso   1.00
H1222  H     0.48178   0.79403   0.71187   0.00000  Uiso   1.00
H1223  H     0.61806   0.92264   0.76465   0.00000  Uiso   1.00
H1224  H     0.40358   0.93408   0.82665   0.00000  Uiso   1.00
H1225  H     0.10123   0.02822   0.01067   0.00000  Uiso   1.00
H1226  H     0.72193   0.96609   0.78863   0.00000  Uiso   1.00
H1227  H     0.83203   0.44133   0.53500   0.00000  Uiso   1.00
H1228  H     0.77619   0.47140   0.56769   0.00000  Uiso   1.00
H1229  H     0.79087   0.35796   0.49688   0.00000  Uiso   1.00
H1230  H     0.92714   0.48658   0.54966   0.00000  Uiso   1.00
H1231  H     0.71723   0.51736   0.58937   0.00000  Uiso   1.00
H1232  H     0.41488   0.61151   0.77339   0.00000  Uiso   1.00
H1233  H     0.70224   0.88272   0.88469   0.00000  Uiso   1.00
O1234  O     0.35740   0.91392   0.89415   0.00000  Uiso   1.00
O1235  O     0.39806   0.60011   0.69825   0.00000  Uiso   1.00
O1236  O     0.77507   0.95593   0.84428   0.00000  Uiso   1.00
N1237  N     0.40662   0.91033   0.84477   0.00000  Uiso   1.00
N1238  N     0.10225   0.02004   0.03851   0.00000  Uiso   1.00
N1239  N     0.70424   0.94025   0.80922   0.00000  Uiso   1.00
N1240  N     0.72937   0.53214   0.56312   0.00000  Uiso   1.00
N1241  N     0.42499   0.64184   0.75686   0.00000  Uiso   1.00
N1242  N     0.69365   0.89539   0.86091   0.00000  Uiso   1.00
C1243  C     0.67334   0.53556   0.94380   0.00000  Uiso   1.00
C1244  C     0.71342   0.54603   0.97382   0.00000  Uiso   1.00
C1245  C     0.76439   0.57880   0.96956   0.00000  Uiso   1.00
C1246  C     0.79489   0.58312   0.00037   0.00000  Uiso   1.00
C1247  C     0.86014   0.60354   0.04183   0.00000  Uiso   1.00
C1248  C     0.64589   0.47916   0.93705   0.00000  Uiso   1.00
C1249  C     0.64007   0.45570   0.90186   0.00000  Uiso   1.00
C1250  C     0.61372   0.40372   0.90171   0.00000  Uiso   1.00
C1251  C     0.57409   0.32032   0.88608   0.00000  Uiso   1.00
C1252  C     0.63573   0.54681   0.96321   0.00000  Uiso   1.00
C1253  C     0.62137   0.58023   0.95002   0.00000  Uiso   1.00
C1254  C     0.58645   0.58520   0.97189   0.00000  Uiso   1.00
C1255  C     0.86439   0.27351   0.66354   0.00000  Uiso   1.00
C1256  C     0.63688   0.48496   0.00609   0.00000  Uiso   1.00
C1257  C     0.69361   0.51855   0.00766   0.00000  Uiso   1.00
C1258  C     0.72404   0.52282   0.03848   0.00000  Uiso   1.00
C1259  C     0.77505   0.55559   0.03426   0.00000  Uiso   1.00
C1260  C     0.62608   0.45168   0.97088   0.00000  Uiso   1.00
C1261  C     0.59973   0.39972   0.97078   0.00000  Uiso   1.00
C1262  C     0.59387   0.37619   0.93560   0.00000  Uiso   1.00
C1263  C     0.61592   0.51933   0.99704   0.00000  Uiso   1.00
C1264  C     0.58102   0.52425   0.01894   0.00000  Uiso   1.00
C1265  C     0.89994   0.22433   0.67245   0.00000  Uiso   1.00
H1266  H     0.68876   0.55696   0.91745   0.00000  Uiso   1.00
H1267  H     0.77970   0.60006   0.94337   0.00000  Uiso   1.00
H1268  H     0.65540   0.47698   0.87568   0.00000  Uiso   1.00
H1269  H     0.63670   0.60149   0.92383   0.00000  Uiso   1.00
H1270  H     0.87180   0.63571   0.98702   0.00000  Uiso   1.00
H1271  H     0.60968   0.37619   0.84429   0.00000  Uiso   1.00
H1272  H     0.90358   0.30542   0.61249   0.00000  Uiso   1.00
H1273  H     0.62145   0.46356   0.03243   0.00000  Uiso   1.00
H1274  H     0.70870   0.50154   0.06466   0.00000  Uiso   1.00
H1275  H     0.58440   0.37846   0.99697   0.00000  Uiso   1.00
H1276  H     0.89904   0.16964   0.71179   0.00000  Uiso   1.00
H1277  H     0.81417   0.55575   0.08546   0.00000  Uiso   1.00
H1278  H     0.55205   0.29623   0.94273   0.00000  Uiso   1.00
H1279  H     0.84596   0.22546   0.71093   0.00000  Uiso   1.00
O1280  O     0.90160   0.62239   0.05536   0.00000  Uiso   1.00
O1281  O     0.55770   0.28191   0.86811   0.00000  Uiso   1.00
O1282  O     0.83931   0.29305   0.66798   0.00000  Uiso   1.00
N1283  N     0.84626   0.61169   0.00576   0.00000  Uiso   1.00
N1284  N     0.60120   0.36905   0.87233   0.00000  Uiso   1.00
N1285  N     0.89766   0.28118   0.63391   0.00000  Uiso   1.00
N1286  N     0.81525   0.56866   0.05874   0.00000  Uiso   1.00
N1287  N     0.57020   0.32603   0.92530   0.00000  Uiso   1.00
N1288  N     0.86666   0.23815   0.68688   0.00000  Uiso   1.00
C1289  C     0.18309   0.18307   0.11519   0.00000  Uiso   1.00
C1290  C     0.15025   0.18881   0.14516   0.00000  Uiso   1.00
C1291  C     0.12853   0.21863   0.14157   0.00000  Uiso   1.00
C1292  C     0.09977   0.21877   0.17220   0.00000  Uiso   1.00
C1293  C     0.04978   0.23203   0.21371   0.00000  Uiso   1.00
C1294  C     0.15822   0.12718   0.10669   0.00000  Uiso   1.00
C1295  C     0.14321   0.10517   0.07074   0.00000  Uiso   1.00
C1296  C     0.12116   0.05343   0.06899   0.00000  Uiso   1.00
C1297  C     0.08359   0.97100   0.05076   0.00000  Uiso   1.00
C1298  C     0.23226   0.19706   0.13536   0.00000  Uiso   1.00
C1299  C     0.27951   0.23380   0.12353   0.00000  Uiso   1.00
C1300  C     0.31980   0.24089   0.14592   0.00000  Uiso   1.00
C1301  C     0.39719   0.26696   0.17222   0.00000  Uiso   1.00
C1302  C     0.50397   0.79697   0.84263   0.00000  Uiso   1.00
C1303  C     0.14348   0.16015   0.17817   0.00000  Uiso   1.00
C1304  C     0.44808   0.82692   0.87548   0.00000  Uiso   1.00
C1305  C     0.09299   0.19006   0.20527   0.00000  Uiso   1.00
C1306  C     0.48479   0.76518   0.80636   0.00000  Uiso   1.00
C1307  C     0.46276   0.71346   0.80466   0.00000  Uiso   1.00
C1308  C     0.44772   0.69138   0.76873   0.00000  Uiso   1.00
C1309  C     0.22549   0.16840   0.16838   0.00000  Uiso   1.00
C1310  C     0.26573   0.17543   0.19078   0.00000  Uiso   1.00
C1311  C     0.31303   0.21218   0.17899   0.00000  Uiso   1.00
H1312  H     0.18835   0.20538   0.08948   0.00000  Uiso   1.00
H1313  H     0.13377   0.24080   0.11601   0.00000  Uiso   1.00
H1314  H     0.14845   0.12736   0.04520   0.00000  Uiso   1.00
H1315  H     0.28473   0.25597   0.09798   0.00000  Uiso   1.00
H1316  H     0.07025   0.26741   0.15998   0.00000  Uiso   1.00
H1317  H     0.76790   0.36156   0.34400   0.00000  Uiso   1.00
H1318  H     0.38859   0.29943   0.12197   0.00000  Uiso   1.00
H1319  H     0.49870   0.77466   0.86834   0.00000  Uiso   1.00
H1320  H     0.44285   0.80474   0.90103   0.00000  Uiso   1.00
H1321  H     0.45754   0.69130   0.83021   0.00000  Uiso   1.00
H1322  H     0.59381   0.81991   0.88299   0.00000  Uiso   1.00
H1323  H     0.38390   0.85070   0.92270   0.00000  Uiso   1.00
H1324  H     0.08155   0.94484   0.10672   0.00000  Uiso   1.00
H1325  H     0.36891   0.21605   0.21802   0.00000  Uiso   1.00
O1326  O     0.02407   0.24725   0.22748   0.00000  Uiso   1.00
O1327  O     0.06472   0.93345   0.03159   0.00000  Uiso   1.00
O1328  O     0.44174   0.28926   0.17761   0.00000  Uiso   1.00
N1329  N     0.07329   0.24367   0.17810   0.00000  Uiso   1.00
N1330  N     0.76891   0.35337   0.37184   0.00000  Uiso   1.00
N1331  N     0.37091   0.27359   0.14256   0.00000  Uiso   1.00
N1332  N     0.39603   0.86547   0.89646   0.00000  Uiso   1.00
N1333  N     0.09166   0.97518   0.09019   0.00000  Uiso   1.00
N1334  N     0.36032   0.22872   0.19424   0.00000  Uiso   1.00
C1335  C     0.34001   0.86890   0.27713   0.00000  Uiso   1.00
C1336  C     0.38009   0.87937   0.30716   0.00000  Uiso   1.00
C1337  C     0.43106   0.91213   0.30289   0.00000  Uiso   1.00
C1338  C     0.46156   0.91645   0.33370   0.00000  Uiso   1.00
C1339  C     0.52680   0.93687   0.37517   0.00000  Uiso   1.00
C1340  C     0.31255   0.81249   0.27038   0.00000  Uiso   1.00
C1341  C     0.30674   0.78903   0.23519   0.00000  Uiso   1.00
C1342  C     0.28039   0.73705   0.23504   0.00000  Uiso   1.00
C1343  C     0.24075   0.65365   0.21941   0.00000  Uiso   1.00
C1344  C     0.30240   0.88015   0.29654   0.00000  Uiso   1.00
C1345  C     0.28803   0.91356   0.28335   0.00000  Uiso   1.00
C1346  C     0.25312   0.91854   0.30522   0.00000  Uiso   1.00
C1347  C     0.53105   0.60685   0.99688   0.00000  Uiso   1.00
C1348  C     0.30354   0.81830   0.33942   0.00000  Uiso   1.00
C1349  C     0.36028   0.85188   0.34099   0.00000  Uiso   1.00
C1350  C     0.39071   0.85615   0.37181   0.00000  Uiso   1.00
C1351  C     0.44172   0.88892   0.36760   0.00000  Uiso   1.00
C1352  C     0.29275   0.78501   0.30421   0.00000  Uiso   1.00
C1353  C     0.26639   0.73305   0.30411   0.00000  Uiso   1.00
C1354  C     0.26054   0.70952   0.26894   0.00000  Uiso   1.00
C1355  C     0.28259   0.85266   0.33038   0.00000  Uiso   1.00
C1356  C     0.24769   0.85758   0.35227   0.00000  Uiso   1.00
C1357  C     0.56661   0.55767   0.00578   0.00000  Uiso   1.00
H1358  H     0.35543   0.89029   0.25079   0.00000  Uiso   1.00
H1359  H     0.44637   0.93339   0.27670   0.00000  Uiso   1.00
H1360  H     0.32207   0.81031   0.20902   0.00000  Uiso   1.00
H1361  H     0.30337   0.93482   0.25717   0.00000  Uiso   1.00
H1362  H     0.53846   0.96905   0.32035   0.00000  Uiso   1.00
H1363  H     0.27635   0.70953   0.17763   0.00000  Uiso   1.00
H1364  H     0.57025   0.63875   0.94582   0.00000  Uiso   1.00
H1365  H     0.28812   0.79690   0.36576   0.00000  Uiso   1.00
H1366  H     0.37537   0.83488   0.39799   0.00000  Uiso   1.00
H1367  H     0.25107   0.71180   0.33030   0.00000  Uiso   1.00
H1368  H     0.56570   0.50297   0.04512   0.00000  Uiso   1.00
H1369  H     0.48084   0.88909   0.41879   0.00000  Uiso   1.00
H1370  H     0.21872   0.62956   0.27607   0.00000  Uiso   1.00
H1371  H     0.51262   0.55879   0.04427   0.00000  Uiso   1.00
O1372  O     0.56826   0.95572   0.38869   0.00000  Uiso   1.00
O1373  O     0.22437   0.61524   0.20144   0.00000  Uiso   1.00
O1374  O     0.50597   0.62638   0.00132   0.00000  Uiso   1.00
N1375  N     0.51293   0.94502   0.33910   0.00000  Uiso   1.00
N1376  N     0.26787   0.70239   0.20566   0.00000  Uiso   1.00
N1377  N     0.56433   0.61451   0.96725   0.00000  Uiso   1.00
N1378  N     0.48192   0.90200   0.39207   0.00000  Uiso   1.00
N1379  N     0.23686   0.65936   0.25863   0.00000  Uiso   1.00
N1380  N     0.53332   0.57149   0.02022   0.00000  Uiso   1.00
C1381  C     0.48360   0.33335   0.44852   0.00000  Uiso   1.00
C1382  C     0.47785   0.29477   0.47849   0.00000  Uiso   1.00
C1383  C     0.44804   0.24323   0.47490   0.00000  Uiso   1.00
C1384  C     0.44790   0.21433   0.50553   0.00000  Uiso   1.00
C1385  C     0.43464   0.15109   0.54704   0.00000  Uiso   1.00
C1386  C     0.53949   0.36437   0.44002   0.00000  Uiso   1.00
C1387  C     0.56150   0.37137   0.40408   0.00000  Uiso   1.00
C1388  C     0.61324   0.40107   0.40232   0.00000  Uiso   1.00
C1389  C     0.69567   0.44592   0.38409   0.00000  Uiso   1.00
C1390  C     0.46961   0.36853   0.46870   0.00000  Uiso   1.00
C1391  C     0.43286   0.37904   0.45687   0.00000  Uiso   1.00
C1392  C     0.42578   0.41225   0.47925   0.00000  Uiso   1.00
C1393  C     0.39971   0.46356   0.50555   0.00000  Uiso   1.00
C1394  C     0.86969   0.04033   0.17597   0.00000  Uiso   1.00
C1395  C     0.50652   0.31666   0.51151   0.00000  Uiso   1.00
C1396  C     0.83975   0.95450   0.20881   0.00000  Uiso   1.00
C1397  C     0.47661   0.23626   0.53860   0.00000  Uiso   1.00
C1398  C     0.90148   0.05293   0.13970   0.00000  Uiso   1.00
C1399  C     0.95320   0.08263   0.13799   0.00000  Uiso   1.00
C1400  C     0.97528   0.08967   0.10206   0.00000  Uiso   1.00
C1401  C     0.49827   0.39043   0.50171   0.00000  Uiso   1.00
C1402  C     0.49124   0.42363   0.52411   0.00000  Uiso   1.00
C1403  C     0.45449   0.43418   0.51232   0.00000  Uiso   1.00
H1404  H     0.46129   0.31631   0.42282   0.00000  Uiso   1.00
H1405  H     0.42587   0.22630   0.44935   0.00000  Uiso   1.00
H1406  H     0.53931   0.35443   0.37853   0.00000  Uiso   1.00
H1407  H     0.41069   0.36209   0.43132   0.00000  Uiso   1.00
H1408  H     0.39926   0.13617   0.49331   0.00000  Uiso   1.00
H1409  H     0.30511   0.73967   0.67733   0.00000  Uiso   1.00
H1410  H     0.36724   0.42250   0.45530   0.00000  Uiso   1.00
H1411  H     0.89201   0.05737   0.20167   0.00000  Uiso   1.00
H1412  H     0.86193   0.97145   0.23436   0.00000  Uiso   1.00
H1413  H     0.97537   0.09957   0.16355   0.00000  Uiso   1.00
H1414  H     0.84676   0.10723   0.21633   0.00000  Uiso   1.00
H1415  H     0.81597   0.86654   0.25603   0.00000  Uiso   1.00
H1416  H     0.72182   0.47004   0.44005   0.00000  Uiso   1.00
H1417  H     0.45062   0.48620   0.55135   0.00000  Uiso   1.00
O1418  O     0.41942   0.11016   0.56081   0.00000  Uiso   1.00
O1419  O     0.73322   0.46461   0.36492   0.00000  Uiso   1.00
O1420  O     0.37740   0.48581   0.51094   0.00000  Uiso   1.00
N1421  N     0.42300   0.16296   0.51144   0.00000  Uiso   1.00
N1422  N     0.31329   0.74887   0.70517   0.00000  Uiso   1.00
N1423  N     0.39308   0.43066   0.47589   0.00000  Uiso   1.00
N1424  N     0.80120   0.86390   0.22979   0.00000  Uiso   1.00
N1425  N     0.69149   0.44981   0.42352   0.00000  Uiso   1.00
N1426  N     0.43795   0.46493   0.52757   0.00000  Uiso   1.00
C1427  C     0.79777   0.80445   0.61046   0.00000  Uiso   1.00
C1428  C     0.78730   0.83405   0.64049   0.00000  Uiso   1.00
C1429  C     0.75453   0.85226   0.63623   0.00000  Uiso   1.00
C1430  C     0.75022   0.87844   0.66703   0.00000  Uiso   1.00
C1431  C     0.72980   0.92326   0.70850   0.00000  Uiso   1.00
C1432  C     0.85417   0.83339   0.60371   0.00000  Uiso   1.00
C1433  C     0.87763   0.85104   0.56853   0.00000  Uiso   1.00
C1434  C     0.92961   0.87666   0.56838   0.00000  Uiso   1.00
C1435  C     0.01301   0.92043   0.55274   0.00000  Uiso   1.00
C1436  C     0.78652   0.75559   0.62987   0.00000  Uiso   1.00
C1437  C     0.75310   0.70780   0.61668   0.00000  Uiso   1.00
C1438  C     0.74813   0.66792   0.63855   0.00000  Uiso   1.00
C1439  C     0.05982   0.25754   0.33021   0.00000  Uiso   1.00
C1440  C     0.84837   0.81858   0.67276   0.00000  Uiso   1.00
C1441  C     0.81479   0.84173   0.67432   0.00000  Uiso   1.00
C1442  C     0.81052   0.86789   0.70514   0.00000  Uiso   1.00
C1443  C     0.77775   0.88613   0.70093   0.00000  Uiso   1.00
C1444  C     0.88166   0.84107   0.63755   0.00000  Uiso   1.00
C1445  C     0.93361   0.86667   0.63745   0.00000  Uiso   1.00
C1446  C     0.95715   0.88435   0.60227   0.00000  Uiso   1.00
C1447  C     0.81400   0.76326   0.66371   0.00000  Uiso   1.00
C1448  C     0.80908   0.72344   0.68560   0.00000  Uiso   1.00
C1449  C     0.10900   0.34227   0.33912   0.00000  Uiso   1.00
H1450  H     0.77638   0.79847   0.58412   0.00000  Uiso   1.00
H1451  H     0.73327   0.84631   0.61004   0.00000  Uiso   1.00
H1452  H     0.85635   0.84509   0.54235   0.00000  Uiso   1.00
H1453  H     0.73184   0.70188   0.59050   0.00000  Uiso   1.00
H1454  H     0.69762   0.90275   0.65368   0.00000  Uiso   1.00
H1455  H     0.95714   0.90016   0.51096   0.00000  Uiso   1.00
H1456  H     0.02792   0.26483   0.27916   0.00000  Uiso   1.00
H1457  H     0.86977   0.82456   0.69910   0.00000  Uiso   1.00
H1458  H     0.83179   0.87383   0.73132   0.00000  Uiso   1.00
H1459  H     0.95487   0.87260   0.66363   0.00000  Uiso   1.00
H1460  H     0.16369   0.39606   0.37845   0.00000  Uiso   1.00
H1461  H     0.77758   0.92509   0.75212   0.00000  Uiso   1.00
H1462  H     0.03710   0.92249   0.60940   0.00000  Uiso   1.00
H1463  H     0.10788   0.28717   0.37760   0.00000  Uiso   1.00
O1464  O     0.71094   0.94587   0.72202   0.00000  Uiso   1.00
O1465  O     0.05142   0.94246   0.53477   0.00000  Uiso   1.00
O1466  O     0.04029   0.21293   0.33465   0.00000  Uiso   1.00
N1467  N     0.72164   0.90124   0.67243   0.00000  Uiso   1.00
N1468  N     0.96428   0.89882   0.53899   0.00000  Uiso   1.00
N1469  N     0.05215   0.28315   0.30058   0.00000  Uiso   1.00
N1470  N     0.76467   0.91325   0.72540   0.00000  Uiso   1.00
N1471  N     0.00731   0.91084   0.59196   0.00000  Uiso   1.00
N1472  N     0.09518   0.29517   0.35355   0.00000  Uiso   1.00
C1473  C     0.15026   0.66668   0.78185   0.00000  Uiso   1.00
C1474  C     0.14452   0.62810   0.81183   0.00000  Uiso   1.00
C1475  C     0.11471   0.57657   0.80823   0.00000  Uiso   1.00
C1476  C     0.11456   0.54766   0.83886   0.00000  Uiso   1.00
C1477  C     0.10131   0.48442   0.88037   0.00000  Uiso   1.00
C1478  C     0.20616   0.69771   0.77335   0.00000  Uiso   1.00
C1479  C     0.22816   0.70470   0.73741   0.00000  Uiso   1.00
C1480  C     0.27990   0.73440   0.73565   0.00000  Uiso   1.00
C1481  C     0.36234   0.77926   0.71743   0.00000  Uiso   1.00
C1482  C     0.13627   0.70187   0.80203   0.00000  Uiso   1.00
C1483  C     0.09953   0.71237   0.79020   0.00000  Uiso   1.00
C1484  C     0.09245   0.74558   0.81258   0.00000  Uiso   1.00
C1485  C     0.06637   0.79689   0.83889   0.00000  Uiso   1.00
C1486  C     0.53636   0.37366   0.50930   0.00000  Uiso   1.00
C1487  C     0.17318   0.65000   0.84484   0.00000  Uiso   1.00
C1488  C     0.50642   0.28783   0.54215   0.00000  Uiso   1.00
C1489  C     0.14327   0.56959   0.87194   0.00000  Uiso   1.00
C1490  C     0.56815   0.38627   0.47303   0.00000  Uiso   1.00
C1491  C     0.61987   0.41597   0.47132   0.00000  Uiso   1.00
C1492  C     0.64195   0.42300   0.43539   0.00000  Uiso   1.00
C1493  C     0.16493   0.72376   0.83505   0.00000  Uiso   1.00
C1494  C     0.15791   0.75696   0.85745   0.00000  Uiso   1.00
C1495  C     0.12116   0.76752   0.84565   0.00000  Uiso   1.00
H1496  H     0.12795   0.64964   0.75615   0.00000  Uiso   1.00
H1497  H     0.09254   0.55964   0.78268   0.00000  Uiso   1.00
H1498  H     0.20597   0.68776   0.71187   0.00000  Uiso   1.00
H1499  H     0.07736   0.69542   0.76465   0.00000  Uiso   1.00
H1500  H     0.06592   0.46951   0.82665   0.00000  Uiso   1.00
H1501  H     0.97178   0.07300   0.01067   0.00000  Uiso   1.00
H1502  H     0.03391   0.75583   0.78863   0.00000  Uiso   1.00
H1503  H     0.55867   0.39071   0.53500   0.00000  Uiso   1.00
H1504  H     0.52860   0.30478   0.56769   0.00000  Uiso   1.00
H1505  H     0.64204   0.43290   0.49688   0.00000  Uiso   1.00
H1506  H     0.51342   0.44057   0.54966   0.00000  Uiso   1.00
H1507  H     0.48264   0.19987   0.58937   0.00000  Uiso   1.00
H1508  H     0.38849   0.80337   0.77339   0.00000  Uiso   1.00
H1509  H     0.11728   0.81953   0.88469   0.00000  Uiso   1.00
O1510  O     0.08608   0.44349   0.89415   0.00000  Uiso   1.00
O1511  O     0.39989   0.79794   0.69825   0.00000  Uiso   1.00
O1512  O     0.04407   0.81914   0.84428   0.00000  Uiso   1.00
N1513  N     0.08967   0.49629   0.84477   0.00000  Uiso   1.00
N1514  N     0.97996   0.08220   0.03851   0.00000  Uiso   1.00
N1515  N     0.05975   0.76399   0.80922   0.00000  Uiso   1.00
N1516  N     0.46786   0.19723   0.56312   0.00000  Uiso   1.00
N1517  N     0.35816   0.78315   0.75686   0.00000  Uiso   1.00
N1518  N     0.10461   0.79827   0.86091   0.00000  Uiso   1.00
C1519  C     0.46444   0.13778   0.94380   0.00000  Uiso   1.00
C1520  C     0.45397   0.16739   0.97382   0.00000  Uiso   1.00
C1521  C     0.42120   0.18559   0.96956   0.00000  Uiso   1.00
C1522  C     0.41688   0.21177   0.00037   0.00000  Uiso   1.00
C1523  C     0.39646   0.25660   0.04183   0.00000  Uiso   1.00
C1524  C     0.52084   0.16673   0.93705   0.00000  Uiso   1.00
C1525  C     0.54430   0.18437   0.90186   0.00000  Uiso   1.00
C1526  C     0.59628   0.21000   0.90171   0.00000  Uiso   1.00
C1527  C     0.67968   0.25377   0.88608   0.00000  Uiso   1.00
C1528  C     0.45319   0.08892   0.96321   0.00000  Uiso   1.00
C1529  C     0.41977   0.04114   0.95002   0.00000  Uiso   1.00
C1530  C     0.41480   0.00125   0.97189   0.00000  Uiso   1.00
C1531  C     0.72649   0.59088   0.66354   0.00000  Uiso   1.00
C1532  C     0.51504   0.15191   0.00609   0.00000  Uiso   1.00
C1533  C     0.48145   0.17506   0.00766   0.00000  Uiso   1.00
C1534  C     0.47718   0.20122   0.03848   0.00000  Uiso   1.00
C1535  C     0.44441   0.21946   0.03426   0.00000  Uiso   1.00
C1536  C     0.54832   0.17440   0.97088   0.00000  Uiso   1.00
C1537  C     0.60028   0.20001   0.97078   0.00000  Uiso   1.00
C1538  C     0.62381   0.21769   0.93560   0.00000  Uiso   1.00
C1539  C     0.48067   0.09659   0.99704   0.00000  Uiso   1.00
C1540  C     0.47575   0.05677   0.01894   0.00000  Uiso   1.00
C1541  C     0.77567   0.67561   0.67245   0.00000  Uiso   1.00
H1542  H     0.44304   0.13181   0.91745   0.00000  Uiso   1.00
H1543  H     0.39994   0.17964   0.94337   0.00000  Uiso   1.00
H1544  H     0.52302   0.17842   0.87568   0.00000  Uiso   1.00
H1545  H     0.39851   0.03521   0.92383   0.00000  Uiso   1.00
H1546  H     0.36429   0.23608   0.98702   0.00000  Uiso   1.00
H1547  H     0.62381   0.23349   0.84429   0.00000  Uiso   1.00
H1548  H     0.69458   0.59817   0.61249   0.00000  Uiso   1.00
H1549  H     0.53644   0.15789   0.03243   0.00000  Uiso   1.00
H1550  H     0.49846   0.20716   0.06466   0.00000  Uiso   1.00
H1551  H     0.62154   0.20594   0.99697   0.00000  Uiso   1.00
H1552  H     0.83036   0.72939   0.71179   0.00000  Uiso   1.00
H1553  H     0.44425   0.25842   0.08546   0.00000  Uiso   1.00
H1554  H     0.70377   0.25582   0.94273   0.00000  Uiso   1.00
H1555  H     0.77454   0.62050   0.71093   0.00000  Uiso   1.00
O1556  O     0.37761   0.27921   0.05536   0.00000  Uiso   1.00
O1557  O     0.71809   0.27579   0.86811   0.00000  Uiso   1.00
O1558  O     0.70695   0.54626   0.66798   0.00000  Uiso   1.00
N1559  N     0.38831   0.23457   0.00576   0.00000  Uiso   1.00
N1560  N     0.63095   0.23215   0.87233   0.00000  Uiso   1.00
N1561  N     0.71882   0.61648   0.63391   0.00000  Uiso   1.00
N1562  N     0.43134   0.24659   0.05874   0.00000  Uiso   1.00
N1563  N     0.67397   0.24417   0.92530   0.00000  Uiso   1.00
N1564  N     0.76185   0.62850   0.68688   0.00000  Uiso   1.00
C1565  C     0.81693   0.00002   0.11519   0.00000  Uiso   1.00
C1566  C     0.81119   0.96143   0.14516   0.00000  Uiso   1.00
C1567  C     0.78137   0.90990   0.14157   0.00000  Uiso   1.00
C1568  C     0.78123   0.88100   0.17220   0.00000  Uiso   1.00
C1569  C     0.76797   0.81775   0.21371   0.00000  Uiso   1.00
C1570  C     0.87282   0.03104   0.10669   0.00000  Uiso   1.00
C1571  C     0.89483   0.03804   0.07074   0.00000  Uiso   1.00
C1572  C     0.94657   0.06773   0.06899   0.00000  Uiso   1.00
C1573  C     0.02900   0.11259   0.05076   0.00000  Uiso   1.00
C1574  C     0.80294   0.03520   0.13536   0.00000  Uiso   1.00
C1575  C     0.76620   0.04570   0.12353   0.00000  Uiso   1.00
C1576  C     0.75911   0.07891   0.14592   0.00000  Uiso   1.00
C1577  C     0.73304   0.13023   0.17222   0.00000  Uiso   1.00
C1578  C     0.20303   0.70699   0.84263   0.00000  Uiso   1.00
C1579  C     0.83985   0.98333   0.17817   0.00000  Uiso   1.00
C1580  C     0.17308   0.62116   0.87548   0.00000  Uiso   1.00
C1581  C     0.80994   0.90293   0.20527   0.00000  Uiso   1.00
C1582  C     0.23482   0.71960   0.80636   0.00000  Uiso   1.00
C1583  C     0.28654   0.74930   0.80466   0.00000  Uiso   1.00
C1584  C     0.30862   0.75634   0.76873   0.00000  Uiso   1.00
C1585  C     0.83160   0.05709   0.16838   0.00000  Uiso   1.00
C1586  C     0.82457   0.09030   0.19078   0.00000  Uiso   1.00
C1587  C     0.78782   0.10085   0.17899   0.00000  Uiso   1.00
H1588  H     0.79462   0.98297   0.08948   0.00000  Uiso   1.00
H1589  H     0.75920   0.89297   0.11601   0.00000  Uiso   1.00
H1590  H     0.87264   0.02109   0.04520   0.00000  Uiso   1.00
H1591  H     0.74403   0.02875   0.09798   0.00000  Uiso   1.00
H1592  H     0.73259   0.80284   0.15998   0.00000  Uiso   1.00
H1593  H     0.63844   0.40634   0.34400   0.00000  Uiso   1.00
H1594  H     0.70057   0.08917   0.12197   0.00000  Uiso   1.00
H1595  H     0.22534   0.72404   0.86834   0.00000  Uiso   1.00
H1596  H     0.19526   0.63812   0.90103   0.00000  Uiso   1.00
H1597  H     0.30870   0.76624   0.83021   0.00000  Uiso   1.00
H1598  H     0.18009   0.77390   0.88299   0.00000  Uiso   1.00
H1599  H     0.14930   0.53320   0.92270   0.00000  Uiso   1.00
H1600  H     0.05516   0.13670   0.10672   0.00000  Uiso   1.00
H1601  H     0.78395   0.15286   0.21802   0.00000  Uiso   1.00
O1602  O     0.75275   0.77682   0.22748   0.00000  Uiso   1.00
O1603  O     0.06655   0.13128   0.03159   0.00000  Uiso   1.00
O1604  O     0.71074   0.15248   0.17761   0.00000  Uiso   1.00
N1605  N     0.75633   0.82962   0.17810   0.00000  Uiso   1.00
N1606  N     0.64663   0.41554   0.37184   0.00000  Uiso   1.00
N1607  N     0.72641   0.09732   0.14256   0.00000  Uiso   1.00
N1608  N     0.13453   0.53056   0.89646   0.00000  Uiso   1.00
N1609  N     0.02482   0.11648   0.09019   0.00000  Uiso   1.00
N1610  N     0.77128   0.13160   0.19424   0.00000  Uiso   1.00
C1611  C     0.13110   0.47111   0.27713   0.00000  Uiso   1.00
C1612  C     0.12063   0.50072   0.30716   0.00000  Uiso   1.00
C1613  C     0.08787   0.51892   0.30289   0.00000  Uiso   1.00
C1614  C     0.08355   0.54511   0.33370   0.00000  Uiso   1.00
C1615  C     0.06313   0.58993   0.37517   0.00000  Uiso   1.00
C1616  C     0.18751   0.50006   0.27038   0.00000  Uiso   1.00
C1617  C     0.21097   0.51770   0.23519   0.00000  Uiso   1.00
C1618  C     0.26295   0.54333   0.23504   0.00000  Uiso   1.00
C1619  C     0.34635   0.58710   0.21941   0.00000  Uiso   1.00
C1620  C     0.11985   0.42225   0.29654   0.00000  Uiso   1.00
C1621  C     0.08644   0.37447   0.28335   0.00000  Uiso   1.00
C1622  C     0.08146   0.33458   0.30522   0.00000  Uiso   1.00
C1623  C     0.39315   0.92421   0.99688   0.00000  Uiso   1.00
C1624  C     0.18170   0.48525   0.33942   0.00000  Uiso   1.00
C1625  C     0.14812   0.50840   0.34099   0.00000  Uiso   1.00
C1626  C     0.14385   0.53456   0.37181   0.00000  Uiso   1.00
C1627  C     0.11108   0.55280   0.36760   0.00000  Uiso   1.00
C1628  C     0.21499   0.50774   0.30421   0.00000  Uiso   1.00
C1629  C     0.26695   0.53334   0.30411   0.00000  Uiso   1.00
C1630  C     0.29048   0.55102   0.26894   0.00000  Uiso   1.00
C1631  C     0.14734   0.42993   0.33038   0.00000  Uiso   1.00
C1632  C     0.14242   0.39011   0.35227   0.00000  Uiso   1.00
C1633  C     0.44233   0.00894   0.00578   0.00000  Uiso   1.00
H1634  H     0.10971   0.46514   0.25079   0.00000  Uiso   1.00
H1635  H     0.06661   0.51298   0.27670   0.00000  Uiso   1.00
H1636  H     0.18969   0.51175   0.20902   0.00000  Uiso   1.00
H1637  H     0.06518   0.36854   0.25717   0.00000  Uiso   1.00
H1638  H     0.03095   0.56942   0.32035   0.00000  Uiso   1.00
H1639  H     0.29047   0.56682   0.17763   0.00000  Uiso   1.00
H1640  H     0.36125   0.93150   0.94582   0.00000  Uiso   1.00
H1641  H     0.20310   0.49122   0.36576   0.00000  Uiso   1.00
H1642  H     0.16512   0.54049   0.39799   0.00000  Uiso   1.00
H1643  H     0.28820   0.53927   0.33030   0.00000  Uiso   1.00
H1644  H     0.49703   0.06273   0.04512   0.00000  Uiso   1.00
H1645  H     0.11091   0.59175   0.41879   0.00000  Uiso   1.00
H1646  H     0.37044   0.58916   0.27607   0.00000  Uiso   1.00
H1647  H     0.44121   0.95384   0.04427   0.00000  Uiso   1.00
O1648  O     0.04428   0.61254   0.38869   0.00000  Uiso   1.00
O1649  O     0.38476   0.60913   0.20144   0.00000  Uiso   1.00
O1650  O     0.37362   0.87959   0.00132   0.00000  Uiso   1.00
N1651  N     0.05498   0.56790   0.33910   0.00000  Uiso   1.00
N1652  N     0.29761   0.56549   0.20566   0.00000  Uiso   1.00
N1653  N     0.38549   0.94982   0.96725   0.00000  Uiso   1.00
N1654  N     0.09800   0.57992   0.39207   0.00000  Uiso   1.00
N1655  N     0.34064   0.57750   0.25863   0.00000  Uiso   1.00
N1656  N     0.42851   0.96184   0.02022   0.00000  Uiso   1.00
