data_job_02904
_audit_creation_date              2018-12-19
_audit_creation_method            'Materials Studio'
_symmetry_space_group_name_H-M    'P1'
_symmetry_Int_Tables_number       1
_symmetry_cell_setting            triclinic
loop_
_symmetry_equiv_pos_as_xyz
  x,y,z
_cell_length_a                    25.4697
_cell_length_b                    25.4697
_cell_length_c                    19.1034
_cell_angle_alpha                 90.0000
_cell_angle_beta                  90.0000
_cell_angle_gamma                 90.0000
loop_
_atom_site_label
_atom_site_type_symbol
_atom_site_fract_x
_atom_site_fract_y
_atom_site_fract_z
_atom_site_U_iso_or_equiv
_atom_site_adp_type
_atom_site_occupancy
C1     C     0.34587   0.60004   0.79409   0.00000  Uiso   1.00
C2     C     0.36728   0.63980   0.74167   0.00000  Uiso   1.00
C3     C     0.38713   0.68906   0.75789   0.00000  Uiso   1.00
C4     C     0.40479   0.71957   0.70246   0.00000  Uiso   1.00
C5     C     0.43833   0.78408   0.63159   0.00000  Uiso   1.00
C6     C     0.29011   0.58752   0.77030   0.00000  Uiso   1.00
C7     C     0.24508   0.59281   0.81061   0.00000  Uiso   1.00
C8     C     0.19778   0.57931   0.77928   0.00000  Uiso   1.00
C9     C     0.11152   0.56261   0.75287   0.00000  Uiso   1.00
C10    C     0.37753   0.54990   0.78305   0.00000  Uiso   1.00
C11    C     0.40600   0.52356   0.83408   0.00000  Uiso   1.00
C12    C     0.43230   0.47837   0.81349   0.00000  Uiso   1.00
C13    C     0.48177   0.40327   0.80688   0.00000  Uiso   1.00
C14    C     0.34194   0.56662   0.66679   0.00000  Uiso   1.00
C15    C     0.36514   0.62165   0.67253   0.00000  Uiso   1.00
C16    C     0.38278   0.65209   0.61706   0.00000  Uiso   1.00
C17    C     0.40265   0.70139   0.63320   0.00000  Uiso   1.00
C18    C     0.28797   0.56937   0.70116   0.00000  Uiso   1.00
C19    C     0.24073   0.55585   0.66977   0.00000  Uiso   1.00
C20    C     0.19564   0.56112   0.71001   0.00000  Uiso   1.00
C21    C     0.37539   0.53175   0.71391   0.00000  Uiso   1.00
C22    C     0.40165   0.48659   0.69324   0.00000  Uiso   1.00
C23    C     0.43015   0.46019   0.74422   0.00000  Uiso   1.00
H24    H     0.34753   0.61417   0.84791   0.00000  Uiso   1.00
H25    H     0.38877   0.70309   0.81141   0.00000  Uiso   1.00
H26    H     0.24675   0.60685   0.86411   0.00000  Uiso   1.00
H27    H     0.40765   0.53761   0.88758   0.00000  Uiso   1.00
H28    H     0.43354   0.79369   0.74043   0.00000  Uiso   1.00
H29    H     0.13407   0.59075   0.85157   0.00000  Uiso   1.00
H30    H     0.47335   0.44474   0.90106   0.00000  Uiso   1.00
H31    H     0.34027   0.55249   0.61296   0.00000  Uiso   1.00
H32    H     0.38112   0.63804   0.56356   0.00000  Uiso   1.00
H33    H     0.23909   0.54180   0.61626   0.00000  Uiso   1.00
H34    H     0.39998   0.47256   0.63973   0.00000  Uiso   1.00
H35    H     0.42732   0.74089   0.53927   0.00000  Uiso   1.00
H36    H     0.12785   0.53795   0.65041   0.00000  Uiso   1.00
H37    H     0.46713   0.39194   0.69990   0.00000  Uiso   1.00
O38    O     0.45741   0.82468   0.61159   0.00000  Uiso   1.00
O39    O     0.06452   0.55842   0.75741   0.00000  Uiso   1.00
O40    O     0.50965   0.36687   0.82233   0.00000  Uiso   1.00
N41    N     0.42648   0.76952   0.69987   0.00000  Uiso   1.00
N42    N     0.14649   0.57979   0.80378   0.00000  Uiso   1.00
N43    N     0.46368   0.44327   0.85005   0.00000  Uiso   1.00
N44    N     0.42313   0.74110   0.59163   0.00000  Uiso   1.00
N45    N     0.14315   0.55138   0.69553   0.00000  Uiso   1.00
N46    N     0.46033   0.41486   0.74180   0.00000  Uiso   1.00
C47    C     0.84587   0.10004   0.29409   0.00000  Uiso   1.00
C48    C     0.86728   0.13980   0.24167   0.00000  Uiso   1.00
C49    C     0.88713   0.18906   0.25789   0.00000  Uiso   1.00
C50    C     0.90479   0.21957   0.20246   0.00000  Uiso   1.00
C51    C     0.93833   0.28408   0.13159   0.00000  Uiso   1.00
C52    C     0.79011   0.08752   0.27030   0.00000  Uiso   1.00
C53    C     0.74508   0.09281   0.31061   0.00000  Uiso   1.00
C54    C     0.69778   0.07931   0.27928   0.00000  Uiso   1.00
C55    C     0.61152   0.06261   0.25287   0.00000  Uiso   1.00
C56    C     0.87753   0.04990   0.28305   0.00000  Uiso   1.00
C57    C     0.90600   0.02356   0.33408   0.00000  Uiso   1.00
C58    C     0.93230   0.97837   0.31349   0.00000  Uiso   1.00
C59    C     0.98177   0.90327   0.30688   0.00000  Uiso   1.00
C60    C     0.84194   0.06662   0.16679   0.00000  Uiso   1.00
C61    C     0.86514   0.12165   0.17253   0.00000  Uiso   1.00
C62    C     0.88278   0.15209   0.11706   0.00000  Uiso   1.00
C63    C     0.90265   0.20139   0.13320   0.00000  Uiso   1.00
C64    C     0.78797   0.06937   0.20116   0.00000  Uiso   1.00
C65    C     0.74073   0.05585   0.16977   0.00000  Uiso   1.00
C66    C     0.69564   0.06112   0.21001   0.00000  Uiso   1.00
C67    C     0.87539   0.03175   0.21391   0.00000  Uiso   1.00
C68    C     0.90165   0.98659   0.19324   0.00000  Uiso   1.00
C69    C     0.93015   0.96019   0.24422   0.00000  Uiso   1.00
H70    H     0.84753   0.11417   0.34791   0.00000  Uiso   1.00
H71    H     0.88877   0.20309   0.31141   0.00000  Uiso   1.00
H72    H     0.74675   0.10685   0.36411   0.00000  Uiso   1.00
H73    H     0.90765   0.03761   0.38758   0.00000  Uiso   1.00
H74    H     0.93354   0.29369   0.24043   0.00000  Uiso   1.00
H75    H     0.63407   0.09075   0.35157   0.00000  Uiso   1.00
H76    H     0.97335   0.94474   0.40106   0.00000  Uiso   1.00
H77    H     0.84027   0.05249   0.11296   0.00000  Uiso   1.00
H78    H     0.88112   0.13804   0.06356   0.00000  Uiso   1.00
H79    H     0.73909   0.04180   0.11626   0.00000  Uiso   1.00
H80    H     0.89998   0.97256   0.13973   0.00000  Uiso   1.00
H81    H     0.92732   0.24089   0.03927   0.00000  Uiso   1.00
H82    H     0.62785   0.03795   0.15041   0.00000  Uiso   1.00
H83    H     0.96713   0.89194   0.19990   0.00000  Uiso   1.00
O84    O     0.95741   0.32468   0.11159   0.00000  Uiso   1.00
O85    O     0.56452   0.05842   0.25741   0.00000  Uiso   1.00
O86    O     0.00965   0.86687   0.32233   0.00000  Uiso   1.00
N87    N     0.92648   0.26952   0.19987   0.00000  Uiso   1.00
N88    N     0.64649   0.07979   0.30378   0.00000  Uiso   1.00
N89    N     0.96368   0.94327   0.35005   0.00000  Uiso   1.00
N90    N     0.92313   0.24110   0.09163   0.00000  Uiso   1.00
N91    N     0.64315   0.05138   0.19553   0.00000  Uiso   1.00
N92    N     0.96033   0.91486   0.24180   0.00000  Uiso   1.00
C93    C     0.15413   0.89996   0.29409   0.00000  Uiso   1.00
C94    C     0.13272   0.86020   0.24167   0.00000  Uiso   1.00
C95    C     0.11287   0.81094   0.25789   0.00000  Uiso   1.00
C96    C     0.09521   0.78043   0.20246   0.00000  Uiso   1.00
C97    C     0.06167   0.71592   0.13159   0.00000  Uiso   1.00
C98    C     0.20989   0.91248   0.27030   0.00000  Uiso   1.00
C99    C     0.25492   0.90719   0.31061   0.00000  Uiso   1.00
C100   C     0.30222   0.92069   0.27928   0.00000  Uiso   1.00
C101   C     0.38848   0.93739   0.25287   0.00000  Uiso   1.00
C102   C     0.12247   0.95010   0.28305   0.00000  Uiso   1.00
C103   C     0.09400   0.97644   0.33408   0.00000  Uiso   1.00
C104   C     0.06770   0.02163   0.31349   0.00000  Uiso   1.00
C105   C     0.01823   0.09673   0.30688   0.00000  Uiso   1.00
C106   C     0.15806   0.93338   0.16679   0.00000  Uiso   1.00
C107   C     0.13486   0.87835   0.17253   0.00000  Uiso   1.00
C108   C     0.11722   0.84791   0.11706   0.00000  Uiso   1.00
C109   C     0.09735   0.79861   0.13320   0.00000  Uiso   1.00
C110   C     0.21203   0.93063   0.20116   0.00000  Uiso   1.00
C111   C     0.25927   0.94415   0.16977   0.00000  Uiso   1.00
C112   C     0.30436   0.93888   0.21001   0.00000  Uiso   1.00
C113   C     0.12461   0.96825   0.21391   0.00000  Uiso   1.00
C114   C     0.09835   0.01341   0.19324   0.00000  Uiso   1.00
C115   C     0.06985   0.03981   0.24422   0.00000  Uiso   1.00
H116   H     0.15247   0.88583   0.34791   0.00000  Uiso   1.00
H117   H     0.11123   0.79691   0.31141   0.00000  Uiso   1.00
H118   H     0.25325   0.89315   0.36411   0.00000  Uiso   1.00
H119   H     0.09235   0.96239   0.38758   0.00000  Uiso   1.00
H120   H     0.06646   0.70631   0.24043   0.00000  Uiso   1.00
H121   H     0.36593   0.90925   0.35157   0.00000  Uiso   1.00
H122   H     0.02665   0.05526   0.40106   0.00000  Uiso   1.00
H123   H     0.15973   0.94751   0.11296   0.00000  Uiso   1.00
H124   H     0.11888   0.86196   0.06356   0.00000  Uiso   1.00
H125   H     0.26091   0.95820   0.11626   0.00000  Uiso   1.00
H126   H     0.10002   0.02744   0.13973   0.00000  Uiso   1.00
H127   H     0.07268   0.75911   0.03927   0.00000  Uiso   1.00
H128   H     0.37215   0.96205   0.15041   0.00000  Uiso   1.00
H129   H     0.03287   0.10806   0.19990   0.00000  Uiso   1.00
O130   O     0.04259   0.67532   0.11159   0.00000  Uiso   1.00
O131   O     0.43548   0.94158   0.25741   0.00000  Uiso   1.00
O132   O     0.99035   0.13313   0.32233   0.00000  Uiso   1.00
N133   N     0.07352   0.73048   0.19987   0.00000  Uiso   1.00
N134   N     0.35351   0.92021   0.30378   0.00000  Uiso   1.00
N135   N     0.03632   0.05673   0.35005   0.00000  Uiso   1.00
N136   N     0.07687   0.75890   0.09163   0.00000  Uiso   1.00
N137   N     0.35685   0.94862   0.19553   0.00000  Uiso   1.00
N138   N     0.03967   0.08514   0.24180   0.00000  Uiso   1.00
C139   C     0.65413   0.39996   0.79409   0.00000  Uiso   1.00
C140   C     0.63272   0.36020   0.74167   0.00000  Uiso   1.00
C141   C     0.61287   0.31094   0.75789   0.00000  Uiso   1.00
C142   C     0.59521   0.28043   0.70246   0.00000  Uiso   1.00
C143   C     0.56167   0.21592   0.63159   0.00000  Uiso   1.00
C144   C     0.70989   0.41248   0.77030   0.00000  Uiso   1.00
C145   C     0.75492   0.40719   0.81061   0.00000  Uiso   1.00
C146   C     0.80222   0.42069   0.77928   0.00000  Uiso   1.00
C147   C     0.88848   0.43739   0.75287   0.00000  Uiso   1.00
C148   C     0.62247   0.45010   0.78305   0.00000  Uiso   1.00
C149   C     0.59400   0.47644   0.83408   0.00000  Uiso   1.00
C150   C     0.56770   0.52163   0.81349   0.00000  Uiso   1.00
C151   C     0.51823   0.59673   0.80688   0.00000  Uiso   1.00
C152   C     0.65806   0.43338   0.66679   0.00000  Uiso   1.00
C153   C     0.63486   0.37835   0.67253   0.00000  Uiso   1.00
C154   C     0.61722   0.34791   0.61706   0.00000  Uiso   1.00
C155   C     0.59735   0.29861   0.63320   0.00000  Uiso   1.00
C156   C     0.71203   0.43063   0.70116   0.00000  Uiso   1.00
C157   C     0.75927   0.44415   0.66977   0.00000  Uiso   1.00
C158   C     0.80436   0.43888   0.71001   0.00000  Uiso   1.00
C159   C     0.62461   0.46825   0.71391   0.00000  Uiso   1.00
C160   C     0.59835   0.51341   0.69324   0.00000  Uiso   1.00
C161   C     0.56985   0.53981   0.74422   0.00000  Uiso   1.00
H162   H     0.65247   0.38583   0.84791   0.00000  Uiso   1.00
H163   H     0.61123   0.29691   0.81141   0.00000  Uiso   1.00
H164   H     0.75325   0.39315   0.86411   0.00000  Uiso   1.00
H165   H     0.59235   0.46239   0.88758   0.00000  Uiso   1.00
H166   H     0.56646   0.20631   0.74043   0.00000  Uiso   1.00
H167   H     0.86593   0.40925   0.85157   0.00000  Uiso   1.00
H168   H     0.52665   0.55526   0.90106   0.00000  Uiso   1.00
H169   H     0.65973   0.44751   0.61296   0.00000  Uiso   1.00
H170   H     0.61888   0.36196   0.56356   0.00000  Uiso   1.00
H171   H     0.76091   0.45820   0.61626   0.00000  Uiso   1.00
H172   H     0.60002   0.52744   0.63973   0.00000  Uiso   1.00
H173   H     0.57268   0.25911   0.53927   0.00000  Uiso   1.00
H174   H     0.87215   0.46205   0.65041   0.00000  Uiso   1.00
H175   H     0.53287   0.60806   0.69990   0.00000  Uiso   1.00
O176   O     0.54259   0.17532   0.61159   0.00000  Uiso   1.00
O177   O     0.93548   0.44158   0.75741   0.00000  Uiso   1.00
O178   O     0.49035   0.63313   0.82233   0.00000  Uiso   1.00
N179   N     0.57352   0.23048   0.69987   0.00000  Uiso   1.00
N180   N     0.85351   0.42021   0.80378   0.00000  Uiso   1.00
N181   N     0.53632   0.55673   0.85005   0.00000  Uiso   1.00
N182   N     0.57687   0.25890   0.59163   0.00000  Uiso   1.00
N183   N     0.85685   0.44862   0.69553   0.00000  Uiso   1.00
N184   N     0.53967   0.58514   0.74180   0.00000  Uiso   1.00
C185   C     0.39996   0.84587   0.04409   0.00000  Uiso   1.00
C186   C     0.36020   0.86728   0.99167   0.00000  Uiso   1.00
C187   C     0.31094   0.88713   0.00789   0.00000  Uiso   1.00
C188   C     0.28043   0.90479   0.95246   0.00000  Uiso   1.00
C189   C     0.21592   0.93833   0.88159   0.00000  Uiso   1.00
C190   C     0.41248   0.79011   0.02030   0.00000  Uiso   1.00
C191   C     0.40719   0.74508   0.06061   0.00000  Uiso   1.00
C192   C     0.42069   0.69778   0.02928   0.00000  Uiso   1.00
C193   C     0.43739   0.61152   0.00287   0.00000  Uiso   1.00
C194   C     0.45010   0.87753   0.03305   0.00000  Uiso   1.00
C195   C     0.47644   0.90600   0.08408   0.00000  Uiso   1.00
C196   C     0.52163   0.93230   0.06349   0.00000  Uiso   1.00
C197   C     0.59673   0.98177   0.05688   0.00000  Uiso   1.00
C198   C     0.43338   0.84194   0.91679   0.00000  Uiso   1.00
C199   C     0.37835   0.86514   0.92253   0.00000  Uiso   1.00
C200   C     0.34791   0.88278   0.86706   0.00000  Uiso   1.00
C201   C     0.29861   0.90265   0.88320   0.00000  Uiso   1.00
C202   C     0.43063   0.78797   0.95116   0.00000  Uiso   1.00
C203   C     0.44415   0.74073   0.91977   0.00000  Uiso   1.00
C204   C     0.43888   0.69564   0.96001   0.00000  Uiso   1.00
C205   C     0.46825   0.87539   0.96391   0.00000  Uiso   1.00
C206   C     0.51341   0.90165   0.94324   0.00000  Uiso   1.00
C207   C     0.53981   0.93015   0.99422   0.00000  Uiso   1.00
H208   H     0.38583   0.84753   0.09791   0.00000  Uiso   1.00
H209   H     0.29691   0.88877   0.06141   0.00000  Uiso   1.00
H210   H     0.39315   0.74675   0.11411   0.00000  Uiso   1.00
H211   H     0.46239   0.90765   0.13758   0.00000  Uiso   1.00
H212   H     0.20631   0.93354   0.99043   0.00000  Uiso   1.00
H213   H     0.40925   0.63407   0.10157   0.00000  Uiso   1.00
H214   H     0.55526   0.97335   0.15106   0.00000  Uiso   1.00
H215   H     0.44751   0.84027   0.86296   0.00000  Uiso   1.00
H216   H     0.36196   0.88112   0.81356   0.00000  Uiso   1.00
H217   H     0.45820   0.73909   0.86626   0.00000  Uiso   1.00
H218   H     0.52744   0.89998   0.88973   0.00000  Uiso   1.00
H219   H     0.25911   0.92732   0.78927   0.00000  Uiso   1.00
H220   H     0.46205   0.62785   0.90041   0.00000  Uiso   1.00
H221   H     0.60806   0.96713   0.94990   0.00000  Uiso   1.00
O222   O     0.17532   0.95741   0.86159   0.00000  Uiso   1.00
O223   O     0.44158   0.56452   0.00741   0.00000  Uiso   1.00
O224   O     0.63313   0.00965   0.07233   0.00000  Uiso   1.00
N225   N     0.23048   0.92648   0.94987   0.00000  Uiso   1.00
N226   N     0.42021   0.64649   0.05378   0.00000  Uiso   1.00
N227   N     0.55673   0.96368   0.10005   0.00000  Uiso   1.00
N228   N     0.25890   0.92313   0.84163   0.00000  Uiso   1.00
N229   N     0.44862   0.64315   0.94553   0.00000  Uiso   1.00
N230   N     0.58514   0.96033   0.99180   0.00000  Uiso   1.00
C231   C     0.89996   0.34587   0.54409   0.00000  Uiso   1.00
C232   C     0.86020   0.36728   0.49167   0.00000  Uiso   1.00
C233   C     0.81094   0.38713   0.50789   0.00000  Uiso   1.00
C234   C     0.78043   0.40479   0.45246   0.00000  Uiso   1.00
C235   C     0.71592   0.43833   0.38159   0.00000  Uiso   1.00
C236   C     0.91248   0.29011   0.52030   0.00000  Uiso   1.00
C237   C     0.90719   0.24508   0.56061   0.00000  Uiso   1.00
C238   C     0.92069   0.19778   0.52928   0.00000  Uiso   1.00
C239   C     0.93739   0.11152   0.50287   0.00000  Uiso   1.00
C240   C     0.95010   0.37753   0.53305   0.00000  Uiso   1.00
C241   C     0.97644   0.40600   0.58408   0.00000  Uiso   1.00
C242   C     0.02163   0.43230   0.56349   0.00000  Uiso   1.00
C243   C     0.09673   0.48177   0.55688   0.00000  Uiso   1.00
C244   C     0.93338   0.34194   0.41679   0.00000  Uiso   1.00
C245   C     0.87835   0.36514   0.42253   0.00000  Uiso   1.00
C246   C     0.84791   0.38278   0.36706   0.00000  Uiso   1.00
C247   C     0.79861   0.40265   0.38320   0.00000  Uiso   1.00
C248   C     0.93063   0.28797   0.45116   0.00000  Uiso   1.00
C249   C     0.94415   0.24073   0.41977   0.00000  Uiso   1.00
C250   C     0.93888   0.19564   0.46001   0.00000  Uiso   1.00
C251   C     0.96825   0.37539   0.46391   0.00000  Uiso   1.00
C252   C     0.01341   0.40165   0.44324   0.00000  Uiso   1.00
C253   C     0.03981   0.43015   0.49422   0.00000  Uiso   1.00
H254   H     0.88583   0.34753   0.59791   0.00000  Uiso   1.00
H255   H     0.79691   0.38877   0.56141   0.00000  Uiso   1.00
H256   H     0.89315   0.24675   0.61411   0.00000  Uiso   1.00
H257   H     0.96239   0.40765   0.63758   0.00000  Uiso   1.00
H258   H     0.70631   0.43354   0.49043   0.00000  Uiso   1.00
H259   H     0.90925   0.13407   0.60157   0.00000  Uiso   1.00
H260   H     0.05526   0.47335   0.65106   0.00000  Uiso   1.00
H261   H     0.94751   0.34027   0.36296   0.00000  Uiso   1.00
H262   H     0.86196   0.38112   0.31356   0.00000  Uiso   1.00
H263   H     0.95820   0.23909   0.36626   0.00000  Uiso   1.00
H264   H     0.02744   0.39998   0.38973   0.00000  Uiso   1.00
H265   H     0.75911   0.42732   0.28927   0.00000  Uiso   1.00
H266   H     0.96205   0.12785   0.40041   0.00000  Uiso   1.00
H267   H     0.10806   0.46713   0.44990   0.00000  Uiso   1.00
O268   O     0.67532   0.45741   0.36159   0.00000  Uiso   1.00
O269   O     0.94158   0.06452   0.50741   0.00000  Uiso   1.00
O270   O     0.13313   0.50965   0.57233   0.00000  Uiso   1.00
N271   N     0.73048   0.42648   0.44987   0.00000  Uiso   1.00
N272   N     0.92021   0.14649   0.55378   0.00000  Uiso   1.00
N273   N     0.05673   0.46368   0.60005   0.00000  Uiso   1.00
N274   N     0.75890   0.42313   0.34163   0.00000  Uiso   1.00
N275   N     0.94862   0.14315   0.44553   0.00000  Uiso   1.00
N276   N     0.08514   0.46033   0.49180   0.00000  Uiso   1.00
C277   C     0.10004   0.65413   0.54409   0.00000  Uiso   1.00
C278   C     0.13980   0.63272   0.49167   0.00000  Uiso   1.00
C279   C     0.18906   0.61287   0.50789   0.00000  Uiso   1.00
C280   C     0.21957   0.59521   0.45246   0.00000  Uiso   1.00
C281   C     0.28408   0.56167   0.38159   0.00000  Uiso   1.00
C282   C     0.08752   0.70989   0.52030   0.00000  Uiso   1.00
C283   C     0.09281   0.75492   0.56061   0.00000  Uiso   1.00
C284   C     0.07931   0.80222   0.52928   0.00000  Uiso   1.00
C285   C     0.06261   0.88848   0.50287   0.00000  Uiso   1.00
C286   C     0.04990   0.62247   0.53305   0.00000  Uiso   1.00
C287   C     0.02356   0.59400   0.58408   0.00000  Uiso   1.00
C288   C     0.97837   0.56770   0.56349   0.00000  Uiso   1.00
C289   C     0.90327   0.51823   0.55688   0.00000  Uiso   1.00
C290   C     0.06662   0.65806   0.41679   0.00000  Uiso   1.00
C291   C     0.12165   0.63486   0.42253   0.00000  Uiso   1.00
C292   C     0.15209   0.61722   0.36706   0.00000  Uiso   1.00
C293   C     0.20139   0.59735   0.38320   0.00000  Uiso   1.00
C294   C     0.06937   0.71203   0.45116   0.00000  Uiso   1.00
C295   C     0.05585   0.75927   0.41977   0.00000  Uiso   1.00
C296   C     0.06112   0.80436   0.46001   0.00000  Uiso   1.00
C297   C     0.03175   0.62461   0.46391   0.00000  Uiso   1.00
C298   C     0.98659   0.59835   0.44324   0.00000  Uiso   1.00
C299   C     0.96019   0.56985   0.49422   0.00000  Uiso   1.00
H300   H     0.11417   0.65247   0.59791   0.00000  Uiso   1.00
H301   H     0.20309   0.61123   0.56141   0.00000  Uiso   1.00
H302   H     0.10685   0.75325   0.61411   0.00000  Uiso   1.00
H303   H     0.03761   0.59235   0.63758   0.00000  Uiso   1.00
H304   H     0.29369   0.56646   0.49043   0.00000  Uiso   1.00
H305   H     0.09075   0.86593   0.60157   0.00000  Uiso   1.00
H306   H     0.94474   0.52665   0.65106   0.00000  Uiso   1.00
H307   H     0.05249   0.65973   0.36296   0.00000  Uiso   1.00
H308   H     0.13804   0.61888   0.31356   0.00000  Uiso   1.00
H309   H     0.04180   0.76091   0.36626   0.00000  Uiso   1.00
H310   H     0.97256   0.60002   0.38973   0.00000  Uiso   1.00
H311   H     0.24089   0.57268   0.28927   0.00000  Uiso   1.00
H312   H     0.03795   0.87215   0.40041   0.00000  Uiso   1.00
H313   H     0.89194   0.53287   0.44990   0.00000  Uiso   1.00
O314   O     0.32468   0.54259   0.36159   0.00000  Uiso   1.00
O315   O     0.05842   0.93548   0.50741   0.00000  Uiso   1.00
O316   O     0.86687   0.49035   0.57233   0.00000  Uiso   1.00
N317   N     0.26952   0.57352   0.44987   0.00000  Uiso   1.00
N318   N     0.07979   0.85351   0.55378   0.00000  Uiso   1.00
N319   N     0.94327   0.53632   0.60005   0.00000  Uiso   1.00
N320   N     0.24110   0.57687   0.34163   0.00000  Uiso   1.00
N321   N     0.05138   0.85685   0.44553   0.00000  Uiso   1.00
N322   N     0.91486   0.53967   0.49180   0.00000  Uiso   1.00
C323   C     0.60004   0.15413   0.04409   0.00000  Uiso   1.00
C324   C     0.63980   0.13272   0.99167   0.00000  Uiso   1.00
C325   C     0.68906   0.11287   0.00789   0.00000  Uiso   1.00
C326   C     0.71957   0.09521   0.95246   0.00000  Uiso   1.00
C327   C     0.78408   0.06167   0.88159   0.00000  Uiso   1.00
C328   C     0.58752   0.20989   0.02030   0.00000  Uiso   1.00
C329   C     0.59281   0.25492   0.06061   0.00000  Uiso   1.00
C330   C     0.57931   0.30222   0.02928   0.00000  Uiso   1.00
C331   C     0.56261   0.38848   0.00287   0.00000  Uiso   1.00
C332   C     0.54990   0.12247   0.03305   0.00000  Uiso   1.00
C333   C     0.52356   0.09400   0.08408   0.00000  Uiso   1.00
C334   C     0.47837   0.06770   0.06349   0.00000  Uiso   1.00
C335   C     0.40327   0.01823   0.05688   0.00000  Uiso   1.00
C336   C     0.56662   0.15806   0.91679   0.00000  Uiso   1.00
C337   C     0.62165   0.13486   0.92253   0.00000  Uiso   1.00
C338   C     0.65209   0.11722   0.86706   0.00000  Uiso   1.00
C339   C     0.70139   0.09735   0.88320   0.00000  Uiso   1.00
C340   C     0.56937   0.21203   0.95116   0.00000  Uiso   1.00
C341   C     0.55585   0.25927   0.91977   0.00000  Uiso   1.00
C342   C     0.56112   0.30436   0.96001   0.00000  Uiso   1.00
C343   C     0.53175   0.12461   0.96391   0.00000  Uiso   1.00
C344   C     0.48659   0.09835   0.94324   0.00000  Uiso   1.00
C345   C     0.46019   0.06985   0.99422   0.00000  Uiso   1.00
H346   H     0.61417   0.15247   0.09791   0.00000  Uiso   1.00
H347   H     0.70309   0.11123   0.06141   0.00000  Uiso   1.00
H348   H     0.60685   0.25325   0.11411   0.00000  Uiso   1.00
H349   H     0.53761   0.09235   0.13758   0.00000  Uiso   1.00
H350   H     0.79369   0.06646   0.99043   0.00000  Uiso   1.00
H351   H     0.59075   0.36593   0.10157   0.00000  Uiso   1.00
H352   H     0.44474   0.02665   0.15106   0.00000  Uiso   1.00
H353   H     0.55249   0.15973   0.86296   0.00000  Uiso   1.00
H354   H     0.63804   0.11888   0.81356   0.00000  Uiso   1.00
H355   H     0.54180   0.26091   0.86626   0.00000  Uiso   1.00
H356   H     0.47256   0.10002   0.88973   0.00000  Uiso   1.00
H357   H     0.74089   0.07268   0.78927   0.00000  Uiso   1.00
H358   H     0.53795   0.37215   0.90041   0.00000  Uiso   1.00
H359   H     0.39194   0.03287   0.94990   0.00000  Uiso   1.00
O360   O     0.82468   0.04259   0.86159   0.00000  Uiso   1.00
O361   O     0.55842   0.43548   0.00741   0.00000  Uiso   1.00
O362   O     0.36687   0.99035   0.07233   0.00000  Uiso   1.00
N363   N     0.76952   0.07352   0.94987   0.00000  Uiso   1.00
N364   N     0.57979   0.35351   0.05378   0.00000  Uiso   1.00
N365   N     0.44327   0.03632   0.10005   0.00000  Uiso   1.00
N366   N     0.74110   0.07687   0.84163   0.00000  Uiso   1.00
N367   N     0.55138   0.35685   0.94553   0.00000  Uiso   1.00
N368   N     0.41486   0.03967   0.99180   0.00000  Uiso   1.00
C369   C     0.65413   0.89996   0.45591   0.00000  Uiso   1.00
C370   C     0.63272   0.86020   0.50833   0.00000  Uiso   1.00
C371   C     0.61287   0.81094   0.49211   0.00000  Uiso   1.00
C372   C     0.59521   0.78043   0.54754   0.00000  Uiso   1.00
C373   C     0.56167   0.71592   0.61841   0.00000  Uiso   1.00
C374   C     0.70989   0.91248   0.47970   0.00000  Uiso   1.00
C375   C     0.75492   0.90719   0.43939   0.00000  Uiso   1.00
C376   C     0.80222   0.92069   0.47072   0.00000  Uiso   1.00
C377   C     0.88848   0.93739   0.49713   0.00000  Uiso   1.00
C378   C     0.62247   0.95010   0.46695   0.00000  Uiso   1.00
C379   C     0.59400   0.97644   0.41592   0.00000  Uiso   1.00
C380   C     0.56770   0.02163   0.43651   0.00000  Uiso   1.00
C381   C     0.51823   0.09673   0.44312   0.00000  Uiso   1.00
C382   C     0.65806   0.93338   0.58321   0.00000  Uiso   1.00
C383   C     0.63486   0.87835   0.57747   0.00000  Uiso   1.00
C384   C     0.61722   0.84791   0.63294   0.00000  Uiso   1.00
C385   C     0.59735   0.79861   0.61680   0.00000  Uiso   1.00
C386   C     0.71203   0.93063   0.54884   0.00000  Uiso   1.00
C387   C     0.75927   0.94415   0.58023   0.00000  Uiso   1.00
C388   C     0.80436   0.93888   0.53999   0.00000  Uiso   1.00
C389   C     0.62461   0.96825   0.53609   0.00000  Uiso   1.00
C390   C     0.59835   0.01341   0.55676   0.00000  Uiso   1.00
C391   C     0.56985   0.03981   0.50578   0.00000  Uiso   1.00
H392   H     0.65247   0.88583   0.40209   0.00000  Uiso   1.00
H393   H     0.61123   0.79691   0.43859   0.00000  Uiso   1.00
H394   H     0.75325   0.89315   0.38589   0.00000  Uiso   1.00
H395   H     0.59235   0.96239   0.36242   0.00000  Uiso   1.00
H396   H     0.56646   0.70631   0.50957   0.00000  Uiso   1.00
H397   H     0.86593   0.90925   0.39843   0.00000  Uiso   1.00
H398   H     0.52665   0.05526   0.34894   0.00000  Uiso   1.00
H399   H     0.65973   0.94751   0.63704   0.00000  Uiso   1.00
H400   H     0.61888   0.86196   0.68644   0.00000  Uiso   1.00
H401   H     0.76091   0.95820   0.63374   0.00000  Uiso   1.00
H402   H     0.60002   0.02744   0.61027   0.00000  Uiso   1.00
H403   H     0.57268   0.75911   0.71073   0.00000  Uiso   1.00
H404   H     0.87215   0.96205   0.59959   0.00000  Uiso   1.00
H405   H     0.53287   0.10806   0.55010   0.00000  Uiso   1.00
O406   O     0.54259   0.67532   0.63841   0.00000  Uiso   1.00
O407   O     0.93548   0.94158   0.49259   0.00000  Uiso   1.00
O408   O     0.49035   0.13313   0.42767   0.00000  Uiso   1.00
N409   N     0.57352   0.73048   0.55013   0.00000  Uiso   1.00
N410   N     0.85351   0.92021   0.44622   0.00000  Uiso   1.00
N411   N     0.53632   0.05673   0.39995   0.00000  Uiso   1.00
N412   N     0.57687   0.75890   0.65837   0.00000  Uiso   1.00
N413   N     0.85685   0.94862   0.55447   0.00000  Uiso   1.00
N414   N     0.53967   0.08514   0.50820   0.00000  Uiso   1.00
C415   C     0.15413   0.39996   0.95591   0.00000  Uiso   1.00
C416   C     0.13272   0.36020   0.00833   0.00000  Uiso   1.00
C417   C     0.11287   0.31094   0.99211   0.00000  Uiso   1.00
C418   C     0.09521   0.28043   0.04754   0.00000  Uiso   1.00
C419   C     0.06167   0.21592   0.11841   0.00000  Uiso   1.00
C420   C     0.20989   0.41248   0.97970   0.00000  Uiso   1.00
C421   C     0.25492   0.40719   0.93939   0.00000  Uiso   1.00
C422   C     0.30222   0.42069   0.97072   0.00000  Uiso   1.00
C423   C     0.38848   0.43739   0.99713   0.00000  Uiso   1.00
C424   C     0.12247   0.45010   0.96695   0.00000  Uiso   1.00
C425   C     0.09400   0.47644   0.91592   0.00000  Uiso   1.00
C426   C     0.06770   0.52163   0.93651   0.00000  Uiso   1.00
C427   C     0.01823   0.59673   0.94312   0.00000  Uiso   1.00
C428   C     0.15806   0.43338   0.08321   0.00000  Uiso   1.00
C429   C     0.13486   0.37835   0.07747   0.00000  Uiso   1.00
C430   C     0.11722   0.34791   0.13294   0.00000  Uiso   1.00
C431   C     0.09735   0.29861   0.11680   0.00000  Uiso   1.00
C432   C     0.21203   0.43063   0.04884   0.00000  Uiso   1.00
C433   C     0.25927   0.44415   0.08023   0.00000  Uiso   1.00
C434   C     0.30436   0.43888   0.03999   0.00000  Uiso   1.00
C435   C     0.12461   0.46825   0.03609   0.00000  Uiso   1.00
C436   C     0.09835   0.51341   0.05676   0.00000  Uiso   1.00
C437   C     0.06985   0.53981   0.00578   0.00000  Uiso   1.00
H438   H     0.15247   0.38583   0.90209   0.00000  Uiso   1.00
H439   H     0.11123   0.29691   0.93859   0.00000  Uiso   1.00
H440   H     0.25325   0.39315   0.88589   0.00000  Uiso   1.00
H441   H     0.09235   0.46239   0.86242   0.00000  Uiso   1.00
H442   H     0.06646   0.20631   0.00957   0.00000  Uiso   1.00
H443   H     0.36593   0.40925   0.89843   0.00000  Uiso   1.00
H444   H     0.02665   0.55526   0.84894   0.00000  Uiso   1.00
H445   H     0.15973   0.44751   0.13704   0.00000  Uiso   1.00
H446   H     0.11888   0.36196   0.18644   0.00000  Uiso   1.00
H447   H     0.26091   0.45820   0.13374   0.00000  Uiso   1.00
H448   H     0.10002   0.52744   0.11027   0.00000  Uiso   1.00
H449   H     0.07268   0.25911   0.21073   0.00000  Uiso   1.00
H450   H     0.37215   0.46205   0.09959   0.00000  Uiso   1.00
H451   H     0.03287   0.60806   0.05010   0.00000  Uiso   1.00
O452   O     0.04259   0.17532   0.13841   0.00000  Uiso   1.00
O453   O     0.43548   0.44158   0.99259   0.00000  Uiso   1.00
O454   O     0.99035   0.63313   0.92767   0.00000  Uiso   1.00
N455   N     0.07352   0.23048   0.05013   0.00000  Uiso   1.00
N456   N     0.35351   0.42021   0.94622   0.00000  Uiso   1.00
N457   N     0.03632   0.55673   0.89995   0.00000  Uiso   1.00
N458   N     0.07687   0.25890   0.15837   0.00000  Uiso   1.00
N459   N     0.35685   0.44862   0.05447   0.00000  Uiso   1.00
N460   N     0.03967   0.58514   0.00820   0.00000  Uiso   1.00
C461   C     0.84587   0.60004   0.95591   0.00000  Uiso   1.00
C462   C     0.86728   0.63980   0.00833   0.00000  Uiso   1.00
C463   C     0.88713   0.68906   0.99211   0.00000  Uiso   1.00
C464   C     0.90479   0.71957   0.04754   0.00000  Uiso   1.00
C465   C     0.93833   0.78408   0.11841   0.00000  Uiso   1.00
C466   C     0.79011   0.58752   0.97970   0.00000  Uiso   1.00
C467   C     0.74508   0.59281   0.93939   0.00000  Uiso   1.00
C468   C     0.69778   0.57931   0.97072   0.00000  Uiso   1.00
C469   C     0.61152   0.56261   0.99713   0.00000  Uiso   1.00
C470   C     0.87753   0.54990   0.96695   0.00000  Uiso   1.00
C471   C     0.90600   0.52356   0.91592   0.00000  Uiso   1.00
C472   C     0.93230   0.47837   0.93651   0.00000  Uiso   1.00
C473   C     0.98177   0.40327   0.94312   0.00000  Uiso   1.00
C474   C     0.84194   0.56662   0.08321   0.00000  Uiso   1.00
C475   C     0.86514   0.62165   0.07747   0.00000  Uiso   1.00
C476   C     0.88278   0.65209   0.13294   0.00000  Uiso   1.00
C477   C     0.90265   0.70139   0.11680   0.00000  Uiso   1.00
C478   C     0.78797   0.56937   0.04884   0.00000  Uiso   1.00
C479   C     0.74073   0.55585   0.08023   0.00000  Uiso   1.00
C480   C     0.69564   0.56112   0.03999   0.00000  Uiso   1.00
C481   C     0.87539   0.53175   0.03609   0.00000  Uiso   1.00
C482   C     0.90165   0.48659   0.05676   0.00000  Uiso   1.00
C483   C     0.93015   0.46019   0.00578   0.00000  Uiso   1.00
H484   H     0.84753   0.61417   0.90209   0.00000  Uiso   1.00
H485   H     0.88877   0.70309   0.93859   0.00000  Uiso   1.00
H486   H     0.74675   0.60685   0.88589   0.00000  Uiso   1.00
H487   H     0.90765   0.53761   0.86242   0.00000  Uiso   1.00
H488   H     0.93354   0.79369   0.00957   0.00000  Uiso   1.00
H489   H     0.63407   0.59075   0.89843   0.00000  Uiso   1.00
H490   H     0.97335   0.44474   0.84894   0.00000  Uiso   1.00
H491   H     0.84027   0.55249   0.13704   0.00000  Uiso   1.00
H492   H     0.88112   0.63804   0.18644   0.00000  Uiso   1.00
H493   H     0.73909   0.54180   0.13374   0.00000  Uiso   1.00
H494   H     0.89998   0.47256   0.11027   0.00000  Uiso   1.00
H495   H     0.92732   0.74089   0.21073   0.00000  Uiso   1.00
H496   H     0.62785   0.53795   0.09959   0.00000  Uiso   1.00
H497   H     0.96713   0.39194   0.05010   0.00000  Uiso   1.00
O498   O     0.95741   0.82468   0.13841   0.00000  Uiso   1.00
O499   O     0.56452   0.55842   0.99259   0.00000  Uiso   1.00
O500   O     0.00965   0.36687   0.92767   0.00000  Uiso   1.00
N501   N     0.92648   0.76952   0.05013   0.00000  Uiso   1.00
N502   N     0.64649   0.57979   0.94622   0.00000  Uiso   1.00
N503   N     0.96368   0.44327   0.89995   0.00000  Uiso   1.00
N504   N     0.92313   0.74110   0.15837   0.00000  Uiso   1.00
N505   N     0.64315   0.55138   0.05447   0.00000  Uiso   1.00
N506   N     0.96033   0.41486   0.00820   0.00000  Uiso   1.00
C507   C     0.34587   0.10004   0.45591   0.00000  Uiso   1.00
C508   C     0.36728   0.13980   0.50833   0.00000  Uiso   1.00
C509   C     0.38713   0.18906   0.49211   0.00000  Uiso   1.00
C510   C     0.40479   0.21957   0.54754   0.00000  Uiso   1.00
C511   C     0.43833   0.28408   0.61841   0.00000  Uiso   1.00
C512   C     0.29011   0.08752   0.47970   0.00000  Uiso   1.00
C513   C     0.24508   0.09281   0.43939   0.00000  Uiso   1.00
C514   C     0.19778   0.07931   0.47072   0.00000  Uiso   1.00
C515   C     0.11152   0.06261   0.49713   0.00000  Uiso   1.00
C516   C     0.37753   0.04990   0.46695   0.00000  Uiso   1.00
C517   C     0.40600   0.02356   0.41592   0.00000  Uiso   1.00
C518   C     0.43230   0.97837   0.43651   0.00000  Uiso   1.00
C519   C     0.48177   0.90327   0.44312   0.00000  Uiso   1.00
C520   C     0.34194   0.06662   0.58321   0.00000  Uiso   1.00
C521   C     0.36514   0.12165   0.57747   0.00000  Uiso   1.00
C522   C     0.38278   0.15209   0.63294   0.00000  Uiso   1.00
C523   C     0.40265   0.20139   0.61680   0.00000  Uiso   1.00
C524   C     0.28797   0.06937   0.54884   0.00000  Uiso   1.00
C525   C     0.24073   0.05585   0.58023   0.00000  Uiso   1.00
C526   C     0.19564   0.06112   0.53999   0.00000  Uiso   1.00
C527   C     0.37539   0.03175   0.53609   0.00000  Uiso   1.00
C528   C     0.40165   0.98659   0.55676   0.00000  Uiso   1.00
C529   C     0.43015   0.96019   0.50578   0.00000  Uiso   1.00
H530   H     0.34753   0.11417   0.40209   0.00000  Uiso   1.00
H531   H     0.38877   0.20309   0.43859   0.00000  Uiso   1.00
H532   H     0.24675   0.10685   0.38589   0.00000  Uiso   1.00
H533   H     0.40765   0.03761   0.36242   0.00000  Uiso   1.00
H534   H     0.43354   0.29369   0.50957   0.00000  Uiso   1.00
H535   H     0.13407   0.09075   0.39843   0.00000  Uiso   1.00
H536   H     0.47335   0.94474   0.34894   0.00000  Uiso   1.00
H537   H     0.34027   0.05249   0.63704   0.00000  Uiso   1.00
H538   H     0.38112   0.13804   0.68644   0.00000  Uiso   1.00
H539   H     0.23909   0.04180   0.63374   0.00000  Uiso   1.00
H540   H     0.39998   0.97256   0.61027   0.00000  Uiso   1.00
H541   H     0.42732   0.24089   0.71073   0.00000  Uiso   1.00
H542   H     0.12785   0.03795   0.59959   0.00000  Uiso   1.00
H543   H     0.46713   0.89194   0.55010   0.00000  Uiso   1.00
O544   O     0.45741   0.32468   0.63841   0.00000  Uiso   1.00
O545   O     0.06452   0.05842   0.49259   0.00000  Uiso   1.00
O546   O     0.50965   0.86687   0.42767   0.00000  Uiso   1.00
N547   N     0.42648   0.26952   0.55013   0.00000  Uiso   1.00
N548   N     0.14649   0.07979   0.44622   0.00000  Uiso   1.00
N549   N     0.46368   0.94327   0.39995   0.00000  Uiso   1.00
N550   N     0.42313   0.24110   0.65837   0.00000  Uiso   1.00
N551   N     0.14315   0.05138   0.55447   0.00000  Uiso   1.00
N552   N     0.46033   0.91486   0.50820   0.00000  Uiso   1.00
C553   C     0.60004   0.65413   0.20591   0.00000  Uiso   1.00
C554   C     0.63980   0.63272   0.25833   0.00000  Uiso   1.00
C555   C     0.68906   0.61287   0.24211   0.00000  Uiso   1.00
C556   C     0.71957   0.59521   0.29754   0.00000  Uiso   1.00
C557   C     0.78408   0.56167   0.36841   0.00000  Uiso   1.00
C558   C     0.58752   0.70989   0.22970   0.00000  Uiso   1.00
C559   C     0.59281   0.75492   0.18939   0.00000  Uiso   1.00
C560   C     0.57931   0.80222   0.22072   0.00000  Uiso   1.00
C561   C     0.56261   0.88848   0.24713   0.00000  Uiso   1.00
C562   C     0.54990   0.62247   0.21695   0.00000  Uiso   1.00
C563   C     0.52356   0.59400   0.16592   0.00000  Uiso   1.00
C564   C     0.47837   0.56770   0.18651   0.00000  Uiso   1.00
C565   C     0.40327   0.51823   0.19312   0.00000  Uiso   1.00
C566   C     0.56662   0.65806   0.33321   0.00000  Uiso   1.00
C567   C     0.62165   0.63486   0.32747   0.00000  Uiso   1.00
C568   C     0.65209   0.61722   0.38294   0.00000  Uiso   1.00
C569   C     0.70139   0.59735   0.36680   0.00000  Uiso   1.00
C570   C     0.56937   0.71203   0.29884   0.00000  Uiso   1.00
C571   C     0.55585   0.75927   0.33023   0.00000  Uiso   1.00
C572   C     0.56112   0.80436   0.28999   0.00000  Uiso   1.00
C573   C     0.53175   0.62461   0.28609   0.00000  Uiso   1.00
C574   C     0.48659   0.59835   0.30676   0.00000  Uiso   1.00
C575   C     0.46019   0.56985   0.25578   0.00000  Uiso   1.00
H576   H     0.61417   0.65247   0.15209   0.00000  Uiso   1.00
H577   H     0.70309   0.61123   0.18859   0.00000  Uiso   1.00
H578   H     0.60685   0.75325   0.13589   0.00000  Uiso   1.00
H579   H     0.53761   0.59235   0.11242   0.00000  Uiso   1.00
H580   H     0.79369   0.56646   0.25957   0.00000  Uiso   1.00
H581   H     0.59075   0.86593   0.14843   0.00000  Uiso   1.00
H582   H     0.44474   0.52665   0.09894   0.00000  Uiso   1.00
H583   H     0.55249   0.65973   0.38704   0.00000  Uiso   1.00
H584   H     0.63804   0.61888   0.43644   0.00000  Uiso   1.00
H585   H     0.54180   0.76091   0.38374   0.00000  Uiso   1.00
H586   H     0.47256   0.60002   0.36027   0.00000  Uiso   1.00
H587   H     0.74089   0.57268   0.46073   0.00000  Uiso   1.00
H588   H     0.53795   0.87215   0.34959   0.00000  Uiso   1.00
H589   H     0.39194   0.53287   0.30010   0.00000  Uiso   1.00
O590   O     0.82468   0.54259   0.38841   0.00000  Uiso   1.00
O591   O     0.55842   0.93548   0.24259   0.00000  Uiso   1.00
O592   O     0.36687   0.49035   0.17767   0.00000  Uiso   1.00
N593   N     0.76952   0.57352   0.30013   0.00000  Uiso   1.00
N594   N     0.57979   0.85351   0.19622   0.00000  Uiso   1.00
N595   N     0.44327   0.53632   0.14995   0.00000  Uiso   1.00
N596   N     0.74110   0.57687   0.40837   0.00000  Uiso   1.00
N597   N     0.55138   0.85685   0.30447   0.00000  Uiso   1.00
N598   N     0.41486   0.53967   0.25820   0.00000  Uiso   1.00
C599   C     0.10004   0.15413   0.70591   0.00000  Uiso   1.00
C600   C     0.13980   0.13272   0.75833   0.00000  Uiso   1.00
C601   C     0.18906   0.11287   0.74211   0.00000  Uiso   1.00
C602   C     0.21957   0.09521   0.79754   0.00000  Uiso   1.00
C603   C     0.28408   0.06167   0.86841   0.00000  Uiso   1.00
C604   C     0.08752   0.20989   0.72970   0.00000  Uiso   1.00
C605   C     0.09281   0.25492   0.68939   0.00000  Uiso   1.00
C606   C     0.07931   0.30222   0.72072   0.00000  Uiso   1.00
C607   C     0.06261   0.38848   0.74713   0.00000  Uiso   1.00
C608   C     0.04990   0.12247   0.71695   0.00000  Uiso   1.00
C609   C     0.02356   0.09400   0.66592   0.00000  Uiso   1.00
C610   C     0.97837   0.06770   0.68651   0.00000  Uiso   1.00
C611   C     0.90327   0.01823   0.69312   0.00000  Uiso   1.00
C612   C     0.06662   0.15806   0.83321   0.00000  Uiso   1.00
C613   C     0.12165   0.13486   0.82747   0.00000  Uiso   1.00
C614   C     0.15209   0.11722   0.88294   0.00000  Uiso   1.00
C615   C     0.20139   0.09735   0.86680   0.00000  Uiso   1.00
C616   C     0.06937   0.21203   0.79884   0.00000  Uiso   1.00
C617   C     0.05585   0.25927   0.83023   0.00000  Uiso   1.00
C618   C     0.06112   0.30436   0.78999   0.00000  Uiso   1.00
C619   C     0.03175   0.12461   0.78609   0.00000  Uiso   1.00
C620   C     0.98659   0.09835   0.80676   0.00000  Uiso   1.00
C621   C     0.96019   0.06985   0.75578   0.00000  Uiso   1.00
H622   H     0.11417   0.15247   0.65209   0.00000  Uiso   1.00
H623   H     0.20309   0.11123   0.68859   0.00000  Uiso   1.00
H624   H     0.10685   0.25325   0.63589   0.00000  Uiso   1.00
H625   H     0.03761   0.09235   0.61242   0.00000  Uiso   1.00
H626   H     0.29369   0.06646   0.75957   0.00000  Uiso   1.00
H627   H     0.09075   0.36593   0.64843   0.00000  Uiso   1.00
H628   H     0.94474   0.02665   0.59894   0.00000  Uiso   1.00
H629   H     0.05249   0.15973   0.88704   0.00000  Uiso   1.00
H630   H     0.13804   0.11888   0.93644   0.00000  Uiso   1.00
H631   H     0.04180   0.26091   0.88374   0.00000  Uiso   1.00
H632   H     0.97256   0.10002   0.86027   0.00000  Uiso   1.00
H633   H     0.24089   0.07268   0.96073   0.00000  Uiso   1.00
H634   H     0.03795   0.37215   0.84959   0.00000  Uiso   1.00
H635   H     0.89194   0.03287   0.80010   0.00000  Uiso   1.00
O636   O     0.32468   0.04259   0.88841   0.00000  Uiso   1.00
O637   O     0.05842   0.43548   0.74259   0.00000  Uiso   1.00
O638   O     0.86687   0.99035   0.67767   0.00000  Uiso   1.00
N639   N     0.26952   0.07352   0.80013   0.00000  Uiso   1.00
N640   N     0.07979   0.35351   0.69622   0.00000  Uiso   1.00
N641   N     0.94327   0.03632   0.64995   0.00000  Uiso   1.00
N642   N     0.24110   0.07687   0.90837   0.00000  Uiso   1.00
N643   N     0.05138   0.35685   0.80447   0.00000  Uiso   1.00
N644   N     0.91486   0.03967   0.75820   0.00000  Uiso   1.00
C645   C     0.89996   0.84587   0.70591   0.00000  Uiso   1.00
C646   C     0.86020   0.86728   0.75833   0.00000  Uiso   1.00
C647   C     0.81094   0.88713   0.74211   0.00000  Uiso   1.00
C648   C     0.78043   0.90479   0.79754   0.00000  Uiso   1.00
C649   C     0.71592   0.93833   0.86841   0.00000  Uiso   1.00
C650   C     0.91248   0.79011   0.72970   0.00000  Uiso   1.00
C651   C     0.90719   0.74508   0.68939   0.00000  Uiso   1.00
C652   C     0.92069   0.69778   0.72072   0.00000  Uiso   1.00
C653   C     0.93739   0.61152   0.74713   0.00000  Uiso   1.00
C654   C     0.95010   0.87753   0.71695   0.00000  Uiso   1.00
C655   C     0.97644   0.90600   0.66592   0.00000  Uiso   1.00
C656   C     0.02163   0.93230   0.68651   0.00000  Uiso   1.00
C657   C     0.09673   0.98177   0.69312   0.00000  Uiso   1.00
C658   C     0.93338   0.84194   0.83321   0.00000  Uiso   1.00
C659   C     0.87835   0.86514   0.82747   0.00000  Uiso   1.00
C660   C     0.84791   0.88278   0.88294   0.00000  Uiso   1.00
C661   C     0.79861   0.90265   0.86680   0.00000  Uiso   1.00
C662   C     0.93063   0.78797   0.79884   0.00000  Uiso   1.00
C663   C     0.94415   0.74073   0.83023   0.00000  Uiso   1.00
C664   C     0.93888   0.69564   0.78999   0.00000  Uiso   1.00
C665   C     0.96825   0.87539   0.78609   0.00000  Uiso   1.00
C666   C     0.01341   0.90165   0.80676   0.00000  Uiso   1.00
C667   C     0.03981   0.93015   0.75578   0.00000  Uiso   1.00
H668   H     0.88583   0.84753   0.65209   0.00000  Uiso   1.00
H669   H     0.79691   0.88877   0.68859   0.00000  Uiso   1.00
H670   H     0.89315   0.74675   0.63589   0.00000  Uiso   1.00
H671   H     0.96239   0.90765   0.61242   0.00000  Uiso   1.00
H672   H     0.70631   0.93354   0.75957   0.00000  Uiso   1.00
H673   H     0.90925   0.63407   0.64843   0.00000  Uiso   1.00
H674   H     0.05526   0.97335   0.59894   0.00000  Uiso   1.00
H675   H     0.94751   0.84027   0.88704   0.00000  Uiso   1.00
H676   H     0.86196   0.88112   0.93644   0.00000  Uiso   1.00
H677   H     0.95820   0.73909   0.88374   0.00000  Uiso   1.00
H678   H     0.02744   0.89998   0.86027   0.00000  Uiso   1.00
H679   H     0.75911   0.92732   0.96073   0.00000  Uiso   1.00
H680   H     0.96205   0.62785   0.84959   0.00000  Uiso   1.00
H681   H     0.10806   0.96713   0.80010   0.00000  Uiso   1.00
O682   O     0.67532   0.95741   0.88841   0.00000  Uiso   1.00
O683   O     0.94158   0.56452   0.74259   0.00000  Uiso   1.00
O684   O     0.13313   0.00965   0.67767   0.00000  Uiso   1.00
N685   N     0.73048   0.92648   0.80013   0.00000  Uiso   1.00
N686   N     0.92021   0.64649   0.69622   0.00000  Uiso   1.00
N687   N     0.05673   0.96368   0.64995   0.00000  Uiso   1.00
N688   N     0.75890   0.92313   0.90837   0.00000  Uiso   1.00
N689   N     0.94862   0.64315   0.80447   0.00000  Uiso   1.00
N690   N     0.08514   0.96033   0.75820   0.00000  Uiso   1.00
C691   C     0.39996   0.34587   0.20591   0.00000  Uiso   1.00
C692   C     0.36020   0.36728   0.25833   0.00000  Uiso   1.00
C693   C     0.31094   0.38713   0.24211   0.00000  Uiso   1.00
C694   C     0.28043   0.40479   0.29754   0.00000  Uiso   1.00
C695   C     0.21592   0.43833   0.36841   0.00000  Uiso   1.00
C696   C     0.41248   0.29011   0.22970   0.00000  Uiso   1.00
C697   C     0.40719   0.24508   0.18939   0.00000  Uiso   1.00
C698   C     0.42069   0.19778   0.22072   0.00000  Uiso   1.00
C699   C     0.43739   0.11152   0.24713   0.00000  Uiso   1.00
C700   C     0.45010   0.37753   0.21695   0.00000  Uiso   1.00
C701   C     0.47644   0.40600   0.16592   0.00000  Uiso   1.00
C702   C     0.52163   0.43230   0.18651   0.00000  Uiso   1.00
C703   C     0.59673   0.48177   0.19312   0.00000  Uiso   1.00
C704   C     0.43338   0.34194   0.33321   0.00000  Uiso   1.00
C705   C     0.37835   0.36514   0.32747   0.00000  Uiso   1.00
C706   C     0.34791   0.38278   0.38294   0.00000  Uiso   1.00
C707   C     0.29861   0.40265   0.36680   0.00000  Uiso   1.00
C708   C     0.43063   0.28797   0.29884   0.00000  Uiso   1.00
C709   C     0.44415   0.24073   0.33023   0.00000  Uiso   1.00
C710   C     0.43888   0.19564   0.28999   0.00000  Uiso   1.00
C711   C     0.46825   0.37539   0.28609   0.00000  Uiso   1.00
C712   C     0.51341   0.40165   0.30676   0.00000  Uiso   1.00
C713   C     0.53981   0.43015   0.25578   0.00000  Uiso   1.00
H714   H     0.38583   0.34753   0.15209   0.00000  Uiso   1.00
H715   H     0.29691   0.38877   0.18859   0.00000  Uiso   1.00
H716   H     0.39315   0.24675   0.13589   0.00000  Uiso   1.00
H717   H     0.46239   0.40765   0.11242   0.00000  Uiso   1.00
H718   H     0.20631   0.43354   0.25957   0.00000  Uiso   1.00
H719   H     0.40925   0.13407   0.14843   0.00000  Uiso   1.00
H720   H     0.55526   0.47335   0.09894   0.00000  Uiso   1.00
H721   H     0.44751   0.34027   0.38704   0.00000  Uiso   1.00
H722   H     0.36196   0.38112   0.43644   0.00000  Uiso   1.00
H723   H     0.45820   0.23909   0.38374   0.00000  Uiso   1.00
H724   H     0.52744   0.39998   0.36027   0.00000  Uiso   1.00
H725   H     0.25911   0.42732   0.46073   0.00000  Uiso   1.00
H726   H     0.46205   0.12785   0.34959   0.00000  Uiso   1.00
H727   H     0.60806   0.46713   0.30010   0.00000  Uiso   1.00
O728   O     0.17532   0.45741   0.38841   0.00000  Uiso   1.00
O729   O     0.44158   0.06452   0.24259   0.00000  Uiso   1.00
O730   O     0.63313   0.50965   0.17767   0.00000  Uiso   1.00
N731   N     0.23048   0.42648   0.30013   0.00000  Uiso   1.00
N732   N     0.42021   0.14649   0.19622   0.00000  Uiso   1.00
N733   N     0.55673   0.46368   0.14995   0.00000  Uiso   1.00
N734   N     0.25890   0.42313   0.40837   0.00000  Uiso   1.00
N735   N     0.44862   0.14315   0.30447   0.00000  Uiso   1.00
N736   N     0.58514   0.46033   0.25820   0.00000  Uiso   1.00
