data_job_03802
_audit_creation_date              2018-12-19
_audit_creation_method            'Materials Studio'
_symmetry_space_group_name_H-M    'P1'
_symmetry_Int_Tables_number       1
_symmetry_cell_setting            triclinic
loop_
_symmetry_equiv_pos_as_xyz
  x,y,z
_cell_length_a                    27.0604
_cell_length_b                    45.6412
_cell_length_c                    8.3039
_cell_angle_alpha                 90.0000
_cell_angle_beta                  90.0000
_cell_angle_gamma                 90.0000
loop_
_atom_site_label
_atom_site_type_symbol
_atom_site_fract_x
_atom_site_fract_y
_atom_site_fract_z
_atom_site_U_iso_or_equiv
_atom_site_adp_type
_atom_site_occupancy
C1     C     0.15780   0.53588   0.50738   0.00000  Uiso   1.00
C2     C     0.18838   0.55168   0.63490   0.00000  Uiso   1.00
C3     C     0.23936   0.55499   0.63326   0.00000  Uiso   1.00
C4     C     0.26036   0.57016   0.76100   0.00000  Uiso   1.00
C5     C     0.31224   0.59296   0.93997   0.00000  Uiso   1.00
C6     C     0.11979   0.55807   0.44811   0.00000  Uiso   1.00
C7     C     0.11310   0.56675   0.28943   0.00000  Uiso   1.00
C8     C     0.07636   0.58730   0.25994   0.00000  Uiso   1.00
C9     C     0.02174   0.62000   0.14891   0.00000  Uiso   1.00
C10    C     0.12868   0.51233   0.59659   0.00000  Uiso   1.00
C11    C     0.12944   0.48256   0.56272   0.00000  Uiso   1.00
C12    C     0.10017   0.46460   0.65822   0.00000  Uiso   1.00
C13    C     0.05935   0.42630   0.77772   0.00000  Uiso   1.00
C14    C     0.10446   0.55694   0.73716   0.00000  Uiso   1.00
C15    C     0.15940   0.56311   0.75970   0.00000  Uiso   1.00
C16    C     0.18033   0.57828   0.88748   0.00000  Uiso   1.00
C17    C     0.23133   0.58161   0.88604   0.00000  Uiso   1.00
C18    C     0.09082   0.56950   0.57291   0.00000  Uiso   1.00
C19    C     0.05408   0.59004   0.54365   0.00000  Uiso   1.00
C20    C     0.04733   0.59875   0.38496   0.00000  Uiso   1.00
C21    C     0.09970   0.52377   0.72140   0.00000  Uiso   1.00
C22    C     0.07042   0.50585   0.81695   0.00000  Uiso   1.00
C23    C     0.07114   0.47606   0.78324   0.00000  Uiso   1.00
H24    H     0.18036   0.52698   0.41021   0.00000  Uiso   1.00
H25    H     0.26177   0.54614   0.53665   0.00000  Uiso   1.00
H26    H     0.13553   0.55790   0.19287   0.00000  Uiso   1.00
H27    H     0.15187   0.47372   0.46614   0.00000  Uiso   1.00
H28    H     0.33924   0.57243   0.73183   0.00000  Uiso   1.00
H29    H     0.07305   0.59721   0.00696   0.00000  Uiso   1.00
H30    H     0.10751   0.41971   0.58317   0.00000  Uiso   1.00
H31    H     0.08190   0.56584   0.83432   0.00000  Uiso   1.00
H32    H     0.15790   0.58713   0.98404   0.00000  Uiso   1.00
H33    H     0.03166   0.59888   0.64025   0.00000  Uiso   1.00
H34    H     0.04800   0.51471   0.91352   0.00000  Uiso   1.00
H35    H     0.25494   0.60570   0.09495   0.00000  Uiso   1.00
H36    H     0.98874   0.63048   0.37006   0.00000  Uiso   1.00
H37    H     0.02320   0.45298   0.94629   0.00000  Uiso   1.00
O38    O     0.34887   0.60238   0.00420   0.00000  Uiso   1.00
O39    O     0.99962   0.63488   0.05318   0.00000  Uiso   1.00
O40    O     0.04483   0.40201   0.80917   0.00000  Uiso   1.00
N41    N     0.30897   0.57733   0.79677   0.00000  Uiso   1.00
N42    N     0.06010   0.60051   0.11905   0.00000  Uiso   1.00
N43    N     0.09231   0.43456   0.65774   0.00000  Uiso   1.00
N44    N     0.26361   0.59523   0.99215   0.00000  Uiso   1.00
N45    N     0.01474   0.61841   0.31444   0.00000  Uiso   1.00
N46    N     0.04694   0.45246   0.85313   0.00000  Uiso   1.00
C47    C     0.15780   0.03588   0.00738   0.00000  Uiso   1.00
C48    C     0.18838   0.05168   0.13490   0.00000  Uiso   1.00
C49    C     0.23936   0.05499   0.13326   0.00000  Uiso   1.00
C50    C     0.26036   0.07016   0.26100   0.00000  Uiso   1.00
C51    C     0.31224   0.09296   0.43997   0.00000  Uiso   1.00
C52    C     0.11979   0.05807   0.94811   0.00000  Uiso   1.00
C53    C     0.11310   0.06675   0.78943   0.00000  Uiso   1.00
C54    C     0.07636   0.08730   0.75994   0.00000  Uiso   1.00
C55    C     0.02174   0.12000   0.64891   0.00000  Uiso   1.00
C56    C     0.12868   0.01233   0.09659   0.00000  Uiso   1.00
C57    C     0.12944   0.98256   0.06272   0.00000  Uiso   1.00
C58    C     0.10017   0.96460   0.15822   0.00000  Uiso   1.00
C59    C     0.05935   0.92630   0.27772   0.00000  Uiso   1.00
C60    C     0.10446   0.05694   0.23716   0.00000  Uiso   1.00
C61    C     0.15940   0.06311   0.25970   0.00000  Uiso   1.00
C62    C     0.18033   0.07828   0.38748   0.00000  Uiso   1.00
C63    C     0.23133   0.08161   0.38604   0.00000  Uiso   1.00
C64    C     0.09082   0.06950   0.07291   0.00000  Uiso   1.00
C65    C     0.05408   0.09004   0.04365   0.00000  Uiso   1.00
C66    C     0.04733   0.09875   0.88496   0.00000  Uiso   1.00
C67    C     0.09970   0.02377   0.22140   0.00000  Uiso   1.00
C68    C     0.07042   0.00585   0.31695   0.00000  Uiso   1.00
C69    C     0.07114   0.97606   0.28324   0.00000  Uiso   1.00
H70    H     0.18036   0.02698   0.91021   0.00000  Uiso   1.00
H71    H     0.26177   0.04614   0.03665   0.00000  Uiso   1.00
H72    H     0.13553   0.05790   0.69287   0.00000  Uiso   1.00
H73    H     0.15187   0.97372   0.96614   0.00000  Uiso   1.00
H74    H     0.33924   0.07243   0.23183   0.00000  Uiso   1.00
H75    H     0.07305   0.09721   0.50696   0.00000  Uiso   1.00
H76    H     0.10751   0.91971   0.08317   0.00000  Uiso   1.00
H77    H     0.08190   0.06584   0.33432   0.00000  Uiso   1.00
H78    H     0.15790   0.08713   0.48404   0.00000  Uiso   1.00
H79    H     0.03166   0.09888   0.14025   0.00000  Uiso   1.00
H80    H     0.04800   0.01471   0.41352   0.00000  Uiso   1.00
H81    H     0.25494   0.10570   0.59495   0.00000  Uiso   1.00
H82    H     0.98874   0.13048   0.87006   0.00000  Uiso   1.00
H83    H     0.02320   0.95298   0.44629   0.00000  Uiso   1.00
O84    O     0.34887   0.10238   0.50420   0.00000  Uiso   1.00
O85    O     0.99962   0.13488   0.55318   0.00000  Uiso   1.00
O86    O     0.04483   0.90201   0.30917   0.00000  Uiso   1.00
N87    N     0.30897   0.07733   0.29677   0.00000  Uiso   1.00
N88    N     0.06010   0.10051   0.61905   0.00000  Uiso   1.00
N89    N     0.09231   0.93456   0.15774   0.00000  Uiso   1.00
N90    N     0.26361   0.09523   0.49215   0.00000  Uiso   1.00
N91    N     0.01474   0.11841   0.81444   0.00000  Uiso   1.00
N92    N     0.04694   0.95246   0.35313   0.00000  Uiso   1.00
C93    C     0.65780   0.53588   0.00738   0.00000  Uiso   1.00
C94    C     0.68838   0.55168   0.13490   0.00000  Uiso   1.00
C95    C     0.73936   0.55499   0.13326   0.00000  Uiso   1.00
C96    C     0.76036   0.57016   0.26100   0.00000  Uiso   1.00
C97    C     0.81224   0.59296   0.43997   0.00000  Uiso   1.00
C98    C     0.61979   0.55807   0.94811   0.00000  Uiso   1.00
C99    C     0.61310   0.56675   0.78943   0.00000  Uiso   1.00
C100   C     0.57636   0.58730   0.75994   0.00000  Uiso   1.00
C101   C     0.52174   0.62000   0.64891   0.00000  Uiso   1.00
C102   C     0.62868   0.51233   0.09659   0.00000  Uiso   1.00
C103   C     0.62944   0.48256   0.06272   0.00000  Uiso   1.00
C104   C     0.60017   0.46460   0.15822   0.00000  Uiso   1.00
C105   C     0.55935   0.42630   0.27772   0.00000  Uiso   1.00
C106   C     0.60446   0.55694   0.23716   0.00000  Uiso   1.00
C107   C     0.65940   0.56311   0.25970   0.00000  Uiso   1.00
C108   C     0.68033   0.57828   0.38748   0.00000  Uiso   1.00
C109   C     0.73133   0.58161   0.38604   0.00000  Uiso   1.00
C110   C     0.59082   0.56950   0.07291   0.00000  Uiso   1.00
C111   C     0.55408   0.59004   0.04365   0.00000  Uiso   1.00
C112   C     0.54733   0.59875   0.88496   0.00000  Uiso   1.00
C113   C     0.59970   0.52377   0.22140   0.00000  Uiso   1.00
C114   C     0.57042   0.50585   0.31695   0.00000  Uiso   1.00
C115   C     0.57114   0.47606   0.28324   0.00000  Uiso   1.00
H116   H     0.68036   0.52698   0.91021   0.00000  Uiso   1.00
H117   H     0.76177   0.54614   0.03665   0.00000  Uiso   1.00
H118   H     0.63553   0.55790   0.69287   0.00000  Uiso   1.00
H119   H     0.65187   0.47372   0.96614   0.00000  Uiso   1.00
H120   H     0.83924   0.57243   0.23183   0.00000  Uiso   1.00
H121   H     0.57305   0.59721   0.50696   0.00000  Uiso   1.00
H122   H     0.60751   0.41971   0.08317   0.00000  Uiso   1.00
H123   H     0.58190   0.56584   0.33432   0.00000  Uiso   1.00
H124   H     0.65790   0.58713   0.48404   0.00000  Uiso   1.00
H125   H     0.53166   0.59888   0.14025   0.00000  Uiso   1.00
H126   H     0.54800   0.51471   0.41352   0.00000  Uiso   1.00
H127   H     0.75494   0.60570   0.59495   0.00000  Uiso   1.00
H128   H     0.48874   0.63048   0.87006   0.00000  Uiso   1.00
H129   H     0.52320   0.45298   0.44629   0.00000  Uiso   1.00
O130   O     0.84887   0.60238   0.50420   0.00000  Uiso   1.00
O131   O     0.49962   0.63488   0.55318   0.00000  Uiso   1.00
O132   O     0.54483   0.40201   0.30917   0.00000  Uiso   1.00
N133   N     0.80897   0.57733   0.29677   0.00000  Uiso   1.00
N134   N     0.56010   0.60051   0.61905   0.00000  Uiso   1.00
N135   N     0.59231   0.43456   0.15774   0.00000  Uiso   1.00
N136   N     0.76361   0.59523   0.49215   0.00000  Uiso   1.00
N137   N     0.51474   0.61841   0.81444   0.00000  Uiso   1.00
N138   N     0.54694   0.45246   0.35313   0.00000  Uiso   1.00
C139   C     0.65780   0.03588   0.50738   0.00000  Uiso   1.00
C140   C     0.68838   0.05168   0.63490   0.00000  Uiso   1.00
C141   C     0.73936   0.05499   0.63326   0.00000  Uiso   1.00
C142   C     0.76036   0.07016   0.76100   0.00000  Uiso   1.00
C143   C     0.81224   0.09296   0.93997   0.00000  Uiso   1.00
C144   C     0.61979   0.05807   0.44811   0.00000  Uiso   1.00
C145   C     0.61310   0.06675   0.28943   0.00000  Uiso   1.00
C146   C     0.57636   0.08730   0.25994   0.00000  Uiso   1.00
C147   C     0.52174   0.12000   0.14891   0.00000  Uiso   1.00
C148   C     0.62868   0.01233   0.59659   0.00000  Uiso   1.00
C149   C     0.62944   0.98256   0.56272   0.00000  Uiso   1.00
C150   C     0.60017   0.96460   0.65822   0.00000  Uiso   1.00
C151   C     0.55935   0.92630   0.77772   0.00000  Uiso   1.00
C152   C     0.60446   0.05694   0.73716   0.00000  Uiso   1.00
C153   C     0.65940   0.06311   0.75970   0.00000  Uiso   1.00
C154   C     0.68033   0.07828   0.88748   0.00000  Uiso   1.00
C155   C     0.73133   0.08161   0.88604   0.00000  Uiso   1.00
C156   C     0.59082   0.06950   0.57291   0.00000  Uiso   1.00
C157   C     0.55408   0.09004   0.54365   0.00000  Uiso   1.00
C158   C     0.54733   0.09875   0.38496   0.00000  Uiso   1.00
C159   C     0.59970   0.02377   0.72140   0.00000  Uiso   1.00
C160   C     0.57042   0.00585   0.81695   0.00000  Uiso   1.00
C161   C     0.57114   0.97606   0.78324   0.00000  Uiso   1.00
H162   H     0.68036   0.02698   0.41021   0.00000  Uiso   1.00
H163   H     0.76177   0.04614   0.53665   0.00000  Uiso   1.00
H164   H     0.63553   0.05790   0.19287   0.00000  Uiso   1.00
H165   H     0.65187   0.97372   0.46614   0.00000  Uiso   1.00
H166   H     0.83924   0.07243   0.73183   0.00000  Uiso   1.00
H167   H     0.57305   0.09721   0.00696   0.00000  Uiso   1.00
H168   H     0.60751   0.91971   0.58317   0.00000  Uiso   1.00
H169   H     0.58190   0.06584   0.83432   0.00000  Uiso   1.00
H170   H     0.65790   0.08713   0.98404   0.00000  Uiso   1.00
H171   H     0.53166   0.09888   0.64025   0.00000  Uiso   1.00
H172   H     0.54800   0.01471   0.91352   0.00000  Uiso   1.00
H173   H     0.75494   0.10570   0.09495   0.00000  Uiso   1.00
H174   H     0.48874   0.13048   0.37006   0.00000  Uiso   1.00
H175   H     0.52320   0.95298   0.94629   0.00000  Uiso   1.00
O176   O     0.84887   0.10238   0.00420   0.00000  Uiso   1.00
O177   O     0.49962   0.13488   0.05318   0.00000  Uiso   1.00
O178   O     0.54483   0.90201   0.80917   0.00000  Uiso   1.00
N179   N     0.80897   0.07733   0.79677   0.00000  Uiso   1.00
N180   N     0.56010   0.10051   0.11905   0.00000  Uiso   1.00
N181   N     0.59231   0.93456   0.65774   0.00000  Uiso   1.00
N182   N     0.76361   0.09523   0.99215   0.00000  Uiso   1.00
N183   N     0.51474   0.11841   0.31444   0.00000  Uiso   1.00
N184   N     0.54694   0.95246   0.85313   0.00000  Uiso   1.00
C185   C     0.84220   0.46412   0.50738   0.00000  Uiso   1.00
C186   C     0.81162   0.44832   0.63490   0.00000  Uiso   1.00
C187   C     0.76064   0.44501   0.63326   0.00000  Uiso   1.00
C188   C     0.73964   0.42984   0.76100   0.00000  Uiso   1.00
C189   C     0.68776   0.40704   0.93997   0.00000  Uiso   1.00
C190   C     0.88021   0.44193   0.44811   0.00000  Uiso   1.00
C191   C     0.88690   0.43325   0.28943   0.00000  Uiso   1.00
C192   C     0.92364   0.41270   0.25994   0.00000  Uiso   1.00
C193   C     0.97826   0.38000   0.14891   0.00000  Uiso   1.00
C194   C     0.87132   0.48767   0.59659   0.00000  Uiso   1.00
C195   C     0.87056   0.51744   0.56272   0.00000  Uiso   1.00
C196   C     0.89983   0.53540   0.65822   0.00000  Uiso   1.00
C197   C     0.94065   0.57370   0.77772   0.00000  Uiso   1.00
C198   C     0.89554   0.44306   0.73716   0.00000  Uiso   1.00
C199   C     0.84060   0.43689   0.75970   0.00000  Uiso   1.00
C200   C     0.81967   0.42172   0.88748   0.00000  Uiso   1.00
C201   C     0.76867   0.41839   0.88604   0.00000  Uiso   1.00
C202   C     0.90918   0.43050   0.57291   0.00000  Uiso   1.00
C203   C     0.94592   0.40996   0.54365   0.00000  Uiso   1.00
C204   C     0.95267   0.40125   0.38496   0.00000  Uiso   1.00
C205   C     0.90030   0.47623   0.72140   0.00000  Uiso   1.00
C206   C     0.92958   0.49415   0.81695   0.00000  Uiso   1.00
C207   C     0.92886   0.52394   0.78324   0.00000  Uiso   1.00
H208   H     0.81964   0.47302   0.41021   0.00000  Uiso   1.00
H209   H     0.73823   0.45386   0.53665   0.00000  Uiso   1.00
H210   H     0.86447   0.44210   0.19287   0.00000  Uiso   1.00
H211   H     0.84813   0.52628   0.46614   0.00000  Uiso   1.00
H212   H     0.66076   0.42757   0.73183   0.00000  Uiso   1.00
H213   H     0.92695   0.40279   0.00696   0.00000  Uiso   1.00
H214   H     0.89249   0.58029   0.58317   0.00000  Uiso   1.00
H215   H     0.91810   0.43416   0.83432   0.00000  Uiso   1.00
H216   H     0.84210   0.41287   0.98404   0.00000  Uiso   1.00
H217   H     0.96834   0.40112   0.64025   0.00000  Uiso   1.00
H218   H     0.95200   0.48529   0.91352   0.00000  Uiso   1.00
H219   H     0.74506   0.39430   0.09495   0.00000  Uiso   1.00
H220   H     0.01126   0.36952   0.37006   0.00000  Uiso   1.00
H221   H     0.97680   0.54702   0.94629   0.00000  Uiso   1.00
O222   O     0.65113   0.39762   0.00420   0.00000  Uiso   1.00
O223   O     0.00038   0.36512   0.05318   0.00000  Uiso   1.00
O224   O     0.95517   0.59799   0.80917   0.00000  Uiso   1.00
N225   N     0.69103   0.42267   0.79677   0.00000  Uiso   1.00
N226   N     0.93990   0.39949   0.11905   0.00000  Uiso   1.00
N227   N     0.90769   0.56544   0.65774   0.00000  Uiso   1.00
N228   N     0.73639   0.40477   0.99215   0.00000  Uiso   1.00
N229   N     0.98526   0.38159   0.31444   0.00000  Uiso   1.00
N230   N     0.95306   0.54754   0.85313   0.00000  Uiso   1.00
C231   C     0.84220   0.96412   0.00738   0.00000  Uiso   1.00
C232   C     0.81162   0.94832   0.13490   0.00000  Uiso   1.00
C233   C     0.76064   0.94501   0.13326   0.00000  Uiso   1.00
C234   C     0.73964   0.92984   0.26100   0.00000  Uiso   1.00
C235   C     0.68776   0.90704   0.43997   0.00000  Uiso   1.00
C236   C     0.88021   0.94193   0.94811   0.00000  Uiso   1.00
C237   C     0.88690   0.93325   0.78943   0.00000  Uiso   1.00
C238   C     0.92364   0.91270   0.75994   0.00000  Uiso   1.00
C239   C     0.97826   0.88000   0.64891   0.00000  Uiso   1.00
C240   C     0.87132   0.98767   0.09659   0.00000  Uiso   1.00
C241   C     0.87056   0.01744   0.06272   0.00000  Uiso   1.00
C242   C     0.89983   0.03540   0.15822   0.00000  Uiso   1.00
C243   C     0.94065   0.07370   0.27772   0.00000  Uiso   1.00
C244   C     0.89554   0.94306   0.23716   0.00000  Uiso   1.00
C245   C     0.84060   0.93689   0.25970   0.00000  Uiso   1.00
C246   C     0.81967   0.92172   0.38748   0.00000  Uiso   1.00
C247   C     0.76867   0.91839   0.38604   0.00000  Uiso   1.00
C248   C     0.90918   0.93050   0.07291   0.00000  Uiso   1.00
C249   C     0.94592   0.90996   0.04365   0.00000  Uiso   1.00
C250   C     0.95267   0.90125   0.88496   0.00000  Uiso   1.00
C251   C     0.90030   0.97623   0.22140   0.00000  Uiso   1.00
C252   C     0.92958   0.99415   0.31695   0.00000  Uiso   1.00
C253   C     0.92886   0.02394   0.28324   0.00000  Uiso   1.00
H254   H     0.81964   0.97302   0.91021   0.00000  Uiso   1.00
H255   H     0.73823   0.95386   0.03665   0.00000  Uiso   1.00
H256   H     0.86447   0.94210   0.69287   0.00000  Uiso   1.00
H257   H     0.84813   0.02628   0.96614   0.00000  Uiso   1.00
H258   H     0.66076   0.92757   0.23183   0.00000  Uiso   1.00
H259   H     0.92695   0.90279   0.50696   0.00000  Uiso   1.00
H260   H     0.89249   0.08029   0.08317   0.00000  Uiso   1.00
H261   H     0.91810   0.93416   0.33432   0.00000  Uiso   1.00
H262   H     0.84210   0.91287   0.48404   0.00000  Uiso   1.00
H263   H     0.96834   0.90112   0.14025   0.00000  Uiso   1.00
H264   H     0.95200   0.98529   0.41352   0.00000  Uiso   1.00
H265   H     0.74506   0.89430   0.59495   0.00000  Uiso   1.00
H266   H     0.01126   0.86952   0.87006   0.00000  Uiso   1.00
H267   H     0.97680   0.04702   0.44629   0.00000  Uiso   1.00
O268   O     0.65113   0.89762   0.50420   0.00000  Uiso   1.00
O269   O     0.00038   0.86512   0.55318   0.00000  Uiso   1.00
O270   O     0.95517   0.09799   0.30917   0.00000  Uiso   1.00
N271   N     0.69103   0.92267   0.29677   0.00000  Uiso   1.00
N272   N     0.93990   0.89949   0.61905   0.00000  Uiso   1.00
N273   N     0.90769   0.06544   0.15774   0.00000  Uiso   1.00
N274   N     0.73639   0.90477   0.49215   0.00000  Uiso   1.00
N275   N     0.98526   0.88159   0.81444   0.00000  Uiso   1.00
N276   N     0.95306   0.04754   0.35313   0.00000  Uiso   1.00
C277   C     0.34220   0.46412   0.00738   0.00000  Uiso   1.00
C278   C     0.31162   0.44832   0.13490   0.00000  Uiso   1.00
C279   C     0.26064   0.44501   0.13326   0.00000  Uiso   1.00
C280   C     0.23964   0.42984   0.26100   0.00000  Uiso   1.00
C281   C     0.18776   0.40704   0.43997   0.00000  Uiso   1.00
C282   C     0.38021   0.44193   0.94811   0.00000  Uiso   1.00
C283   C     0.38690   0.43325   0.78943   0.00000  Uiso   1.00
C284   C     0.42364   0.41270   0.75994   0.00000  Uiso   1.00
C285   C     0.47826   0.38000   0.64891   0.00000  Uiso   1.00
C286   C     0.37132   0.48767   0.09659   0.00000  Uiso   1.00
C287   C     0.37056   0.51744   0.06272   0.00000  Uiso   1.00
C288   C     0.39983   0.53540   0.15822   0.00000  Uiso   1.00
C289   C     0.44065   0.57370   0.27772   0.00000  Uiso   1.00
C290   C     0.39554   0.44306   0.23716   0.00000  Uiso   1.00
C291   C     0.34060   0.43689   0.25970   0.00000  Uiso   1.00
C292   C     0.31967   0.42172   0.38748   0.00000  Uiso   1.00
C293   C     0.26867   0.41839   0.38604   0.00000  Uiso   1.00
C294   C     0.40918   0.43050   0.07291   0.00000  Uiso   1.00
C295   C     0.44592   0.40996   0.04365   0.00000  Uiso   1.00
C296   C     0.45267   0.40125   0.88496   0.00000  Uiso   1.00
C297   C     0.40030   0.47623   0.22140   0.00000  Uiso   1.00
C298   C     0.42958   0.49415   0.31695   0.00000  Uiso   1.00
C299   C     0.42886   0.52394   0.28324   0.00000  Uiso   1.00
H300   H     0.31964   0.47302   0.91021   0.00000  Uiso   1.00
H301   H     0.23823   0.45386   0.03665   0.00000  Uiso   1.00
H302   H     0.36447   0.44210   0.69287   0.00000  Uiso   1.00
H303   H     0.34813   0.52628   0.96614   0.00000  Uiso   1.00
H304   H     0.16076   0.42757   0.23183   0.00000  Uiso   1.00
H305   H     0.42695   0.40279   0.50696   0.00000  Uiso   1.00
H306   H     0.39249   0.58029   0.08317   0.00000  Uiso   1.00
H307   H     0.41810   0.43416   0.33432   0.00000  Uiso   1.00
H308   H     0.34210   0.41287   0.48404   0.00000  Uiso   1.00
H309   H     0.46834   0.40112   0.14025   0.00000  Uiso   1.00
H310   H     0.45200   0.48529   0.41352   0.00000  Uiso   1.00
H311   H     0.24506   0.39430   0.59495   0.00000  Uiso   1.00
H312   H     0.51126   0.36952   0.87006   0.00000  Uiso   1.00
H313   H     0.47680   0.54702   0.44629   0.00000  Uiso   1.00
O314   O     0.15113   0.39762   0.50420   0.00000  Uiso   1.00
O315   O     0.50038   0.36512   0.55318   0.00000  Uiso   1.00
O316   O     0.45517   0.59799   0.30917   0.00000  Uiso   1.00
N317   N     0.19103   0.42267   0.29677   0.00000  Uiso   1.00
N318   N     0.43990   0.39949   0.61905   0.00000  Uiso   1.00
N319   N     0.40769   0.56544   0.15774   0.00000  Uiso   1.00
N320   N     0.23639   0.40477   0.49215   0.00000  Uiso   1.00
N321   N     0.48526   0.38159   0.81444   0.00000  Uiso   1.00
N322   N     0.45306   0.54754   0.35313   0.00000  Uiso   1.00
C323   C     0.34220   0.96412   0.50738   0.00000  Uiso   1.00
C324   C     0.31162   0.94832   0.63490   0.00000  Uiso   1.00
C325   C     0.26064   0.94501   0.63326   0.00000  Uiso   1.00
C326   C     0.23964   0.92984   0.76100   0.00000  Uiso   1.00
C327   C     0.18776   0.90704   0.93997   0.00000  Uiso   1.00
C328   C     0.38021   0.94193   0.44811   0.00000  Uiso   1.00
C329   C     0.38690   0.93325   0.28943   0.00000  Uiso   1.00
C330   C     0.42364   0.91270   0.25994   0.00000  Uiso   1.00
C331   C     0.47826   0.88000   0.14891   0.00000  Uiso   1.00
C332   C     0.37132   0.98767   0.59659   0.00000  Uiso   1.00
C333   C     0.37056   0.01744   0.56272   0.00000  Uiso   1.00
C334   C     0.39983   0.03540   0.65822   0.00000  Uiso   1.00
C335   C     0.44065   0.07370   0.77772   0.00000  Uiso   1.00
C336   C     0.39554   0.94306   0.73716   0.00000  Uiso   1.00
C337   C     0.34060   0.93689   0.75970   0.00000  Uiso   1.00
C338   C     0.31967   0.92172   0.88748   0.00000  Uiso   1.00
C339   C     0.26867   0.91839   0.88604   0.00000  Uiso   1.00
C340   C     0.40918   0.93050   0.57291   0.00000  Uiso   1.00
C341   C     0.44592   0.90996   0.54365   0.00000  Uiso   1.00
C342   C     0.45267   0.90125   0.38496   0.00000  Uiso   1.00
C343   C     0.40030   0.97623   0.72140   0.00000  Uiso   1.00
C344   C     0.42958   0.99415   0.81695   0.00000  Uiso   1.00
C345   C     0.42886   0.02394   0.78324   0.00000  Uiso   1.00
H346   H     0.31964   0.97302   0.41021   0.00000  Uiso   1.00
H347   H     0.23823   0.95386   0.53665   0.00000  Uiso   1.00
H348   H     0.36447   0.94210   0.19287   0.00000  Uiso   1.00
H349   H     0.34813   0.02628   0.46614   0.00000  Uiso   1.00
H350   H     0.16076   0.92757   0.73183   0.00000  Uiso   1.00
H351   H     0.42695   0.90279   0.00696   0.00000  Uiso   1.00
H352   H     0.39249   0.08029   0.58317   0.00000  Uiso   1.00
H353   H     0.41810   0.93416   0.83432   0.00000  Uiso   1.00
H354   H     0.34210   0.91287   0.98404   0.00000  Uiso   1.00
H355   H     0.46834   0.90112   0.64025   0.00000  Uiso   1.00
H356   H     0.45200   0.98529   0.91352   0.00000  Uiso   1.00
H357   H     0.24506   0.89430   0.09495   0.00000  Uiso   1.00
H358   H     0.51126   0.86952   0.37006   0.00000  Uiso   1.00
H359   H     0.47680   0.04702   0.94629   0.00000  Uiso   1.00
O360   O     0.15113   0.89762   0.00420   0.00000  Uiso   1.00
O361   O     0.50038   0.86512   0.05318   0.00000  Uiso   1.00
O362   O     0.45517   0.09799   0.80917   0.00000  Uiso   1.00
N363   N     0.19103   0.92267   0.79677   0.00000  Uiso   1.00
N364   N     0.43990   0.89949   0.11905   0.00000  Uiso   1.00
N365   N     0.40769   0.06544   0.65774   0.00000  Uiso   1.00
N366   N     0.23639   0.90477   0.99215   0.00000  Uiso   1.00
N367   N     0.48526   0.88159   0.31444   0.00000  Uiso   1.00
N368   N     0.45306   0.04754   0.85313   0.00000  Uiso   1.00
C369   C     0.40780   0.71412   0.75738   0.00000  Uiso   1.00
C370   C     0.43838   0.69832   0.88490   0.00000  Uiso   1.00
C371   C     0.48936   0.69501   0.88326   0.00000  Uiso   1.00
C372   C     0.51036   0.67984   0.01100   0.00000  Uiso   1.00
C373   C     0.56224   0.65704   0.18997   0.00000  Uiso   1.00
C374   C     0.36979   0.69193   0.69811   0.00000  Uiso   1.00
C375   C     0.36310   0.68325   0.53943   0.00000  Uiso   1.00
C376   C     0.32636   0.66270   0.50994   0.00000  Uiso   1.00
C377   C     0.27174   0.63000   0.39891   0.00000  Uiso   1.00
C378   C     0.37868   0.73767   0.84659   0.00000  Uiso   1.00
C379   C     0.37944   0.76744   0.81272   0.00000  Uiso   1.00
C380   C     0.35017   0.78540   0.90822   0.00000  Uiso   1.00
C381   C     0.30935   0.82370   0.02772   0.00000  Uiso   1.00
C382   C     0.35446   0.69306   0.98716   0.00000  Uiso   1.00
C383   C     0.40940   0.68689   0.00970   0.00000  Uiso   1.00
C384   C     0.43033   0.67172   0.13748   0.00000  Uiso   1.00
C385   C     0.48133   0.66839   0.13604   0.00000  Uiso   1.00
C386   C     0.34082   0.68050   0.82291   0.00000  Uiso   1.00
C387   C     0.30408   0.65996   0.79365   0.00000  Uiso   1.00
C388   C     0.29733   0.65125   0.63496   0.00000  Uiso   1.00
C389   C     0.34970   0.72623   0.97140   0.00000  Uiso   1.00
C390   C     0.32042   0.74415   0.06695   0.00000  Uiso   1.00
C391   C     0.32114   0.77394   0.03324   0.00000  Uiso   1.00
H392   H     0.43036   0.72302   0.66021   0.00000  Uiso   1.00
H393   H     0.51177   0.70386   0.78665   0.00000  Uiso   1.00
H394   H     0.38553   0.69210   0.44287   0.00000  Uiso   1.00
H395   H     0.40187   0.77628   0.71614   0.00000  Uiso   1.00
H396   H     0.58924   0.67757   0.98183   0.00000  Uiso   1.00
H397   H     0.32305   0.65279   0.25696   0.00000  Uiso   1.00
H398   H     0.35751   0.83029   0.83317   0.00000  Uiso   1.00
H399   H     0.33190   0.68416   0.08432   0.00000  Uiso   1.00
H400   H     0.40790   0.66287   0.23404   0.00000  Uiso   1.00
H401   H     0.28166   0.65112   0.89025   0.00000  Uiso   1.00
H402   H     0.29800   0.73529   0.16352   0.00000  Uiso   1.00
H403   H     0.50494   0.64430   0.34495   0.00000  Uiso   1.00
H404   H     0.23874   0.61952   0.62006   0.00000  Uiso   1.00
H405   H     0.27320   0.79702   0.19629   0.00000  Uiso   1.00
O406   O     0.59887   0.64762   0.25420   0.00000  Uiso   1.00
O407   O     0.24962   0.61512   0.30318   0.00000  Uiso   1.00
O408   O     0.29483   0.84799   0.05917   0.00000  Uiso   1.00
N409   N     0.55897   0.67267   0.04677   0.00000  Uiso   1.00
N410   N     0.31010   0.64949   0.36905   0.00000  Uiso   1.00
N411   N     0.34231   0.81544   0.90774   0.00000  Uiso   1.00
N412   N     0.51361   0.65477   0.24215   0.00000  Uiso   1.00
N413   N     0.26474   0.63159   0.56444   0.00000  Uiso   1.00
N414   N     0.29694   0.79754   0.10313   0.00000  Uiso   1.00
C415   C     0.40780   0.21412   0.25738   0.00000  Uiso   1.00
C416   C     0.43838   0.19832   0.38490   0.00000  Uiso   1.00
C417   C     0.48936   0.19501   0.38326   0.00000  Uiso   1.00
C418   C     0.51036   0.17984   0.51100   0.00000  Uiso   1.00
C419   C     0.56224   0.15704   0.68997   0.00000  Uiso   1.00
C420   C     0.36979   0.19193   0.19811   0.00000  Uiso   1.00
C421   C     0.36310   0.18325   0.03943   0.00000  Uiso   1.00
C422   C     0.32636   0.16270   0.00994   0.00000  Uiso   1.00
C423   C     0.27174   0.13000   0.89891   0.00000  Uiso   1.00
C424   C     0.37868   0.23767   0.34659   0.00000  Uiso   1.00
C425   C     0.37944   0.26744   0.31272   0.00000  Uiso   1.00
C426   C     0.35017   0.28540   0.40822   0.00000  Uiso   1.00
C427   C     0.30935   0.32370   0.52772   0.00000  Uiso   1.00
C428   C     0.35446   0.19306   0.48716   0.00000  Uiso   1.00
C429   C     0.40940   0.18689   0.50970   0.00000  Uiso   1.00
C430   C     0.43033   0.17172   0.63748   0.00000  Uiso   1.00
C431   C     0.48133   0.16839   0.63604   0.00000  Uiso   1.00
C432   C     0.34082   0.18050   0.32291   0.00000  Uiso   1.00
C433   C     0.30408   0.15996   0.29365   0.00000  Uiso   1.00
C434   C     0.29733   0.15125   0.13496   0.00000  Uiso   1.00
C435   C     0.34970   0.22623   0.47140   0.00000  Uiso   1.00
C436   C     0.32042   0.24415   0.56695   0.00000  Uiso   1.00
C437   C     0.32114   0.27394   0.53324   0.00000  Uiso   1.00
H438   H     0.43036   0.22302   0.16021   0.00000  Uiso   1.00
H439   H     0.51177   0.20386   0.28665   0.00000  Uiso   1.00
H440   H     0.38553   0.19210   0.94287   0.00000  Uiso   1.00
H441   H     0.40187   0.27628   0.21614   0.00000  Uiso   1.00
H442   H     0.58924   0.17757   0.48183   0.00000  Uiso   1.00
H443   H     0.32305   0.15279   0.75696   0.00000  Uiso   1.00
H444   H     0.35751   0.33029   0.33317   0.00000  Uiso   1.00
H445   H     0.33190   0.18416   0.58432   0.00000  Uiso   1.00
H446   H     0.40790   0.16287   0.73404   0.00000  Uiso   1.00
H447   H     0.28166   0.15112   0.39025   0.00000  Uiso   1.00
H448   H     0.29800   0.23529   0.66352   0.00000  Uiso   1.00
H449   H     0.50494   0.14430   0.84495   0.00000  Uiso   1.00
H450   H     0.23874   0.11952   0.12006   0.00000  Uiso   1.00
H451   H     0.27320   0.29702   0.69629   0.00000  Uiso   1.00
O452   O     0.59887   0.14762   0.75420   0.00000  Uiso   1.00
O453   O     0.24962   0.11512   0.80318   0.00000  Uiso   1.00
O454   O     0.29483   0.34799   0.55917   0.00000  Uiso   1.00
N455   N     0.55897   0.17267   0.54677   0.00000  Uiso   1.00
N456   N     0.31010   0.14949   0.86905   0.00000  Uiso   1.00
N457   N     0.34231   0.31544   0.40774   0.00000  Uiso   1.00
N458   N     0.51361   0.15477   0.74215   0.00000  Uiso   1.00
N459   N     0.26474   0.13159   0.06444   0.00000  Uiso   1.00
N460   N     0.29694   0.29754   0.60313   0.00000  Uiso   1.00
C461   C     0.90780   0.71412   0.25738   0.00000  Uiso   1.00
C462   C     0.93838   0.69832   0.38490   0.00000  Uiso   1.00
C463   C     0.98936   0.69501   0.38326   0.00000  Uiso   1.00
C464   C     0.01036   0.67984   0.51100   0.00000  Uiso   1.00
C465   C     0.06224   0.65704   0.68997   0.00000  Uiso   1.00
C466   C     0.86979   0.69193   0.19811   0.00000  Uiso   1.00
C467   C     0.86310   0.68325   0.03943   0.00000  Uiso   1.00
C468   C     0.82636   0.66270   0.00994   0.00000  Uiso   1.00
C469   C     0.77174   0.63000   0.89891   0.00000  Uiso   1.00
C470   C     0.87868   0.73767   0.34659   0.00000  Uiso   1.00
C471   C     0.87944   0.76744   0.31272   0.00000  Uiso   1.00
C472   C     0.85017   0.78540   0.40822   0.00000  Uiso   1.00
C473   C     0.80935   0.82370   0.52772   0.00000  Uiso   1.00
C474   C     0.85446   0.69306   0.48716   0.00000  Uiso   1.00
C475   C     0.90940   0.68689   0.50970   0.00000  Uiso   1.00
C476   C     0.93033   0.67172   0.63748   0.00000  Uiso   1.00
C477   C     0.98133   0.66839   0.63604   0.00000  Uiso   1.00
C478   C     0.84082   0.68050   0.32291   0.00000  Uiso   1.00
C479   C     0.80408   0.65996   0.29365   0.00000  Uiso   1.00
C480   C     0.79733   0.65125   0.13496   0.00000  Uiso   1.00
C481   C     0.84970   0.72623   0.47140   0.00000  Uiso   1.00
C482   C     0.82042   0.74415   0.56695   0.00000  Uiso   1.00
C483   C     0.82114   0.77394   0.53324   0.00000  Uiso   1.00
H484   H     0.93036   0.72302   0.16021   0.00000  Uiso   1.00
H485   H     0.01177   0.70386   0.28665   0.00000  Uiso   1.00
H486   H     0.88553   0.69210   0.94287   0.00000  Uiso   1.00
H487   H     0.90187   0.77628   0.21614   0.00000  Uiso   1.00
H488   H     0.08924   0.67757   0.48183   0.00000  Uiso   1.00
H489   H     0.82305   0.65279   0.75696   0.00000  Uiso   1.00
H490   H     0.85751   0.83029   0.33317   0.00000  Uiso   1.00
H491   H     0.83190   0.68416   0.58432   0.00000  Uiso   1.00
H492   H     0.90790   0.66287   0.73404   0.00000  Uiso   1.00
H493   H     0.78166   0.65112   0.39025   0.00000  Uiso   1.00
H494   H     0.79800   0.73529   0.66352   0.00000  Uiso   1.00
H495   H     0.00494   0.64430   0.84495   0.00000  Uiso   1.00
H496   H     0.73874   0.61952   0.12006   0.00000  Uiso   1.00
H497   H     0.77320   0.79702   0.69629   0.00000  Uiso   1.00
O498   O     0.09887   0.64762   0.75420   0.00000  Uiso   1.00
O499   O     0.74962   0.61512   0.80318   0.00000  Uiso   1.00
O500   O     0.79483   0.84799   0.55917   0.00000  Uiso   1.00
N501   N     0.05897   0.67267   0.54677   0.00000  Uiso   1.00
N502   N     0.81010   0.64949   0.86905   0.00000  Uiso   1.00
N503   N     0.84231   0.81544   0.40774   0.00000  Uiso   1.00
N504   N     0.01361   0.65477   0.74215   0.00000  Uiso   1.00
N505   N     0.76474   0.63159   0.06444   0.00000  Uiso   1.00
N506   N     0.79694   0.79754   0.60313   0.00000  Uiso   1.00
C507   C     0.90780   0.21412   0.75738   0.00000  Uiso   1.00
C508   C     0.93838   0.19832   0.88490   0.00000  Uiso   1.00
C509   C     0.98936   0.19501   0.88326   0.00000  Uiso   1.00
C510   C     0.01036   0.17984   0.01100   0.00000  Uiso   1.00
C511   C     0.06224   0.15704   0.18997   0.00000  Uiso   1.00
C512   C     0.86979   0.19193   0.69811   0.00000  Uiso   1.00
C513   C     0.86310   0.18325   0.53943   0.00000  Uiso   1.00
C514   C     0.82636   0.16270   0.50994   0.00000  Uiso   1.00
C515   C     0.77174   0.13000   0.39891   0.00000  Uiso   1.00
C516   C     0.87868   0.23767   0.84659   0.00000  Uiso   1.00
C517   C     0.87944   0.26744   0.81272   0.00000  Uiso   1.00
C518   C     0.85017   0.28540   0.90822   0.00000  Uiso   1.00
C519   C     0.80935   0.32370   0.02772   0.00000  Uiso   1.00
C520   C     0.85446   0.19306   0.98716   0.00000  Uiso   1.00
C521   C     0.90940   0.18689   0.00970   0.00000  Uiso   1.00
C522   C     0.93033   0.17172   0.13748   0.00000  Uiso   1.00
C523   C     0.98133   0.16839   0.13604   0.00000  Uiso   1.00
C524   C     0.84082   0.18050   0.82291   0.00000  Uiso   1.00
C525   C     0.80408   0.15996   0.79365   0.00000  Uiso   1.00
C526   C     0.79733   0.15125   0.63496   0.00000  Uiso   1.00
C527   C     0.84970   0.22623   0.97140   0.00000  Uiso   1.00
C528   C     0.82042   0.24415   0.06695   0.00000  Uiso   1.00
C529   C     0.82114   0.27394   0.03324   0.00000  Uiso   1.00
H530   H     0.93036   0.22302   0.66021   0.00000  Uiso   1.00
H531   H     0.01177   0.20386   0.78665   0.00000  Uiso   1.00
H532   H     0.88553   0.19210   0.44287   0.00000  Uiso   1.00
H533   H     0.90187   0.27628   0.71614   0.00000  Uiso   1.00
H534   H     0.08924   0.17757   0.98183   0.00000  Uiso   1.00
H535   H     0.82305   0.15279   0.25696   0.00000  Uiso   1.00
H536   H     0.85751   0.33029   0.83317   0.00000  Uiso   1.00
H537   H     0.83190   0.18416   0.08432   0.00000  Uiso   1.00
H538   H     0.90790   0.16287   0.23404   0.00000  Uiso   1.00
H539   H     0.78166   0.15112   0.89025   0.00000  Uiso   1.00
H540   H     0.79800   0.23529   0.16352   0.00000  Uiso   1.00
H541   H     0.00494   0.14430   0.34495   0.00000  Uiso   1.00
H542   H     0.73874   0.11952   0.62006   0.00000  Uiso   1.00
H543   H     0.77320   0.29702   0.19629   0.00000  Uiso   1.00
O544   O     0.09887   0.14762   0.25420   0.00000  Uiso   1.00
O545   O     0.74962   0.11512   0.30318   0.00000  Uiso   1.00
O546   O     0.79483   0.34799   0.05917   0.00000  Uiso   1.00
N547   N     0.05897   0.17267   0.04677   0.00000  Uiso   1.00
N548   N     0.81010   0.14949   0.36905   0.00000  Uiso   1.00
N549   N     0.84231   0.31544   0.90774   0.00000  Uiso   1.00
N550   N     0.01361   0.15477   0.24215   0.00000  Uiso   1.00
N551   N     0.76474   0.13159   0.56444   0.00000  Uiso   1.00
N552   N     0.79694   0.29754   0.10313   0.00000  Uiso   1.00
C553   C     0.09220   0.78588   0.75738   0.00000  Uiso   1.00
C554   C     0.06162   0.80168   0.88490   0.00000  Uiso   1.00
C555   C     0.01064   0.80499   0.88326   0.00000  Uiso   1.00
C556   C     0.98964   0.82016   0.01100   0.00000  Uiso   1.00
C557   C     0.93776   0.84296   0.18997   0.00000  Uiso   1.00
C558   C     0.13021   0.80807   0.69811   0.00000  Uiso   1.00
C559   C     0.13690   0.81675   0.53943   0.00000  Uiso   1.00
C560   C     0.17364   0.83730   0.50994   0.00000  Uiso   1.00
C561   C     0.22826   0.87000   0.39891   0.00000  Uiso   1.00
C562   C     0.12132   0.76233   0.84659   0.00000  Uiso   1.00
C563   C     0.12056   0.73256   0.81272   0.00000  Uiso   1.00
C564   C     0.14983   0.71460   0.90822   0.00000  Uiso   1.00
C565   C     0.19065   0.67630   0.02772   0.00000  Uiso   1.00
C566   C     0.14554   0.80694   0.98716   0.00000  Uiso   1.00
C567   C     0.09060   0.81311   0.00970   0.00000  Uiso   1.00
C568   C     0.06967   0.82828   0.13748   0.00000  Uiso   1.00
C569   C     0.01867   0.83161   0.13604   0.00000  Uiso   1.00
C570   C     0.15918   0.81950   0.82291   0.00000  Uiso   1.00
C571   C     0.19592   0.84004   0.79365   0.00000  Uiso   1.00
C572   C     0.20267   0.84875   0.63496   0.00000  Uiso   1.00
C573   C     0.15030   0.77377   0.97140   0.00000  Uiso   1.00
C574   C     0.17958   0.75585   0.06695   0.00000  Uiso   1.00
C575   C     0.17886   0.72606   0.03324   0.00000  Uiso   1.00
H576   H     0.06964   0.77698   0.66021   0.00000  Uiso   1.00
H577   H     0.98823   0.79614   0.78665   0.00000  Uiso   1.00
H578   H     0.11447   0.80790   0.44287   0.00000  Uiso   1.00
H579   H     0.09813   0.72372   0.71614   0.00000  Uiso   1.00
H580   H     0.91076   0.82243   0.98183   0.00000  Uiso   1.00
H581   H     0.17695   0.84721   0.25696   0.00000  Uiso   1.00
H582   H     0.14249   0.66971   0.83317   0.00000  Uiso   1.00
H583   H     0.16810   0.81584   0.08432   0.00000  Uiso   1.00
H584   H     0.09210   0.83713   0.23404   0.00000  Uiso   1.00
H585   H     0.21834   0.84888   0.89025   0.00000  Uiso   1.00
H586   H     0.20200   0.76471   0.16352   0.00000  Uiso   1.00
H587   H     0.99506   0.85570   0.34495   0.00000  Uiso   1.00
H588   H     0.26126   0.88048   0.62006   0.00000  Uiso   1.00
H589   H     0.22680   0.70298   0.19629   0.00000  Uiso   1.00
O590   O     0.90113   0.85238   0.25420   0.00000  Uiso   1.00
O591   O     0.25038   0.88488   0.30318   0.00000  Uiso   1.00
O592   O     0.20517   0.65201   0.05917   0.00000  Uiso   1.00
N593   N     0.94103   0.82733   0.04677   0.00000  Uiso   1.00
N594   N     0.18990   0.85051   0.36905   0.00000  Uiso   1.00
N595   N     0.15769   0.68456   0.90774   0.00000  Uiso   1.00
N596   N     0.98639   0.84523   0.24215   0.00000  Uiso   1.00
N597   N     0.23526   0.86841   0.56444   0.00000  Uiso   1.00
N598   N     0.20306   0.70246   0.10313   0.00000  Uiso   1.00
C599   C     0.09220   0.28588   0.25738   0.00000  Uiso   1.00
C600   C     0.06162   0.30168   0.38490   0.00000  Uiso   1.00
C601   C     0.01064   0.30499   0.38326   0.00000  Uiso   1.00
C602   C     0.98964   0.32016   0.51100   0.00000  Uiso   1.00
C603   C     0.93776   0.34296   0.68997   0.00000  Uiso   1.00
C604   C     0.13021   0.30807   0.19811   0.00000  Uiso   1.00
C605   C     0.13690   0.31675   0.03943   0.00000  Uiso   1.00
C606   C     0.17364   0.33730   0.00994   0.00000  Uiso   1.00
C607   C     0.22826   0.37000   0.89891   0.00000  Uiso   1.00
C608   C     0.12132   0.26233   0.34659   0.00000  Uiso   1.00
C609   C     0.12056   0.23256   0.31272   0.00000  Uiso   1.00
C610   C     0.14983   0.21460   0.40822   0.00000  Uiso   1.00
C611   C     0.19065   0.17630   0.52772   0.00000  Uiso   1.00
C612   C     0.14554   0.30694   0.48716   0.00000  Uiso   1.00
C613   C     0.09060   0.31311   0.50970   0.00000  Uiso   1.00
C614   C     0.06967   0.32828   0.63748   0.00000  Uiso   1.00
C615   C     0.01867   0.33161   0.63604   0.00000  Uiso   1.00
C616   C     0.15918   0.31950   0.32291   0.00000  Uiso   1.00
C617   C     0.19592   0.34004   0.29365   0.00000  Uiso   1.00
C618   C     0.20267   0.34875   0.13496   0.00000  Uiso   1.00
C619   C     0.15030   0.27377   0.47140   0.00000  Uiso   1.00
C620   C     0.17958   0.25585   0.56695   0.00000  Uiso   1.00
C621   C     0.17886   0.22606   0.53324   0.00000  Uiso   1.00
H622   H     0.06964   0.27698   0.16021   0.00000  Uiso   1.00
H623   H     0.98823   0.29614   0.28665   0.00000  Uiso   1.00
H624   H     0.11447   0.30790   0.94287   0.00000  Uiso   1.00
H625   H     0.09813   0.22372   0.21614   0.00000  Uiso   1.00
H626   H     0.91076   0.32243   0.48183   0.00000  Uiso   1.00
H627   H     0.17695   0.34721   0.75696   0.00000  Uiso   1.00
H628   H     0.14249   0.16971   0.33317   0.00000  Uiso   1.00
H629   H     0.16810   0.31584   0.58432   0.00000  Uiso   1.00
H630   H     0.09210   0.33713   0.73404   0.00000  Uiso   1.00
H631   H     0.21834   0.34888   0.39025   0.00000  Uiso   1.00
H632   H     0.20200   0.26471   0.66352   0.00000  Uiso   1.00
H633   H     0.99506   0.35570   0.84495   0.00000  Uiso   1.00
H634   H     0.26126   0.38048   0.12006   0.00000  Uiso   1.00
H635   H     0.22680   0.20298   0.69629   0.00000  Uiso   1.00
O636   O     0.90113   0.35238   0.75420   0.00000  Uiso   1.00
O637   O     0.25038   0.38488   0.80318   0.00000  Uiso   1.00
O638   O     0.20517   0.15201   0.55917   0.00000  Uiso   1.00
N639   N     0.94103   0.32733   0.54677   0.00000  Uiso   1.00
N640   N     0.18990   0.35051   0.86905   0.00000  Uiso   1.00
N641   N     0.15769   0.18456   0.40774   0.00000  Uiso   1.00
N642   N     0.98639   0.34523   0.74215   0.00000  Uiso   1.00
N643   N     0.23526   0.36841   0.06444   0.00000  Uiso   1.00
N644   N     0.20306   0.20246   0.60313   0.00000  Uiso   1.00
C645   C     0.59220   0.78588   0.25738   0.00000  Uiso   1.00
C646   C     0.56162   0.80168   0.38490   0.00000  Uiso   1.00
C647   C     0.51064   0.80499   0.38326   0.00000  Uiso   1.00
C648   C     0.48964   0.82016   0.51100   0.00000  Uiso   1.00
C649   C     0.43776   0.84296   0.68997   0.00000  Uiso   1.00
C650   C     0.63021   0.80807   0.19811   0.00000  Uiso   1.00
C651   C     0.63690   0.81675   0.03943   0.00000  Uiso   1.00
C652   C     0.67364   0.83730   0.00994   0.00000  Uiso   1.00
C653   C     0.72826   0.87000   0.89891   0.00000  Uiso   1.00
C654   C     0.62132   0.76233   0.34659   0.00000  Uiso   1.00
C655   C     0.62056   0.73256   0.31272   0.00000  Uiso   1.00
C656   C     0.64983   0.71460   0.40822   0.00000  Uiso   1.00
C657   C     0.69065   0.67630   0.52772   0.00000  Uiso   1.00
C658   C     0.64554   0.80694   0.48716   0.00000  Uiso   1.00
C659   C     0.59060   0.81311   0.50970   0.00000  Uiso   1.00
C660   C     0.56967   0.82828   0.63748   0.00000  Uiso   1.00
C661   C     0.51867   0.83161   0.63604   0.00000  Uiso   1.00
C662   C     0.65918   0.81950   0.32291   0.00000  Uiso   1.00
C663   C     0.69592   0.84004   0.29365   0.00000  Uiso   1.00
C664   C     0.70267   0.84875   0.13496   0.00000  Uiso   1.00
C665   C     0.65030   0.77377   0.47140   0.00000  Uiso   1.00
C666   C     0.67958   0.75585   0.56695   0.00000  Uiso   1.00
C667   C     0.67886   0.72606   0.53324   0.00000  Uiso   1.00
H668   H     0.56964   0.77698   0.16021   0.00000  Uiso   1.00
H669   H     0.48823   0.79614   0.28665   0.00000  Uiso   1.00
H670   H     0.61447   0.80790   0.94287   0.00000  Uiso   1.00
H671   H     0.59813   0.72372   0.21614   0.00000  Uiso   1.00
H672   H     0.41076   0.82243   0.48183   0.00000  Uiso   1.00
H673   H     0.67695   0.84721   0.75696   0.00000  Uiso   1.00
H674   H     0.64249   0.66971   0.33317   0.00000  Uiso   1.00
H675   H     0.66810   0.81584   0.58432   0.00000  Uiso   1.00
H676   H     0.59210   0.83713   0.73404   0.00000  Uiso   1.00
H677   H     0.71834   0.84888   0.39025   0.00000  Uiso   1.00
H678   H     0.70200   0.76471   0.66352   0.00000  Uiso   1.00
H679   H     0.49506   0.85570   0.84495   0.00000  Uiso   1.00
H680   H     0.76126   0.88048   0.12006   0.00000  Uiso   1.00
H681   H     0.72680   0.70298   0.69629   0.00000  Uiso   1.00
O682   O     0.40113   0.85238   0.75420   0.00000  Uiso   1.00
O683   O     0.75038   0.88488   0.80318   0.00000  Uiso   1.00
O684   O     0.70517   0.65201   0.55917   0.00000  Uiso   1.00
N685   N     0.44103   0.82733   0.54677   0.00000  Uiso   1.00
N686   N     0.68990   0.85051   0.86905   0.00000  Uiso   1.00
N687   N     0.65769   0.68456   0.40774   0.00000  Uiso   1.00
N688   N     0.48639   0.84523   0.74215   0.00000  Uiso   1.00
N689   N     0.73526   0.86841   0.06444   0.00000  Uiso   1.00
N690   N     0.70306   0.70246   0.60313   0.00000  Uiso   1.00
C691   C     0.59220   0.28588   0.75738   0.00000  Uiso   1.00
C692   C     0.56162   0.30168   0.88490   0.00000  Uiso   1.00
C693   C     0.51064   0.30499   0.88326   0.00000  Uiso   1.00
C694   C     0.48964   0.32016   0.01100   0.00000  Uiso   1.00
C695   C     0.43776   0.34296   0.18997   0.00000  Uiso   1.00
C696   C     0.63021   0.30807   0.69811   0.00000  Uiso   1.00
C697   C     0.63690   0.31675   0.53943   0.00000  Uiso   1.00
C698   C     0.67364   0.33730   0.50994   0.00000  Uiso   1.00
C699   C     0.72826   0.37000   0.39891   0.00000  Uiso   1.00
C700   C     0.62132   0.26233   0.84659   0.00000  Uiso   1.00
C701   C     0.62056   0.23256   0.81272   0.00000  Uiso   1.00
C702   C     0.64983   0.21460   0.90822   0.00000  Uiso   1.00
C703   C     0.69065   0.17630   0.02772   0.00000  Uiso   1.00
C704   C     0.64554   0.30694   0.98716   0.00000  Uiso   1.00
C705   C     0.59060   0.31311   0.00970   0.00000  Uiso   1.00
C706   C     0.56967   0.32828   0.13748   0.00000  Uiso   1.00
C707   C     0.51867   0.33161   0.13604   0.00000  Uiso   1.00
C708   C     0.65918   0.31950   0.82291   0.00000  Uiso   1.00
C709   C     0.69592   0.34004   0.79365   0.00000  Uiso   1.00
C710   C     0.70267   0.34875   0.63496   0.00000  Uiso   1.00
C711   C     0.65030   0.27377   0.97140   0.00000  Uiso   1.00
C712   C     0.67958   0.25585   0.06695   0.00000  Uiso   1.00
C713   C     0.67886   0.22606   0.03324   0.00000  Uiso   1.00
H714   H     0.56964   0.27698   0.66021   0.00000  Uiso   1.00
H715   H     0.48823   0.29614   0.78665   0.00000  Uiso   1.00
H716   H     0.61447   0.30790   0.44287   0.00000  Uiso   1.00
H717   H     0.59813   0.22372   0.71614   0.00000  Uiso   1.00
H718   H     0.41076   0.32243   0.98183   0.00000  Uiso   1.00
H719   H     0.67695   0.34721   0.25696   0.00000  Uiso   1.00
H720   H     0.64249   0.16971   0.83317   0.00000  Uiso   1.00
H721   H     0.66810   0.31584   0.08432   0.00000  Uiso   1.00
H722   H     0.59210   0.33713   0.23404   0.00000  Uiso   1.00
H723   H     0.71834   0.34888   0.89025   0.00000  Uiso   1.00
H724   H     0.70200   0.26471   0.16352   0.00000  Uiso   1.00
H725   H     0.49506   0.35570   0.34495   0.00000  Uiso   1.00
H726   H     0.76126   0.38048   0.62006   0.00000  Uiso   1.00
H727   H     0.72680   0.20298   0.19629   0.00000  Uiso   1.00
O728   O     0.40113   0.35238   0.25420   0.00000  Uiso   1.00
O729   O     0.75038   0.38488   0.30318   0.00000  Uiso   1.00
O730   O     0.70517   0.15201   0.05917   0.00000  Uiso   1.00
N731   N     0.44103   0.32733   0.04677   0.00000  Uiso   1.00
N732   N     0.68990   0.35051   0.36905   0.00000  Uiso   1.00
N733   N     0.65769   0.18456   0.90774   0.00000  Uiso   1.00
N734   N     0.48639   0.34523   0.24215   0.00000  Uiso   1.00
N735   N     0.73526   0.36841   0.56444   0.00000  Uiso   1.00
N736   N     0.70306   0.20246   0.10313   0.00000  Uiso   1.00
