data_job_04203
_audit_creation_date              2018-12-19
_audit_creation_method            'Materials Studio'
_symmetry_space_group_name_H-M    'P1'
_symmetry_Int_Tables_number       1
_symmetry_cell_setting            triclinic
loop_
_symmetry_equiv_pos_as_xyz
  x,y,z
_cell_length_a                    28.1557
_cell_length_b                    28.1557
_cell_length_c                    23.0370
_cell_angle_alpha                 90.0000
_cell_angle_beta                  90.0000
_cell_angle_gamma                 90.0000
loop_
_atom_site_label
_atom_site_type_symbol
_atom_site_fract_x
_atom_site_fract_y
_atom_site_fract_z
_atom_site_U_iso_or_equiv
_atom_site_adp_type
_atom_site_occupancy
C1     C     0.73222   0.16512   0.81106   0.00000  Uiso   1.00
C2     C     0.70040   0.19012   0.85506   0.00000  Uiso   1.00
C3     C     0.65690   0.21114   0.84316   0.00000  Uiso   1.00
C4     C     0.63325   0.23219   0.88937   0.00000  Uiso   1.00
C5     C     0.58093   0.27102   0.94916   0.00000  Uiso   1.00
C6     C     0.78021   0.19009   0.81421   0.00000  Uiso   1.00
C7     C     0.80382   0.21108   0.76796   0.00000  Uiso   1.00
C8     C     0.84737   0.23210   0.77979   0.00000  Uiso   1.00
C9     C     0.91898   0.27085   0.77616   0.00000  Uiso   1.00
C10    C     0.74028   0.11517   0.83464   0.00000  Uiso   1.00
C11    C     0.73033   0.07316   0.80556   0.00000  Uiso   1.00
C12    C     0.74027   0.03110   0.83458   0.00000  Uiso   1.00
C13    C     0.74988   0.95352   0.86266   0.00000  Uiso   1.00
C14    C     0.76759   0.16512   0.91429   0.00000  Uiso   1.00
C15    C     0.71961   0.19011   0.91113   0.00000  Uiso   1.00
C16    C     0.69603   0.21113   0.95737   0.00000  Uiso   1.00
C17    C     0.65250   0.23218   0.94554   0.00000  Uiso   1.00
C18    C     0.79943   0.19008   0.87028   0.00000  Uiso   1.00
C19    C     0.84295   0.21107   0.88218   0.00000  Uiso   1.00
C20    C     0.86661   0.23209   0.83596   0.00000  Uiso   1.00
C21    C     0.75950   0.11516   0.89071   0.00000  Uiso   1.00
C22    C     0.76946   0.07315   0.91978   0.00000  Uiso   1.00
C23    C     0.75952   0.03109   0.89075   0.00000  Uiso   1.00
H24    H     0.71726   0.16513   0.76740   0.00000  Uiso   1.00
H25    H     0.64204   0.21114   0.79975   0.00000  Uiso   1.00
H26    H     0.78894   0.21107   0.72458   0.00000  Uiso   1.00
H27    H     0.71546   0.07318   0.76217   0.00000  Uiso   1.00
H28    H     0.56712   0.26217   0.86035   0.00000  Uiso   1.00
H29    H     0.87688   0.26201   0.70183   0.00000  Uiso   1.00
H30    H     0.72193   0.97123   0.78110   0.00000  Uiso   1.00
H31    H     0.78255   0.16511   0.95795   0.00000  Uiso   1.00
H32    H     0.71091   0.21113   0.00076   0.00000  Uiso   1.00
H33    H     0.85781   0.21106   0.92558   0.00000  Uiso   1.00
H34    H     0.78433   0.07317   0.96317   0.00000  Uiso   1.00
H35    H     0.62302   0.26216   0.02349   0.00000  Uiso   1.00
H36    H     0.93278   0.26200   0.86496   0.00000  Uiso   1.00
H37    H     0.77783   0.97122   0.94424   0.00000  Uiso   1.00
O38    O     0.54677   0.29244   0.96665   0.00000  Uiso   1.00
O39    O     0.95316   0.29223   0.75866   0.00000  Uiso   1.00
O40    O     0.74987   0.91074   0.86267   0.00000  Uiso   1.00
N41    N     0.59011   0.25584   0.89287   0.00000  Uiso   1.00
N42    N     0.87971   0.25570   0.74466   0.00000  Uiso   1.00
N43    N     0.73486   0.98385   0.81877   0.00000  Uiso   1.00
N44    N     0.62018   0.25584   0.98066   0.00000  Uiso   1.00
N45    N     0.90978   0.25570   0.83245   0.00000  Uiso   1.00
N46    N     0.76493   0.98384   0.90655   0.00000  Uiso   1.00
C47    C     0.23222   0.66512   0.31106   0.00000  Uiso   1.00
C48    C     0.20040   0.69012   0.35506   0.00000  Uiso   1.00
C49    C     0.15690   0.71114   0.34316   0.00000  Uiso   1.00
C50    C     0.13325   0.73219   0.38937   0.00000  Uiso   1.00
C51    C     0.08093   0.77102   0.44916   0.00000  Uiso   1.00
C52    C     0.28021   0.69009   0.31421   0.00000  Uiso   1.00
C53    C     0.30382   0.71108   0.26796   0.00000  Uiso   1.00
C54    C     0.34737   0.73210   0.27979   0.00000  Uiso   1.00
C55    C     0.41898   0.77085   0.27616   0.00000  Uiso   1.00
C56    C     0.24028   0.61517   0.33464   0.00000  Uiso   1.00
C57    C     0.23033   0.57316   0.30556   0.00000  Uiso   1.00
C58    C     0.24027   0.53110   0.33458   0.00000  Uiso   1.00
C59    C     0.24988   0.45352   0.36266   0.00000  Uiso   1.00
C60    C     0.26759   0.66512   0.41429   0.00000  Uiso   1.00
C61    C     0.21961   0.69011   0.41113   0.00000  Uiso   1.00
C62    C     0.19603   0.71113   0.45737   0.00000  Uiso   1.00
C63    C     0.15250   0.73218   0.44554   0.00000  Uiso   1.00
C64    C     0.29943   0.69008   0.37028   0.00000  Uiso   1.00
C65    C     0.34295   0.71107   0.38218   0.00000  Uiso   1.00
C66    C     0.36661   0.73209   0.33596   0.00000  Uiso   1.00
C67    C     0.25950   0.61516   0.39071   0.00000  Uiso   1.00
C68    C     0.26946   0.57315   0.41978   0.00000  Uiso   1.00
C69    C     0.25952   0.53109   0.39075   0.00000  Uiso   1.00
H70    H     0.21726   0.66513   0.26740   0.00000  Uiso   1.00
H71    H     0.14204   0.71114   0.29975   0.00000  Uiso   1.00
H72    H     0.28894   0.71107   0.22458   0.00000  Uiso   1.00
H73    H     0.21546   0.57318   0.26217   0.00000  Uiso   1.00
H74    H     0.06712   0.76217   0.36035   0.00000  Uiso   1.00
H75    H     0.37688   0.76201   0.20183   0.00000  Uiso   1.00
H76    H     0.22193   0.47123   0.28110   0.00000  Uiso   1.00
H77    H     0.28255   0.66511   0.45795   0.00000  Uiso   1.00
H78    H     0.21091   0.71113   0.50076   0.00000  Uiso   1.00
H79    H     0.35781   0.71106   0.42558   0.00000  Uiso   1.00
H80    H     0.28433   0.57317   0.46317   0.00000  Uiso   1.00
H81    H     0.12302   0.76216   0.52349   0.00000  Uiso   1.00
H82    H     0.43278   0.76200   0.36496   0.00000  Uiso   1.00
H83    H     0.27783   0.47122   0.44424   0.00000  Uiso   1.00
O84    O     0.04677   0.79244   0.46665   0.00000  Uiso   1.00
O85    O     0.45316   0.79223   0.25866   0.00000  Uiso   1.00
O86    O     0.24987   0.41074   0.36267   0.00000  Uiso   1.00
N87    N     0.09011   0.75584   0.39287   0.00000  Uiso   1.00
N88    N     0.37971   0.75570   0.24466   0.00000  Uiso   1.00
N89    N     0.23486   0.48385   0.31877   0.00000  Uiso   1.00
N90    N     0.12018   0.75584   0.48066   0.00000  Uiso   1.00
N91    N     0.40978   0.75570   0.33245   0.00000  Uiso   1.00
N92    N     0.26493   0.48384   0.40655   0.00000  Uiso   1.00
C93    C     0.76778   0.33488   0.31106   0.00000  Uiso   1.00
C94    C     0.79960   0.30988   0.35506   0.00000  Uiso   1.00
C95    C     0.84310   0.28886   0.34316   0.00000  Uiso   1.00
C96    C     0.86675   0.26781   0.38937   0.00000  Uiso   1.00
C97    C     0.91907   0.22898   0.44916   0.00000  Uiso   1.00
C98    C     0.71979   0.30991   0.31421   0.00000  Uiso   1.00
C99    C     0.69618   0.28892   0.26796   0.00000  Uiso   1.00
C100   C     0.65263   0.26790   0.27979   0.00000  Uiso   1.00
C101   C     0.58102   0.22915   0.27616   0.00000  Uiso   1.00
C102   C     0.75972   0.38483   0.33464   0.00000  Uiso   1.00
C103   C     0.76967   0.42684   0.30556   0.00000  Uiso   1.00
C104   C     0.75973   0.46890   0.33458   0.00000  Uiso   1.00
C105   C     0.75012   0.54648   0.36266   0.00000  Uiso   1.00
C106   C     0.73241   0.33488   0.41429   0.00000  Uiso   1.00
C107   C     0.78039   0.30989   0.41113   0.00000  Uiso   1.00
C108   C     0.80397   0.28887   0.45737   0.00000  Uiso   1.00
C109   C     0.84750   0.26782   0.44554   0.00000  Uiso   1.00
C110   C     0.70057   0.30992   0.37028   0.00000  Uiso   1.00
C111   C     0.65705   0.28893   0.38218   0.00000  Uiso   1.00
C112   C     0.63339   0.26791   0.33596   0.00000  Uiso   1.00
C113   C     0.74050   0.38484   0.39071   0.00000  Uiso   1.00
C114   C     0.73054   0.42685   0.41978   0.00000  Uiso   1.00
C115   C     0.74048   0.46891   0.39075   0.00000  Uiso   1.00
H116   H     0.78274   0.33487   0.26740   0.00000  Uiso   1.00
H117   H     0.85796   0.28886   0.29975   0.00000  Uiso   1.00
H118   H     0.71106   0.28893   0.22458   0.00000  Uiso   1.00
H119   H     0.78454   0.42682   0.26217   0.00000  Uiso   1.00
H120   H     0.93288   0.23783   0.36035   0.00000  Uiso   1.00
H121   H     0.62312   0.23799   0.20183   0.00000  Uiso   1.00
H122   H     0.77807   0.52877   0.28110   0.00000  Uiso   1.00
H123   H     0.71745   0.33489   0.45795   0.00000  Uiso   1.00
H124   H     0.78909   0.28887   0.50076   0.00000  Uiso   1.00
H125   H     0.64219   0.28894   0.42558   0.00000  Uiso   1.00
H126   H     0.71567   0.42683   0.46317   0.00000  Uiso   1.00
H127   H     0.87698   0.23784   0.52349   0.00000  Uiso   1.00
H128   H     0.56722   0.23800   0.36496   0.00000  Uiso   1.00
H129   H     0.72217   0.52878   0.44424   0.00000  Uiso   1.00
O130   O     0.95323   0.20756   0.46665   0.00000  Uiso   1.00
O131   O     0.54684   0.20777   0.25866   0.00000  Uiso   1.00
O132   O     0.75013   0.58926   0.36267   0.00000  Uiso   1.00
N133   N     0.90989   0.24416   0.39287   0.00000  Uiso   1.00
N134   N     0.62029   0.24430   0.24466   0.00000  Uiso   1.00
N135   N     0.76514   0.51615   0.31877   0.00000  Uiso   1.00
N136   N     0.87982   0.24416   0.48066   0.00000  Uiso   1.00
N137   N     0.59022   0.24430   0.33245   0.00000  Uiso   1.00
N138   N     0.73507   0.51616   0.40655   0.00000  Uiso   1.00
C139   C     0.26778   0.83488   0.81106   0.00000  Uiso   1.00
C140   C     0.29960   0.80988   0.85506   0.00000  Uiso   1.00
C141   C     0.34310   0.78886   0.84316   0.00000  Uiso   1.00
C142   C     0.36675   0.76781   0.88937   0.00000  Uiso   1.00
C143   C     0.41907   0.72898   0.94916   0.00000  Uiso   1.00
C144   C     0.21979   0.80991   0.81421   0.00000  Uiso   1.00
C145   C     0.19618   0.78892   0.76796   0.00000  Uiso   1.00
C146   C     0.15263   0.76790   0.77979   0.00000  Uiso   1.00
C147   C     0.08102   0.72915   0.77616   0.00000  Uiso   1.00
C148   C     0.25972   0.88483   0.83464   0.00000  Uiso   1.00
C149   C     0.26967   0.92684   0.80556   0.00000  Uiso   1.00
C150   C     0.25973   0.96890   0.83458   0.00000  Uiso   1.00
C151   C     0.25012   0.04648   0.86266   0.00000  Uiso   1.00
C152   C     0.23241   0.83488   0.91429   0.00000  Uiso   1.00
C153   C     0.28039   0.80989   0.91113   0.00000  Uiso   1.00
C154   C     0.30397   0.78887   0.95737   0.00000  Uiso   1.00
C155   C     0.34750   0.76782   0.94554   0.00000  Uiso   1.00
C156   C     0.20057   0.80992   0.87028   0.00000  Uiso   1.00
C157   C     0.15705   0.78893   0.88218   0.00000  Uiso   1.00
C158   C     0.13339   0.76791   0.83596   0.00000  Uiso   1.00
C159   C     0.24050   0.88484   0.89071   0.00000  Uiso   1.00
C160   C     0.23054   0.92685   0.91978   0.00000  Uiso   1.00
C161   C     0.24048   0.96891   0.89075   0.00000  Uiso   1.00
H162   H     0.28274   0.83487   0.76740   0.00000  Uiso   1.00
H163   H     0.35796   0.78886   0.79975   0.00000  Uiso   1.00
H164   H     0.21106   0.78893   0.72458   0.00000  Uiso   1.00
H165   H     0.28454   0.92682   0.76217   0.00000  Uiso   1.00
H166   H     0.43288   0.73783   0.86035   0.00000  Uiso   1.00
H167   H     0.12312   0.73799   0.70183   0.00000  Uiso   1.00
H168   H     0.27807   0.02877   0.78110   0.00000  Uiso   1.00
H169   H     0.21745   0.83489   0.95795   0.00000  Uiso   1.00
H170   H     0.28909   0.78887   0.00076   0.00000  Uiso   1.00
H171   H     0.14219   0.78894   0.92558   0.00000  Uiso   1.00
H172   H     0.21567   0.92683   0.96317   0.00000  Uiso   1.00
H173   H     0.37698   0.73784   0.02349   0.00000  Uiso   1.00
H174   H     0.06722   0.73800   0.86496   0.00000  Uiso   1.00
H175   H     0.22217   0.02878   0.94424   0.00000  Uiso   1.00
O176   O     0.45323   0.70756   0.96665   0.00000  Uiso   1.00
O177   O     0.04684   0.70777   0.75866   0.00000  Uiso   1.00
O178   O     0.25013   0.08926   0.86267   0.00000  Uiso   1.00
N179   N     0.40989   0.74416   0.89287   0.00000  Uiso   1.00
N180   N     0.12029   0.74430   0.74466   0.00000  Uiso   1.00
N181   N     0.26514   0.01615   0.81877   0.00000  Uiso   1.00
N182   N     0.37982   0.74416   0.98066   0.00000  Uiso   1.00
N183   N     0.09022   0.74430   0.83245   0.00000  Uiso   1.00
N184   N     0.23507   0.01616   0.90655   0.00000  Uiso   1.00
C185   C     0.83488   0.23222   0.06106   0.00000  Uiso   1.00
C186   C     0.80988   0.20040   0.10506   0.00000  Uiso   1.00
C187   C     0.78886   0.15690   0.09316   0.00000  Uiso   1.00
C188   C     0.76781   0.13325   0.13937   0.00000  Uiso   1.00
C189   C     0.72898   0.08093   0.19916   0.00000  Uiso   1.00
C190   C     0.80991   0.28021   0.06421   0.00000  Uiso   1.00
C191   C     0.78892   0.30382   0.01796   0.00000  Uiso   1.00
C192   C     0.76790   0.34737   0.02979   0.00000  Uiso   1.00
C193   C     0.72915   0.41898   0.02616   0.00000  Uiso   1.00
C194   C     0.88483   0.24028   0.08464   0.00000  Uiso   1.00
C195   C     0.92684   0.23033   0.05556   0.00000  Uiso   1.00
C196   C     0.96890   0.24027   0.08458   0.00000  Uiso   1.00
C197   C     0.04648   0.24988   0.11266   0.00000  Uiso   1.00
C198   C     0.83488   0.26759   0.16429   0.00000  Uiso   1.00
C199   C     0.80989   0.21961   0.16113   0.00000  Uiso   1.00
C200   C     0.78887   0.19603   0.20737   0.00000  Uiso   1.00
C201   C     0.76782   0.15250   0.19554   0.00000  Uiso   1.00
C202   C     0.80992   0.29943   0.12028   0.00000  Uiso   1.00
C203   C     0.78893   0.34295   0.13218   0.00000  Uiso   1.00
C204   C     0.76791   0.36661   0.08596   0.00000  Uiso   1.00
C205   C     0.88484   0.25950   0.14071   0.00000  Uiso   1.00
C206   C     0.92685   0.26946   0.16978   0.00000  Uiso   1.00
C207   C     0.96891   0.25952   0.14075   0.00000  Uiso   1.00
H208   H     0.83487   0.21726   0.01740   0.00000  Uiso   1.00
H209   H     0.78886   0.14204   0.04975   0.00000  Uiso   1.00
H210   H     0.78893   0.28894   0.97458   0.00000  Uiso   1.00
H211   H     0.92682   0.21546   0.01217   0.00000  Uiso   1.00
H212   H     0.73783   0.06712   0.11035   0.00000  Uiso   1.00
H213   H     0.73799   0.37688   0.95183   0.00000  Uiso   1.00
H214   H     0.02877   0.22193   0.03110   0.00000  Uiso   1.00
H215   H     0.83489   0.28255   0.20795   0.00000  Uiso   1.00
H216   H     0.78887   0.21091   0.25076   0.00000  Uiso   1.00
H217   H     0.78894   0.35781   0.17558   0.00000  Uiso   1.00
H218   H     0.92683   0.28433   0.21317   0.00000  Uiso   1.00
H219   H     0.73784   0.12302   0.27349   0.00000  Uiso   1.00
H220   H     0.73800   0.43278   0.11496   0.00000  Uiso   1.00
H221   H     0.02878   0.27783   0.19424   0.00000  Uiso   1.00
O222   O     0.70756   0.04677   0.21665   0.00000  Uiso   1.00
O223   O     0.70777   0.45316   0.00866   0.00000  Uiso   1.00
O224   O     0.08926   0.24987   0.11267   0.00000  Uiso   1.00
N225   N     0.74416   0.09011   0.14287   0.00000  Uiso   1.00
N226   N     0.74430   0.37971   0.99466   0.00000  Uiso   1.00
N227   N     0.01615   0.23486   0.06877   0.00000  Uiso   1.00
N228   N     0.74416   0.12018   0.23066   0.00000  Uiso   1.00
N229   N     0.74430   0.40978   0.08245   0.00000  Uiso   1.00
N230   N     0.01616   0.26493   0.15655   0.00000  Uiso   1.00
C231   C     0.33488   0.73222   0.56106   0.00000  Uiso   1.00
C232   C     0.30988   0.70040   0.60506   0.00000  Uiso   1.00
C233   C     0.28886   0.65690   0.59316   0.00000  Uiso   1.00
C234   C     0.26781   0.63325   0.63937   0.00000  Uiso   1.00
C235   C     0.22898   0.58093   0.69916   0.00000  Uiso   1.00
C236   C     0.30991   0.78021   0.56421   0.00000  Uiso   1.00
C237   C     0.28892   0.80382   0.51796   0.00000  Uiso   1.00
C238   C     0.26790   0.84737   0.52979   0.00000  Uiso   1.00
C239   C     0.22915   0.91898   0.52616   0.00000  Uiso   1.00
C240   C     0.38483   0.74028   0.58464   0.00000  Uiso   1.00
C241   C     0.42684   0.73033   0.55556   0.00000  Uiso   1.00
C242   C     0.46890   0.74027   0.58458   0.00000  Uiso   1.00
C243   C     0.54648   0.74988   0.61266   0.00000  Uiso   1.00
C244   C     0.33488   0.76759   0.66429   0.00000  Uiso   1.00
C245   C     0.30989   0.71961   0.66113   0.00000  Uiso   1.00
C246   C     0.28887   0.69603   0.70737   0.00000  Uiso   1.00
C247   C     0.26782   0.65250   0.69554   0.00000  Uiso   1.00
C248   C     0.30992   0.79943   0.62028   0.00000  Uiso   1.00
C249   C     0.28893   0.84295   0.63218   0.00000  Uiso   1.00
C250   C     0.26791   0.86661   0.58596   0.00000  Uiso   1.00
C251   C     0.38484   0.75950   0.64071   0.00000  Uiso   1.00
C252   C     0.42685   0.76946   0.66978   0.00000  Uiso   1.00
C253   C     0.46891   0.75952   0.64075   0.00000  Uiso   1.00
H254   H     0.33487   0.71726   0.51740   0.00000  Uiso   1.00
H255   H     0.28886   0.64204   0.54975   0.00000  Uiso   1.00
H256   H     0.28893   0.78894   0.47458   0.00000  Uiso   1.00
H257   H     0.42682   0.71546   0.51217   0.00000  Uiso   1.00
H258   H     0.23783   0.56712   0.61035   0.00000  Uiso   1.00
H259   H     0.23799   0.87688   0.45183   0.00000  Uiso   1.00
H260   H     0.52877   0.72193   0.53110   0.00000  Uiso   1.00
H261   H     0.33489   0.78255   0.70795   0.00000  Uiso   1.00
H262   H     0.28887   0.71091   0.75076   0.00000  Uiso   1.00
H263   H     0.28894   0.85781   0.67558   0.00000  Uiso   1.00
H264   H     0.42683   0.78433   0.71317   0.00000  Uiso   1.00
H265   H     0.23784   0.62302   0.77349   0.00000  Uiso   1.00
H266   H     0.23800   0.93278   0.61496   0.00000  Uiso   1.00
H267   H     0.52878   0.77783   0.69424   0.00000  Uiso   1.00
O268   O     0.20756   0.54677   0.71665   0.00000  Uiso   1.00
O269   O     0.20777   0.95316   0.50866   0.00000  Uiso   1.00
O270   O     0.58926   0.74987   0.61267   0.00000  Uiso   1.00
N271   N     0.24416   0.59011   0.64287   0.00000  Uiso   1.00
N272   N     0.24430   0.87971   0.49466   0.00000  Uiso   1.00
N273   N     0.51615   0.73486   0.56877   0.00000  Uiso   1.00
N274   N     0.24416   0.62018   0.73066   0.00000  Uiso   1.00
N275   N     0.24430   0.90978   0.58245   0.00000  Uiso   1.00
N276   N     0.51616   0.76493   0.65655   0.00000  Uiso   1.00
C277   C     0.66512   0.26778   0.56106   0.00000  Uiso   1.00
C278   C     0.69012   0.29960   0.60506   0.00000  Uiso   1.00
C279   C     0.71114   0.34310   0.59316   0.00000  Uiso   1.00
C280   C     0.73219   0.36675   0.63937   0.00000  Uiso   1.00
C281   C     0.77102   0.41907   0.69916   0.00000  Uiso   1.00
C282   C     0.69009   0.21979   0.56421   0.00000  Uiso   1.00
C283   C     0.71108   0.19618   0.51796   0.00000  Uiso   1.00
C284   C     0.73210   0.15263   0.52979   0.00000  Uiso   1.00
C285   C     0.77085   0.08102   0.52616   0.00000  Uiso   1.00
C286   C     0.61517   0.25972   0.58464   0.00000  Uiso   1.00
C287   C     0.57316   0.26967   0.55556   0.00000  Uiso   1.00
C288   C     0.53110   0.25973   0.58458   0.00000  Uiso   1.00
C289   C     0.45352   0.25012   0.61266   0.00000  Uiso   1.00
C290   C     0.66512   0.23241   0.66429   0.00000  Uiso   1.00
C291   C     0.69011   0.28039   0.66113   0.00000  Uiso   1.00
C292   C     0.71113   0.30397   0.70737   0.00000  Uiso   1.00
C293   C     0.73218   0.34750   0.69554   0.00000  Uiso   1.00
C294   C     0.69008   0.20057   0.62028   0.00000  Uiso   1.00
C295   C     0.71107   0.15705   0.63218   0.00000  Uiso   1.00
C296   C     0.73209   0.13339   0.58596   0.00000  Uiso   1.00
C297   C     0.61516   0.24050   0.64071   0.00000  Uiso   1.00
C298   C     0.57315   0.23054   0.66978   0.00000  Uiso   1.00
C299   C     0.53109   0.24048   0.64075   0.00000  Uiso   1.00
H300   H     0.66513   0.28274   0.51740   0.00000  Uiso   1.00
H301   H     0.71114   0.35796   0.54975   0.00000  Uiso   1.00
H302   H     0.71107   0.21106   0.47458   0.00000  Uiso   1.00
H303   H     0.57318   0.28454   0.51217   0.00000  Uiso   1.00
H304   H     0.76217   0.43288   0.61035   0.00000  Uiso   1.00
H305   H     0.76201   0.12312   0.45183   0.00000  Uiso   1.00
H306   H     0.47123   0.27807   0.53110   0.00000  Uiso   1.00
H307   H     0.66511   0.21745   0.70795   0.00000  Uiso   1.00
H308   H     0.71113   0.28909   0.75076   0.00000  Uiso   1.00
H309   H     0.71106   0.14219   0.67558   0.00000  Uiso   1.00
H310   H     0.57317   0.21567   0.71317   0.00000  Uiso   1.00
H311   H     0.76216   0.37698   0.77349   0.00000  Uiso   1.00
H312   H     0.76200   0.06722   0.61496   0.00000  Uiso   1.00
H313   H     0.47122   0.22217   0.69424   0.00000  Uiso   1.00
O314   O     0.79244   0.45323   0.71665   0.00000  Uiso   1.00
O315   O     0.79223   0.04684   0.50866   0.00000  Uiso   1.00
O316   O     0.41074   0.25013   0.61267   0.00000  Uiso   1.00
N317   N     0.75584   0.40989   0.64287   0.00000  Uiso   1.00
N318   N     0.75570   0.12029   0.49466   0.00000  Uiso   1.00
N319   N     0.48385   0.26514   0.56877   0.00000  Uiso   1.00
N320   N     0.75584   0.37982   0.73066   0.00000  Uiso   1.00
N321   N     0.75570   0.09022   0.58245   0.00000  Uiso   1.00
N322   N     0.48384   0.23507   0.65655   0.00000  Uiso   1.00
C323   C     0.16512   0.76778   0.06106   0.00000  Uiso   1.00
C324   C     0.19012   0.79960   0.10506   0.00000  Uiso   1.00
C325   C     0.21114   0.84310   0.09316   0.00000  Uiso   1.00
C326   C     0.23219   0.86675   0.13937   0.00000  Uiso   1.00
C327   C     0.27102   0.91907   0.19916   0.00000  Uiso   1.00
C328   C     0.19009   0.71979   0.06421   0.00000  Uiso   1.00
C329   C     0.21108   0.69618   0.01796   0.00000  Uiso   1.00
C330   C     0.23210   0.65263   0.02979   0.00000  Uiso   1.00
C331   C     0.27085   0.58102   0.02616   0.00000  Uiso   1.00
C332   C     0.11517   0.75972   0.08464   0.00000  Uiso   1.00
C333   C     0.07316   0.76967   0.05556   0.00000  Uiso   1.00
C334   C     0.03110   0.75973   0.08458   0.00000  Uiso   1.00
C335   C     0.95352   0.75012   0.11266   0.00000  Uiso   1.00
C336   C     0.16512   0.73241   0.16429   0.00000  Uiso   1.00
C337   C     0.19011   0.78039   0.16113   0.00000  Uiso   1.00
C338   C     0.21113   0.80397   0.20737   0.00000  Uiso   1.00
C339   C     0.23218   0.84750   0.19554   0.00000  Uiso   1.00
C340   C     0.19008   0.70057   0.12028   0.00000  Uiso   1.00
C341   C     0.21107   0.65705   0.13218   0.00000  Uiso   1.00
C342   C     0.23209   0.63339   0.08596   0.00000  Uiso   1.00
C343   C     0.11516   0.74050   0.14071   0.00000  Uiso   1.00
C344   C     0.07315   0.73054   0.16978   0.00000  Uiso   1.00
C345   C     0.03109   0.74048   0.14075   0.00000  Uiso   1.00
H346   H     0.16513   0.78274   0.01740   0.00000  Uiso   1.00
H347   H     0.21114   0.85796   0.04975   0.00000  Uiso   1.00
H348   H     0.21107   0.71106   0.97458   0.00000  Uiso   1.00
H349   H     0.07318   0.78454   0.01217   0.00000  Uiso   1.00
H350   H     0.26217   0.93288   0.11035   0.00000  Uiso   1.00
H351   H     0.26201   0.62312   0.95183   0.00000  Uiso   1.00
H352   H     0.97123   0.77807   0.03110   0.00000  Uiso   1.00
H353   H     0.16511   0.71745   0.20795   0.00000  Uiso   1.00
H354   H     0.21113   0.78909   0.25076   0.00000  Uiso   1.00
H355   H     0.21106   0.64219   0.17558   0.00000  Uiso   1.00
H356   H     0.07317   0.71567   0.21317   0.00000  Uiso   1.00
H357   H     0.26216   0.87698   0.27349   0.00000  Uiso   1.00
H358   H     0.26200   0.56722   0.11496   0.00000  Uiso   1.00
H359   H     0.97122   0.72217   0.19424   0.00000  Uiso   1.00
O360   O     0.29244   0.95323   0.21665   0.00000  Uiso   1.00
O361   O     0.29223   0.54684   0.00866   0.00000  Uiso   1.00
O362   O     0.91074   0.75013   0.11267   0.00000  Uiso   1.00
N363   N     0.25584   0.90989   0.14287   0.00000  Uiso   1.00
N364   N     0.25570   0.62029   0.99466   0.00000  Uiso   1.00
N365   N     0.98385   0.76514   0.06877   0.00000  Uiso   1.00
N366   N     0.25584   0.87982   0.23066   0.00000  Uiso   1.00
N367   N     0.25570   0.59022   0.08245   0.00000  Uiso   1.00
N368   N     0.98384   0.73507   0.15655   0.00000  Uiso   1.00
C369   C     0.73222   0.83488   0.31106   0.00000  Uiso   1.00
C370   C     0.70040   0.80988   0.35506   0.00000  Uiso   1.00
C371   C     0.65690   0.78886   0.34316   0.00000  Uiso   1.00
C372   C     0.63325   0.76781   0.38937   0.00000  Uiso   1.00
C373   C     0.58093   0.72898   0.44916   0.00000  Uiso   1.00
C374   C     0.78021   0.80991   0.31421   0.00000  Uiso   1.00
C375   C     0.80382   0.78892   0.26796   0.00000  Uiso   1.00
C376   C     0.84737   0.76790   0.27979   0.00000  Uiso   1.00
C377   C     0.91898   0.72915   0.27616   0.00000  Uiso   1.00
C378   C     0.74028   0.88483   0.33464   0.00000  Uiso   1.00
C379   C     0.73033   0.92684   0.30556   0.00000  Uiso   1.00
C380   C     0.74027   0.96890   0.33458   0.00000  Uiso   1.00
C381   C     0.74988   0.04648   0.36266   0.00000  Uiso   1.00
C382   C     0.76759   0.83488   0.41429   0.00000  Uiso   1.00
C383   C     0.71961   0.80989   0.41113   0.00000  Uiso   1.00
C384   C     0.69603   0.78887   0.45737   0.00000  Uiso   1.00
C385   C     0.65250   0.76782   0.44554   0.00000  Uiso   1.00
C386   C     0.79943   0.80992   0.37028   0.00000  Uiso   1.00
C387   C     0.84295   0.78893   0.38218   0.00000  Uiso   1.00
C388   C     0.86661   0.76791   0.33596   0.00000  Uiso   1.00
C389   C     0.75950   0.88484   0.39071   0.00000  Uiso   1.00
C390   C     0.76946   0.92685   0.41978   0.00000  Uiso   1.00
C391   C     0.75952   0.96891   0.39075   0.00000  Uiso   1.00
H392   H     0.71726   0.83487   0.26740   0.00000  Uiso   1.00
H393   H     0.64204   0.78886   0.29975   0.00000  Uiso   1.00
H394   H     0.78894   0.78893   0.22458   0.00000  Uiso   1.00
H395   H     0.71546   0.92682   0.26217   0.00000  Uiso   1.00
H396   H     0.56712   0.73783   0.36035   0.00000  Uiso   1.00
H397   H     0.87688   0.73799   0.20183   0.00000  Uiso   1.00
H398   H     0.72193   0.02877   0.28110   0.00000  Uiso   1.00
H399   H     0.78255   0.83489   0.45795   0.00000  Uiso   1.00
H400   H     0.71091   0.78887   0.50076   0.00000  Uiso   1.00
H401   H     0.85781   0.78894   0.42558   0.00000  Uiso   1.00
H402   H     0.78433   0.92683   0.46317   0.00000  Uiso   1.00
H403   H     0.62302   0.73784   0.52349   0.00000  Uiso   1.00
H404   H     0.93278   0.73800   0.36496   0.00000  Uiso   1.00
H405   H     0.77783   0.02878   0.44424   0.00000  Uiso   1.00
O406   O     0.54677   0.70756   0.46665   0.00000  Uiso   1.00
O407   O     0.95316   0.70777   0.25866   0.00000  Uiso   1.00
O408   O     0.74987   0.08926   0.36267   0.00000  Uiso   1.00
N409   N     0.59011   0.74416   0.39287   0.00000  Uiso   1.00
N410   N     0.87971   0.74430   0.24466   0.00000  Uiso   1.00
N411   N     0.73486   0.01615   0.31877   0.00000  Uiso   1.00
N412   N     0.62018   0.74416   0.48066   0.00000  Uiso   1.00
N413   N     0.90978   0.74430   0.33245   0.00000  Uiso   1.00
N414   N     0.76493   0.01616   0.40655   0.00000  Uiso   1.00
C415   C     0.23222   0.33488   0.81106   0.00000  Uiso   1.00
C416   C     0.20040   0.30988   0.85506   0.00000  Uiso   1.00
C417   C     0.15690   0.28886   0.84316   0.00000  Uiso   1.00
C418   C     0.13325   0.26781   0.88937   0.00000  Uiso   1.00
C419   C     0.08093   0.22898   0.94916   0.00000  Uiso   1.00
C420   C     0.28021   0.30991   0.81421   0.00000  Uiso   1.00
C421   C     0.30382   0.28892   0.76796   0.00000  Uiso   1.00
C422   C     0.34737   0.26790   0.77979   0.00000  Uiso   1.00
C423   C     0.41898   0.22915   0.77616   0.00000  Uiso   1.00
C424   C     0.24028   0.38483   0.83464   0.00000  Uiso   1.00
C425   C     0.23033   0.42684   0.80556   0.00000  Uiso   1.00
C426   C     0.24027   0.46890   0.83458   0.00000  Uiso   1.00
C427   C     0.24988   0.54648   0.86266   0.00000  Uiso   1.00
C428   C     0.26759   0.33488   0.91429   0.00000  Uiso   1.00
C429   C     0.21961   0.30989   0.91113   0.00000  Uiso   1.00
C430   C     0.19603   0.28887   0.95737   0.00000  Uiso   1.00
C431   C     0.15250   0.26782   0.94554   0.00000  Uiso   1.00
C432   C     0.29943   0.30992   0.87028   0.00000  Uiso   1.00
C433   C     0.34295   0.28893   0.88218   0.00000  Uiso   1.00
C434   C     0.36661   0.26791   0.83596   0.00000  Uiso   1.00
C435   C     0.25950   0.38484   0.89071   0.00000  Uiso   1.00
C436   C     0.26946   0.42685   0.91978   0.00000  Uiso   1.00
C437   C     0.25952   0.46891   0.89075   0.00000  Uiso   1.00
H438   H     0.21726   0.33487   0.76740   0.00000  Uiso   1.00
H439   H     0.14204   0.28886   0.79975   0.00000  Uiso   1.00
H440   H     0.28894   0.28893   0.72458   0.00000  Uiso   1.00
H441   H     0.21546   0.42682   0.76217   0.00000  Uiso   1.00
H442   H     0.06712   0.23783   0.86035   0.00000  Uiso   1.00
H443   H     0.37688   0.23799   0.70183   0.00000  Uiso   1.00
H444   H     0.22193   0.52877   0.78110   0.00000  Uiso   1.00
H445   H     0.28255   0.33489   0.95795   0.00000  Uiso   1.00
H446   H     0.21091   0.28887   0.00076   0.00000  Uiso   1.00
H447   H     0.35781   0.28894   0.92558   0.00000  Uiso   1.00
H448   H     0.28433   0.42683   0.96317   0.00000  Uiso   1.00
H449   H     0.12302   0.23784   0.02349   0.00000  Uiso   1.00
H450   H     0.43278   0.23800   0.86496   0.00000  Uiso   1.00
H451   H     0.27783   0.52878   0.94424   0.00000  Uiso   1.00
O452   O     0.04677   0.20756   0.96665   0.00000  Uiso   1.00
O453   O     0.45316   0.20777   0.75866   0.00000  Uiso   1.00
O454   O     0.24987   0.58926   0.86267   0.00000  Uiso   1.00
N455   N     0.09011   0.24416   0.89287   0.00000  Uiso   1.00
N456   N     0.37971   0.24430   0.74466   0.00000  Uiso   1.00
N457   N     0.23486   0.51615   0.81877   0.00000  Uiso   1.00
N458   N     0.12018   0.24416   0.98066   0.00000  Uiso   1.00
N459   N     0.40978   0.24430   0.83245   0.00000  Uiso   1.00
N460   N     0.26493   0.51616   0.90655   0.00000  Uiso   1.00
C461   C     0.76778   0.66512   0.81106   0.00000  Uiso   1.00
C462   C     0.79960   0.69012   0.85506   0.00000  Uiso   1.00
C463   C     0.84310   0.71114   0.84316   0.00000  Uiso   1.00
C464   C     0.86675   0.73219   0.88937   0.00000  Uiso   1.00
C465   C     0.91907   0.77102   0.94916   0.00000  Uiso   1.00
C466   C     0.71979   0.69009   0.81421   0.00000  Uiso   1.00
C467   C     0.69618   0.71108   0.76796   0.00000  Uiso   1.00
C468   C     0.65263   0.73210   0.77979   0.00000  Uiso   1.00
C469   C     0.58102   0.77085   0.77616   0.00000  Uiso   1.00
C470   C     0.75972   0.61517   0.83464   0.00000  Uiso   1.00
C471   C     0.76967   0.57316   0.80556   0.00000  Uiso   1.00
C472   C     0.75973   0.53110   0.83458   0.00000  Uiso   1.00
C473   C     0.75012   0.45352   0.86266   0.00000  Uiso   1.00
C474   C     0.73241   0.66512   0.91429   0.00000  Uiso   1.00
C475   C     0.78039   0.69011   0.91113   0.00000  Uiso   1.00
C476   C     0.80397   0.71113   0.95737   0.00000  Uiso   1.00
C477   C     0.84750   0.73218   0.94554   0.00000  Uiso   1.00
C478   C     0.70057   0.69008   0.87028   0.00000  Uiso   1.00
C479   C     0.65705   0.71107   0.88218   0.00000  Uiso   1.00
C480   C     0.63339   0.73209   0.83596   0.00000  Uiso   1.00
C481   C     0.74050   0.61516   0.89071   0.00000  Uiso   1.00
C482   C     0.73054   0.57315   0.91978   0.00000  Uiso   1.00
C483   C     0.74048   0.53109   0.89075   0.00000  Uiso   1.00
H484   H     0.78274   0.66513   0.76740   0.00000  Uiso   1.00
H485   H     0.85796   0.71114   0.79975   0.00000  Uiso   1.00
H486   H     0.71106   0.71107   0.72458   0.00000  Uiso   1.00
H487   H     0.78454   0.57318   0.76217   0.00000  Uiso   1.00
H488   H     0.93288   0.76217   0.86035   0.00000  Uiso   1.00
H489   H     0.62312   0.76201   0.70183   0.00000  Uiso   1.00
H490   H     0.77807   0.47123   0.78110   0.00000  Uiso   1.00
H491   H     0.71745   0.66511   0.95795   0.00000  Uiso   1.00
H492   H     0.78909   0.71113   0.00076   0.00000  Uiso   1.00
H493   H     0.64219   0.71106   0.92558   0.00000  Uiso   1.00
H494   H     0.71567   0.57317   0.96317   0.00000  Uiso   1.00
H495   H     0.87698   0.76216   0.02349   0.00000  Uiso   1.00
H496   H     0.56722   0.76200   0.86496   0.00000  Uiso   1.00
H497   H     0.72217   0.47122   0.94424   0.00000  Uiso   1.00
O498   O     0.95323   0.79244   0.96665   0.00000  Uiso   1.00
O499   O     0.54684   0.79223   0.75866   0.00000  Uiso   1.00
O500   O     0.75013   0.41074   0.86267   0.00000  Uiso   1.00
N501   N     0.90989   0.75584   0.89287   0.00000  Uiso   1.00
N502   N     0.62029   0.75570   0.74466   0.00000  Uiso   1.00
N503   N     0.76514   0.48385   0.81877   0.00000  Uiso   1.00
N504   N     0.87982   0.75584   0.98066   0.00000  Uiso   1.00
N505   N     0.59022   0.75570   0.83245   0.00000  Uiso   1.00
N506   N     0.73507   0.48384   0.90655   0.00000  Uiso   1.00
C507   C     0.26778   0.16512   0.31106   0.00000  Uiso   1.00
C508   C     0.29960   0.19012   0.35506   0.00000  Uiso   1.00
C509   C     0.34310   0.21114   0.34316   0.00000  Uiso   1.00
C510   C     0.36675   0.23219   0.38937   0.00000  Uiso   1.00
C511   C     0.41907   0.27102   0.44916   0.00000  Uiso   1.00
C512   C     0.21979   0.19009   0.31421   0.00000  Uiso   1.00
C513   C     0.19618   0.21108   0.26796   0.00000  Uiso   1.00
C514   C     0.15263   0.23210   0.27979   0.00000  Uiso   1.00
C515   C     0.08102   0.27085   0.27616   0.00000  Uiso   1.00
C516   C     0.25972   0.11517   0.33464   0.00000  Uiso   1.00
C517   C     0.26967   0.07316   0.30556   0.00000  Uiso   1.00
C518   C     0.25973   0.03110   0.33458   0.00000  Uiso   1.00
C519   C     0.25012   0.95352   0.36266   0.00000  Uiso   1.00
C520   C     0.23241   0.16512   0.41429   0.00000  Uiso   1.00
C521   C     0.28039   0.19011   0.41113   0.00000  Uiso   1.00
C522   C     0.30397   0.21113   0.45737   0.00000  Uiso   1.00
C523   C     0.34750   0.23218   0.44554   0.00000  Uiso   1.00
C524   C     0.20057   0.19008   0.37028   0.00000  Uiso   1.00
C525   C     0.15705   0.21107   0.38218   0.00000  Uiso   1.00
C526   C     0.13339   0.23209   0.33596   0.00000  Uiso   1.00
C527   C     0.24050   0.11516   0.39071   0.00000  Uiso   1.00
C528   C     0.23054   0.07315   0.41978   0.00000  Uiso   1.00
C529   C     0.24048   0.03109   0.39075   0.00000  Uiso   1.00
H530   H     0.28274   0.16513   0.26740   0.00000  Uiso   1.00
H531   H     0.35796   0.21114   0.29975   0.00000  Uiso   1.00
H532   H     0.21106   0.21107   0.22458   0.00000  Uiso   1.00
H533   H     0.28454   0.07318   0.26217   0.00000  Uiso   1.00
H534   H     0.43288   0.26217   0.36035   0.00000  Uiso   1.00
H535   H     0.12312   0.26201   0.20183   0.00000  Uiso   1.00
H536   H     0.27807   0.97123   0.28110   0.00000  Uiso   1.00
H537   H     0.21745   0.16511   0.45795   0.00000  Uiso   1.00
H538   H     0.28909   0.21113   0.50076   0.00000  Uiso   1.00
H539   H     0.14219   0.21106   0.42558   0.00000  Uiso   1.00
H540   H     0.21567   0.07317   0.46317   0.00000  Uiso   1.00
H541   H     0.37698   0.26216   0.52349   0.00000  Uiso   1.00
H542   H     0.06722   0.26200   0.36496   0.00000  Uiso   1.00
H543   H     0.22217   0.97122   0.44424   0.00000  Uiso   1.00
O544   O     0.45323   0.29244   0.46665   0.00000  Uiso   1.00
O545   O     0.04684   0.29223   0.25866   0.00000  Uiso   1.00
O546   O     0.25013   0.91074   0.36267   0.00000  Uiso   1.00
N547   N     0.40989   0.25584   0.39287   0.00000  Uiso   1.00
N548   N     0.12029   0.25570   0.24466   0.00000  Uiso   1.00
N549   N     0.26514   0.98385   0.31877   0.00000  Uiso   1.00
N550   N     0.37982   0.25584   0.48066   0.00000  Uiso   1.00
N551   N     0.09022   0.25570   0.33245   0.00000  Uiso   1.00
N552   N     0.23507   0.98384   0.40655   0.00000  Uiso   1.00
C553   C     0.83488   0.76778   0.56106   0.00000  Uiso   1.00
C554   C     0.80988   0.79960   0.60506   0.00000  Uiso   1.00
C555   C     0.78886   0.84310   0.59316   0.00000  Uiso   1.00
C556   C     0.76781   0.86675   0.63937   0.00000  Uiso   1.00
C557   C     0.72898   0.91907   0.69916   0.00000  Uiso   1.00
C558   C     0.80991   0.71979   0.56421   0.00000  Uiso   1.00
C559   C     0.78892   0.69618   0.51796   0.00000  Uiso   1.00
C560   C     0.76790   0.65263   0.52979   0.00000  Uiso   1.00
C561   C     0.72915   0.58102   0.52616   0.00000  Uiso   1.00
C562   C     0.88483   0.75972   0.58464   0.00000  Uiso   1.00
C563   C     0.92684   0.76967   0.55556   0.00000  Uiso   1.00
C564   C     0.96890   0.75973   0.58458   0.00000  Uiso   1.00
C565   C     0.04648   0.75012   0.61266   0.00000  Uiso   1.00
C566   C     0.83488   0.73241   0.66429   0.00000  Uiso   1.00
C567   C     0.80989   0.78039   0.66113   0.00000  Uiso   1.00
C568   C     0.78887   0.80397   0.70737   0.00000  Uiso   1.00
C569   C     0.76782   0.84750   0.69554   0.00000  Uiso   1.00
C570   C     0.80992   0.70057   0.62028   0.00000  Uiso   1.00
C571   C     0.78893   0.65705   0.63218   0.00000  Uiso   1.00
C572   C     0.76791   0.63339   0.58596   0.00000  Uiso   1.00
C573   C     0.88484   0.74050   0.64071   0.00000  Uiso   1.00
C574   C     0.92685   0.73054   0.66978   0.00000  Uiso   1.00
C575   C     0.96891   0.74048   0.64075   0.00000  Uiso   1.00
H576   H     0.83487   0.78274   0.51740   0.00000  Uiso   1.00
H577   H     0.78886   0.85796   0.54975   0.00000  Uiso   1.00
H578   H     0.78893   0.71106   0.47458   0.00000  Uiso   1.00
H579   H     0.92682   0.78454   0.51217   0.00000  Uiso   1.00
H580   H     0.73783   0.93288   0.61035   0.00000  Uiso   1.00
H581   H     0.73799   0.62312   0.45183   0.00000  Uiso   1.00
H582   H     0.02877   0.77807   0.53110   0.00000  Uiso   1.00
H583   H     0.83489   0.71745   0.70795   0.00000  Uiso   1.00
H584   H     0.78887   0.78909   0.75076   0.00000  Uiso   1.00
H585   H     0.78894   0.64219   0.67558   0.00000  Uiso   1.00
H586   H     0.92683   0.71567   0.71317   0.00000  Uiso   1.00
H587   H     0.73784   0.87698   0.77349   0.00000  Uiso   1.00
H588   H     0.73800   0.56722   0.61496   0.00000  Uiso   1.00
H589   H     0.02878   0.72217   0.69424   0.00000  Uiso   1.00
O590   O     0.70756   0.95323   0.71665   0.00000  Uiso   1.00
O591   O     0.70777   0.54684   0.50866   0.00000  Uiso   1.00
O592   O     0.08926   0.75013   0.61267   0.00000  Uiso   1.00
N593   N     0.74416   0.90989   0.64287   0.00000  Uiso   1.00
N594   N     0.74430   0.62029   0.49466   0.00000  Uiso   1.00
N595   N     0.01615   0.76514   0.56877   0.00000  Uiso   1.00
N596   N     0.74416   0.87982   0.73066   0.00000  Uiso   1.00
N597   N     0.74430   0.59022   0.58245   0.00000  Uiso   1.00
N598   N     0.01616   0.73507   0.65655   0.00000  Uiso   1.00
C599   C     0.33488   0.26778   0.06106   0.00000  Uiso   1.00
C600   C     0.30988   0.29960   0.10506   0.00000  Uiso   1.00
C601   C     0.28886   0.34310   0.09316   0.00000  Uiso   1.00
C602   C     0.26781   0.36675   0.13937   0.00000  Uiso   1.00
C603   C     0.22898   0.41907   0.19916   0.00000  Uiso   1.00
C604   C     0.30991   0.21979   0.06421   0.00000  Uiso   1.00
C605   C     0.28892   0.19618   0.01796   0.00000  Uiso   1.00
C606   C     0.26790   0.15263   0.02979   0.00000  Uiso   1.00
C607   C     0.22915   0.08102   0.02616   0.00000  Uiso   1.00
C608   C     0.38483   0.25972   0.08464   0.00000  Uiso   1.00
C609   C     0.42684   0.26967   0.05556   0.00000  Uiso   1.00
C610   C     0.46890   0.25973   0.08458   0.00000  Uiso   1.00
C611   C     0.54648   0.25012   0.11266   0.00000  Uiso   1.00
C612   C     0.33488   0.23241   0.16429   0.00000  Uiso   1.00
C613   C     0.30989   0.28039   0.16113   0.00000  Uiso   1.00
C614   C     0.28887   0.30397   0.20737   0.00000  Uiso   1.00
C615   C     0.26782   0.34750   0.19554   0.00000  Uiso   1.00
C616   C     0.30992   0.20057   0.12028   0.00000  Uiso   1.00
C617   C     0.28893   0.15705   0.13218   0.00000  Uiso   1.00
C618   C     0.26791   0.13339   0.08596   0.00000  Uiso   1.00
C619   C     0.38484   0.24050   0.14071   0.00000  Uiso   1.00
C620   C     0.42685   0.23054   0.16978   0.00000  Uiso   1.00
C621   C     0.46891   0.24048   0.14075   0.00000  Uiso   1.00
H622   H     0.33487   0.28274   0.01740   0.00000  Uiso   1.00
H623   H     0.28886   0.35796   0.04975   0.00000  Uiso   1.00
H624   H     0.28893   0.21106   0.97458   0.00000  Uiso   1.00
H625   H     0.42682   0.28454   0.01217   0.00000  Uiso   1.00
H626   H     0.23783   0.43288   0.11035   0.00000  Uiso   1.00
H627   H     0.23799   0.12312   0.95183   0.00000  Uiso   1.00
H628   H     0.52877   0.27807   0.03110   0.00000  Uiso   1.00
H629   H     0.33489   0.21745   0.20795   0.00000  Uiso   1.00
H630   H     0.28887   0.28909   0.25076   0.00000  Uiso   1.00
H631   H     0.28894   0.14219   0.17558   0.00000  Uiso   1.00
H632   H     0.42683   0.21567   0.21317   0.00000  Uiso   1.00
H633   H     0.23784   0.37698   0.27349   0.00000  Uiso   1.00
H634   H     0.23800   0.06722   0.11496   0.00000  Uiso   1.00
H635   H     0.52878   0.22217   0.19424   0.00000  Uiso   1.00
O636   O     0.20756   0.45323   0.21665   0.00000  Uiso   1.00
O637   O     0.20777   0.04684   0.00866   0.00000  Uiso   1.00
O638   O     0.58926   0.25013   0.11267   0.00000  Uiso   1.00
N639   N     0.24416   0.40989   0.14287   0.00000  Uiso   1.00
N640   N     0.24430   0.12029   0.99466   0.00000  Uiso   1.00
N641   N     0.51615   0.26514   0.06877   0.00000  Uiso   1.00
N642   N     0.24416   0.37982   0.23066   0.00000  Uiso   1.00
N643   N     0.24430   0.09022   0.08245   0.00000  Uiso   1.00
N644   N     0.51616   0.23507   0.15655   0.00000  Uiso   1.00
C645   C     0.66512   0.73222   0.06106   0.00000  Uiso   1.00
C646   C     0.69012   0.70040   0.10506   0.00000  Uiso   1.00
C647   C     0.71114   0.65690   0.09316   0.00000  Uiso   1.00
C648   C     0.73219   0.63325   0.13937   0.00000  Uiso   1.00
C649   C     0.77102   0.58093   0.19916   0.00000  Uiso   1.00
C650   C     0.69009   0.78021   0.06421   0.00000  Uiso   1.00
C651   C     0.71108   0.80382   0.01796   0.00000  Uiso   1.00
C652   C     0.73210   0.84737   0.02979   0.00000  Uiso   1.00
C653   C     0.77085   0.91898   0.02616   0.00000  Uiso   1.00
C654   C     0.61517   0.74028   0.08464   0.00000  Uiso   1.00
C655   C     0.57316   0.73033   0.05556   0.00000  Uiso   1.00
C656   C     0.53110   0.74027   0.08458   0.00000  Uiso   1.00
C657   C     0.45352   0.74988   0.11266   0.00000  Uiso   1.00
C658   C     0.66512   0.76759   0.16429   0.00000  Uiso   1.00
C659   C     0.69011   0.71961   0.16113   0.00000  Uiso   1.00
C660   C     0.71113   0.69603   0.20737   0.00000  Uiso   1.00
C661   C     0.73218   0.65250   0.19554   0.00000  Uiso   1.00
C662   C     0.69008   0.79943   0.12028   0.00000  Uiso   1.00
C663   C     0.71107   0.84295   0.13218   0.00000  Uiso   1.00
C664   C     0.73209   0.86661   0.08596   0.00000  Uiso   1.00
C665   C     0.61516   0.75950   0.14071   0.00000  Uiso   1.00
C666   C     0.57315   0.76946   0.16978   0.00000  Uiso   1.00
C667   C     0.53109   0.75952   0.14075   0.00000  Uiso   1.00
H668   H     0.66513   0.71726   0.01740   0.00000  Uiso   1.00
H669   H     0.71114   0.64204   0.04975   0.00000  Uiso   1.00
H670   H     0.71107   0.78894   0.97458   0.00000  Uiso   1.00
H671   H     0.57318   0.71546   0.01217   0.00000  Uiso   1.00
H672   H     0.76217   0.56712   0.11035   0.00000  Uiso   1.00
H673   H     0.76201   0.87688   0.95183   0.00000  Uiso   1.00
H674   H     0.47123   0.72193   0.03110   0.00000  Uiso   1.00
H675   H     0.66511   0.78255   0.20795   0.00000  Uiso   1.00
H676   H     0.71113   0.71091   0.25076   0.00000  Uiso   1.00
H677   H     0.71106   0.85781   0.17558   0.00000  Uiso   1.00
H678   H     0.57317   0.78433   0.21317   0.00000  Uiso   1.00
H679   H     0.76216   0.62302   0.27349   0.00000  Uiso   1.00
H680   H     0.76200   0.93278   0.11496   0.00000  Uiso   1.00
H681   H     0.47122   0.77783   0.19424   0.00000  Uiso   1.00
O682   O     0.79244   0.54677   0.21665   0.00000  Uiso   1.00
O683   O     0.79223   0.95316   0.00866   0.00000  Uiso   1.00
O684   O     0.41074   0.74987   0.11267   0.00000  Uiso   1.00
N685   N     0.75584   0.59011   0.14287   0.00000  Uiso   1.00
N686   N     0.75570   0.87971   0.99466   0.00000  Uiso   1.00
N687   N     0.48385   0.73486   0.06877   0.00000  Uiso   1.00
N688   N     0.75584   0.62018   0.23066   0.00000  Uiso   1.00
N689   N     0.75570   0.90978   0.08245   0.00000  Uiso   1.00
N690   N     0.48384   0.76493   0.15655   0.00000  Uiso   1.00
C691   C     0.16512   0.23222   0.56106   0.00000  Uiso   1.00
C692   C     0.19012   0.20040   0.60506   0.00000  Uiso   1.00
C693   C     0.21114   0.15690   0.59316   0.00000  Uiso   1.00
C694   C     0.23219   0.13325   0.63937   0.00000  Uiso   1.00
C695   C     0.27102   0.08093   0.69916   0.00000  Uiso   1.00
C696   C     0.19009   0.28021   0.56421   0.00000  Uiso   1.00
C697   C     0.21108   0.30382   0.51796   0.00000  Uiso   1.00
C698   C     0.23210   0.34737   0.52979   0.00000  Uiso   1.00
C699   C     0.27085   0.41898   0.52616   0.00000  Uiso   1.00
C700   C     0.11517   0.24028   0.58464   0.00000  Uiso   1.00
C701   C     0.07316   0.23033   0.55556   0.00000  Uiso   1.00
C702   C     0.03110   0.24027   0.58458   0.00000  Uiso   1.00
C703   C     0.95352   0.24988   0.61266   0.00000  Uiso   1.00
C704   C     0.16512   0.26759   0.66429   0.00000  Uiso   1.00
C705   C     0.19011   0.21961   0.66113   0.00000  Uiso   1.00
C706   C     0.21113   0.19603   0.70737   0.00000  Uiso   1.00
C707   C     0.23218   0.15250   0.69554   0.00000  Uiso   1.00
C708   C     0.19008   0.29943   0.62028   0.00000  Uiso   1.00
C709   C     0.21107   0.34295   0.63218   0.00000  Uiso   1.00
C710   C     0.23209   0.36661   0.58596   0.00000  Uiso   1.00
C711   C     0.11516   0.25950   0.64071   0.00000  Uiso   1.00
C712   C     0.07315   0.26946   0.66978   0.00000  Uiso   1.00
C713   C     0.03109   0.25952   0.64075   0.00000  Uiso   1.00
H714   H     0.16513   0.21726   0.51740   0.00000  Uiso   1.00
H715   H     0.21114   0.14204   0.54975   0.00000  Uiso   1.00
H716   H     0.21107   0.28894   0.47458   0.00000  Uiso   1.00
H717   H     0.07318   0.21546   0.51217   0.00000  Uiso   1.00
H718   H     0.26217   0.06712   0.61035   0.00000  Uiso   1.00
H719   H     0.26201   0.37688   0.45183   0.00000  Uiso   1.00
H720   H     0.97123   0.22193   0.53110   0.00000  Uiso   1.00
H721   H     0.16511   0.28255   0.70795   0.00000  Uiso   1.00
H722   H     0.21113   0.21091   0.75076   0.00000  Uiso   1.00
H723   H     0.21106   0.35781   0.67558   0.00000  Uiso   1.00
H724   H     0.07317   0.28433   0.71317   0.00000  Uiso   1.00
H725   H     0.26216   0.12302   0.77349   0.00000  Uiso   1.00
H726   H     0.26200   0.43278   0.61496   0.00000  Uiso   1.00
H727   H     0.97122   0.27783   0.69424   0.00000  Uiso   1.00
O728   O     0.29244   0.04677   0.71665   0.00000  Uiso   1.00
O729   O     0.29223   0.45316   0.50866   0.00000  Uiso   1.00
O730   O     0.91074   0.24987   0.61267   0.00000  Uiso   1.00
N731   N     0.25584   0.09011   0.64287   0.00000  Uiso   1.00
N732   N     0.25570   0.37971   0.49466   0.00000  Uiso   1.00
N733   N     0.98385   0.23486   0.56877   0.00000  Uiso   1.00
N734   N     0.25584   0.12018   0.73066   0.00000  Uiso   1.00
N735   N     0.25570   0.40978   0.58245   0.00000  Uiso   1.00
N736   N     0.98384   0.26493   0.65655   0.00000  Uiso   1.00
