data_job_04997
_audit_creation_date              2018-12-19
_audit_creation_method            'Materials Studio'
_symmetry_space_group_name_H-M    'P1'
_symmetry_Int_Tables_number       1
_symmetry_cell_setting            triclinic
loop_
_symmetry_equiv_pos_as_xyz
  x,y,z
_cell_length_a                    39.9055
_cell_length_b                    12.4271
_cell_length_c                    23.1372
_cell_angle_alpha                 90.0000
_cell_angle_beta                  90.0000
_cell_angle_gamma                 90.0000
loop_
_atom_site_label
_atom_site_type_symbol
_atom_site_fract_x
_atom_site_fract_y
_atom_site_fract_z
_atom_site_U_iso_or_equiv
_atom_site_adp_type
_atom_site_occupancy
C1     C     0.53370   0.86902   0.57823   0.00000  Uiso   1.00
C2     C     0.56228   0.95025   0.58129   0.00000  Uiso   1.00
C3     C     0.56196   0.04588   0.61227   0.00000  Uiso   1.00
C4     C     0.59059   0.10916   0.60951   0.00000  Uiso   1.00
C5     C     0.63072   0.24009   0.61920   0.00000  Uiso   1.00
C6     C     0.52566   0.85535   0.51422   0.00000  Uiso   1.00
C7     C     0.49454   0.87117   0.48880   0.00000  Uiso   1.00
C8     C     0.49234   0.85454   0.42958   0.00000  Uiso   1.00
C9     C     0.47561   0.83806   0.33513   0.00000  Uiso   1.00
C10    C     0.54838   0.76193   0.59808   0.00000  Uiso   1.00
C11    C     0.53636   0.69918   0.64317   0.00000  Uiso   1.00
C12    C     0.55329   0.60388   0.65455   0.00000  Uiso   1.00
C13    C     0.57183   0.44235   0.69032   0.00000  Uiso   1.00
C14    C     0.58511   0.81134   0.51826   0.00000  Uiso   1.00
C15    C     0.59020   0.91892   0.54872   0.00000  Uiso   1.00
C16    C     0.61884   0.98207   0.54592   0.00000  Uiso   1.00
C17    C     0.61857   0.07777   0.57688   0.00000  Uiso   1.00
C18    C     0.55358   0.82402   0.48165   0.00000  Uiso   1.00
C19    C     0.55142   0.80736   0.42245   0.00000  Uiso   1.00
C20    C     0.52032   0.82316   0.39695   0.00000  Uiso   1.00
C21    C     0.57630   0.73060   0.56551   0.00000  Uiso   1.00
C22    C     0.59324   0.63538   0.57682   0.00000  Uiso   1.00
C23    C     0.58126   0.57250   0.62192   0.00000  Uiso   1.00
H24    H     0.51195   0.89340   0.60359   0.00000  Uiso   1.00
H25    H     0.54035   0.07010   0.63746   0.00000  Uiso   1.00
H26    H     0.47294   0.89540   0.51401   0.00000  Uiso   1.00
H27    H     0.51475   0.72345   0.66836   0.00000  Uiso   1.00
H28    H     0.58413   0.25220   0.66064   0.00000  Uiso   1.00
H29    H     0.44200   0.88381   0.40035   0.00000  Uiso   1.00
H30    H     0.53017   0.52120   0.72582   0.00000  Uiso   1.00
H31    H     0.60685   0.78695   0.49290   0.00000  Uiso   1.00
H32    H     0.64045   0.95781   0.52071   0.00000  Uiso   1.00
H33    H     0.57304   0.78312   0.39726   0.00000  Uiso   1.00
H34    H     0.61485   0.61116   0.55161   0.00000  Uiso   1.00
H35    H     0.66538   0.16107   0.56588   0.00000  Uiso   1.00
H36    H     0.52324   0.79267   0.30558   0.00000  Uiso   1.00
H37    H     0.61142   0.43007   0.63106   0.00000  Uiso   1.00
O38    O     0.64514   0.32097   0.63353   0.00000  Uiso   1.00
O39    O     0.45867   0.83764   0.29204   0.00000  Uiso   1.00
O40    O     0.57435   0.36191   0.71906   0.00000  Uiso   1.00
N41    N     0.59865   0.20729   0.63453   0.00000  Uiso   1.00
N42    N     0.46576   0.86289   0.39117   0.00000  Uiso   1.00
N43    N     0.54819   0.52387   0.69545   0.00000  Uiso   1.00
N44    N     0.64236   0.15825   0.58354   0.00000  Uiso   1.00
N45    N     0.50948   0.81385   0.34018   0.00000  Uiso   1.00
N46    N     0.59190   0.47483   0.64446   0.00000  Uiso   1.00
C47    C     0.53370   0.36902   0.07823   0.00000  Uiso   1.00
C48    C     0.56228   0.45025   0.08129   0.00000  Uiso   1.00
C49    C     0.56196   0.54588   0.11227   0.00000  Uiso   1.00
C50    C     0.59059   0.60916   0.10951   0.00000  Uiso   1.00
C51    C     0.63072   0.74009   0.11920   0.00000  Uiso   1.00
C52    C     0.52566   0.35535   0.01422   0.00000  Uiso   1.00
C53    C     0.49454   0.37117   0.98880   0.00000  Uiso   1.00
C54    C     0.49234   0.35454   0.92958   0.00000  Uiso   1.00
C55    C     0.47561   0.33806   0.83513   0.00000  Uiso   1.00
C56    C     0.54838   0.26193   0.09808   0.00000  Uiso   1.00
C57    C     0.53636   0.19918   0.14317   0.00000  Uiso   1.00
C58    C     0.55329   0.10388   0.15455   0.00000  Uiso   1.00
C59    C     0.57183   0.94235   0.19032   0.00000  Uiso   1.00
C60    C     0.58511   0.31134   0.01826   0.00000  Uiso   1.00
C61    C     0.59020   0.41892   0.04872   0.00000  Uiso   1.00
C62    C     0.61884   0.48207   0.04592   0.00000  Uiso   1.00
C63    C     0.61857   0.57777   0.07688   0.00000  Uiso   1.00
C64    C     0.55358   0.32402   0.98165   0.00000  Uiso   1.00
C65    C     0.55142   0.30736   0.92245   0.00000  Uiso   1.00
C66    C     0.52032   0.32316   0.89695   0.00000  Uiso   1.00
C67    C     0.57630   0.23060   0.06551   0.00000  Uiso   1.00
C68    C     0.59324   0.13538   0.07682   0.00000  Uiso   1.00
C69    C     0.58126   0.07250   0.12192   0.00000  Uiso   1.00
H70    H     0.51195   0.39340   0.10359   0.00000  Uiso   1.00
H71    H     0.54035   0.57010   0.13746   0.00000  Uiso   1.00
H72    H     0.47294   0.39540   0.01401   0.00000  Uiso   1.00
H73    H     0.51475   0.22345   0.16836   0.00000  Uiso   1.00
H74    H     0.58413   0.75220   0.16064   0.00000  Uiso   1.00
H75    H     0.44200   0.38381   0.90035   0.00000  Uiso   1.00
H76    H     0.53017   0.02120   0.22582   0.00000  Uiso   1.00
H77    H     0.60685   0.28695   0.99290   0.00000  Uiso   1.00
H78    H     0.64045   0.45781   0.02071   0.00000  Uiso   1.00
H79    H     0.57304   0.28312   0.89726   0.00000  Uiso   1.00
H80    H     0.61485   0.11116   0.05161   0.00000  Uiso   1.00
H81    H     0.66538   0.66107   0.06588   0.00000  Uiso   1.00
H82    H     0.52324   0.29267   0.80558   0.00000  Uiso   1.00
H83    H     0.61142   0.93007   0.13106   0.00000  Uiso   1.00
O84    O     0.64514   0.82097   0.13353   0.00000  Uiso   1.00
O85    O     0.45867   0.33764   0.79204   0.00000  Uiso   1.00
O86    O     0.57435   0.86191   0.21906   0.00000  Uiso   1.00
N87    N     0.59865   0.70729   0.13453   0.00000  Uiso   1.00
N88    N     0.46576   0.36289   0.89117   0.00000  Uiso   1.00
N89    N     0.54819   0.02387   0.19545   0.00000  Uiso   1.00
N90    N     0.64236   0.65825   0.08354   0.00000  Uiso   1.00
N91    N     0.50948   0.31385   0.84018   0.00000  Uiso   1.00
N92    N     0.59190   0.97483   0.14446   0.00000  Uiso   1.00
C93    C     0.03370   0.86902   0.07823   0.00000  Uiso   1.00
C94    C     0.06228   0.95025   0.08129   0.00000  Uiso   1.00
C95    C     0.06196   0.04588   0.11227   0.00000  Uiso   1.00
C96    C     0.09059   0.10916   0.10951   0.00000  Uiso   1.00
C97    C     0.13072   0.24009   0.11920   0.00000  Uiso   1.00
C98    C     0.02566   0.85535   0.01422   0.00000  Uiso   1.00
C99    C     0.99454   0.87117   0.98880   0.00000  Uiso   1.00
C100   C     0.99234   0.85454   0.92958   0.00000  Uiso   1.00
C101   C     0.97561   0.83806   0.83513   0.00000  Uiso   1.00
C102   C     0.04838   0.76193   0.09808   0.00000  Uiso   1.00
C103   C     0.03636   0.69918   0.14317   0.00000  Uiso   1.00
C104   C     0.05329   0.60388   0.15455   0.00000  Uiso   1.00
C105   C     0.07183   0.44235   0.19032   0.00000  Uiso   1.00
C106   C     0.08511   0.81134   0.01826   0.00000  Uiso   1.00
C107   C     0.09020   0.91892   0.04872   0.00000  Uiso   1.00
C108   C     0.11884   0.98207   0.04592   0.00000  Uiso   1.00
C109   C     0.11857   0.07777   0.07688   0.00000  Uiso   1.00
C110   C     0.05358   0.82402   0.98165   0.00000  Uiso   1.00
C111   C     0.05142   0.80736   0.92245   0.00000  Uiso   1.00
C112   C     0.02032   0.82316   0.89695   0.00000  Uiso   1.00
C113   C     0.07630   0.73060   0.06551   0.00000  Uiso   1.00
C114   C     0.09324   0.63538   0.07682   0.00000  Uiso   1.00
C115   C     0.08126   0.57250   0.12192   0.00000  Uiso   1.00
H116   H     0.01195   0.89340   0.10359   0.00000  Uiso   1.00
H117   H     0.04035   0.07010   0.13746   0.00000  Uiso   1.00
H118   H     0.97294   0.89540   0.01401   0.00000  Uiso   1.00
H119   H     0.01475   0.72345   0.16836   0.00000  Uiso   1.00
H120   H     0.08413   0.25220   0.16064   0.00000  Uiso   1.00
H121   H     0.94200   0.88381   0.90035   0.00000  Uiso   1.00
H122   H     0.03017   0.52120   0.22582   0.00000  Uiso   1.00
H123   H     0.10685   0.78695   0.99290   0.00000  Uiso   1.00
H124   H     0.14045   0.95781   0.02071   0.00000  Uiso   1.00
H125   H     0.07304   0.78312   0.89726   0.00000  Uiso   1.00
H126   H     0.11485   0.61116   0.05161   0.00000  Uiso   1.00
H127   H     0.16538   0.16107   0.06588   0.00000  Uiso   1.00
H128   H     0.02324   0.79267   0.80558   0.00000  Uiso   1.00
H129   H     0.11142   0.43007   0.13106   0.00000  Uiso   1.00
O130   O     0.14514   0.32097   0.13353   0.00000  Uiso   1.00
O131   O     0.95867   0.83764   0.79204   0.00000  Uiso   1.00
O132   O     0.07435   0.36191   0.21906   0.00000  Uiso   1.00
N133   N     0.09865   0.20729   0.13453   0.00000  Uiso   1.00
N134   N     0.96576   0.86289   0.89117   0.00000  Uiso   1.00
N135   N     0.04819   0.52387   0.19545   0.00000  Uiso   1.00
N136   N     0.14236   0.15825   0.08354   0.00000  Uiso   1.00
N137   N     0.00948   0.81385   0.84018   0.00000  Uiso   1.00
N138   N     0.09190   0.47483   0.14446   0.00000  Uiso   1.00
C139   C     0.03370   0.36902   0.57823   0.00000  Uiso   1.00
C140   C     0.06228   0.45025   0.58129   0.00000  Uiso   1.00
C141   C     0.06196   0.54588   0.61227   0.00000  Uiso   1.00
C142   C     0.09059   0.60916   0.60951   0.00000  Uiso   1.00
C143   C     0.13072   0.74009   0.61920   0.00000  Uiso   1.00
C144   C     0.02566   0.35535   0.51422   0.00000  Uiso   1.00
C145   C     0.99454   0.37117   0.48880   0.00000  Uiso   1.00
C146   C     0.99234   0.35454   0.42958   0.00000  Uiso   1.00
C147   C     0.97561   0.33806   0.33513   0.00000  Uiso   1.00
C148   C     0.04838   0.26193   0.59808   0.00000  Uiso   1.00
C149   C     0.03636   0.19918   0.64317   0.00000  Uiso   1.00
C150   C     0.05329   0.10388   0.65455   0.00000  Uiso   1.00
C151   C     0.07183   0.94235   0.69032   0.00000  Uiso   1.00
C152   C     0.08511   0.31134   0.51826   0.00000  Uiso   1.00
C153   C     0.09020   0.41892   0.54872   0.00000  Uiso   1.00
C154   C     0.11884   0.48207   0.54592   0.00000  Uiso   1.00
C155   C     0.11857   0.57777   0.57688   0.00000  Uiso   1.00
C156   C     0.05358   0.32402   0.48165   0.00000  Uiso   1.00
C157   C     0.05142   0.30736   0.42245   0.00000  Uiso   1.00
C158   C     0.02032   0.32316   0.39695   0.00000  Uiso   1.00
C159   C     0.07630   0.23060   0.56551   0.00000  Uiso   1.00
C160   C     0.09324   0.13538   0.57682   0.00000  Uiso   1.00
C161   C     0.08126   0.07250   0.62192   0.00000  Uiso   1.00
H162   H     0.01195   0.39340   0.60359   0.00000  Uiso   1.00
H163   H     0.04035   0.57010   0.63746   0.00000  Uiso   1.00
H164   H     0.97294   0.39540   0.51401   0.00000  Uiso   1.00
H165   H     0.01475   0.22345   0.66836   0.00000  Uiso   1.00
H166   H     0.08413   0.75220   0.66064   0.00000  Uiso   1.00
H167   H     0.94200   0.38381   0.40035   0.00000  Uiso   1.00
H168   H     0.03017   0.02120   0.72582   0.00000  Uiso   1.00
H169   H     0.10685   0.28695   0.49290   0.00000  Uiso   1.00
H170   H     0.14045   0.45781   0.52071   0.00000  Uiso   1.00
H171   H     0.07304   0.28312   0.39726   0.00000  Uiso   1.00
H172   H     0.11485   0.11116   0.55161   0.00000  Uiso   1.00
H173   H     0.16538   0.66107   0.56588   0.00000  Uiso   1.00
H174   H     0.02324   0.29267   0.30558   0.00000  Uiso   1.00
H175   H     0.11142   0.93007   0.63106   0.00000  Uiso   1.00
O176   O     0.14514   0.82097   0.63353   0.00000  Uiso   1.00
O177   O     0.95867   0.33764   0.29204   0.00000  Uiso   1.00
O178   O     0.07435   0.86191   0.71906   0.00000  Uiso   1.00
N179   N     0.09865   0.70729   0.63453   0.00000  Uiso   1.00
N180   N     0.96576   0.36289   0.39117   0.00000  Uiso   1.00
N181   N     0.04819   0.02387   0.69545   0.00000  Uiso   1.00
N182   N     0.14236   0.65825   0.58354   0.00000  Uiso   1.00
N183   N     0.00948   0.31385   0.34018   0.00000  Uiso   1.00
N184   N     0.09190   0.97483   0.64446   0.00000  Uiso   1.00
C185   C     0.46630   0.13098   0.57823   0.00000  Uiso   1.00
C186   C     0.43772   0.04975   0.58129   0.00000  Uiso   1.00
C187   C     0.43804   0.95412   0.61227   0.00000  Uiso   1.00
C188   C     0.40941   0.89084   0.60951   0.00000  Uiso   1.00
C189   C     0.36928   0.75991   0.61920   0.00000  Uiso   1.00
C190   C     0.47434   0.14465   0.51422   0.00000  Uiso   1.00
C191   C     0.50546   0.12883   0.48880   0.00000  Uiso   1.00
C192   C     0.50766   0.14546   0.42958   0.00000  Uiso   1.00
C193   C     0.52439   0.16194   0.33513   0.00000  Uiso   1.00
C194   C     0.45162   0.23807   0.59808   0.00000  Uiso   1.00
C195   C     0.46364   0.30082   0.64317   0.00000  Uiso   1.00
C196   C     0.44671   0.39612   0.65455   0.00000  Uiso   1.00
C197   C     0.42817   0.55765   0.69032   0.00000  Uiso   1.00
C198   C     0.41489   0.18866   0.51826   0.00000  Uiso   1.00
C199   C     0.40980   0.08108   0.54872   0.00000  Uiso   1.00
C200   C     0.38116   0.01793   0.54592   0.00000  Uiso   1.00
C201   C     0.38143   0.92223   0.57688   0.00000  Uiso   1.00
C202   C     0.44642   0.17598   0.48165   0.00000  Uiso   1.00
C203   C     0.44858   0.19264   0.42245   0.00000  Uiso   1.00
C204   C     0.47968   0.17684   0.39695   0.00000  Uiso   1.00
C205   C     0.42370   0.26940   0.56551   0.00000  Uiso   1.00
C206   C     0.40676   0.36462   0.57682   0.00000  Uiso   1.00
C207   C     0.41874   0.42750   0.62192   0.00000  Uiso   1.00
H208   H     0.48805   0.10660   0.60359   0.00000  Uiso   1.00
H209   H     0.45965   0.92990   0.63746   0.00000  Uiso   1.00
H210   H     0.52706   0.10460   0.51401   0.00000  Uiso   1.00
H211   H     0.48525   0.27655   0.66836   0.00000  Uiso   1.00
H212   H     0.41587   0.74780   0.66064   0.00000  Uiso   1.00
H213   H     0.55800   0.11619   0.40035   0.00000  Uiso   1.00
H214   H     0.46983   0.47880   0.72582   0.00000  Uiso   1.00
H215   H     0.39315   0.21305   0.49290   0.00000  Uiso   1.00
H216   H     0.35955   0.04219   0.52071   0.00000  Uiso   1.00
H217   H     0.42696   0.21688   0.39726   0.00000  Uiso   1.00
H218   H     0.38515   0.38884   0.55161   0.00000  Uiso   1.00
H219   H     0.33462   0.83893   0.56588   0.00000  Uiso   1.00
H220   H     0.47676   0.20733   0.30558   0.00000  Uiso   1.00
H221   H     0.38858   0.56993   0.63106   0.00000  Uiso   1.00
O222   O     0.35486   0.67903   0.63353   0.00000  Uiso   1.00
O223   O     0.54133   0.16236   0.29204   0.00000  Uiso   1.00
O224   O     0.42565   0.63809   0.71906   0.00000  Uiso   1.00
N225   N     0.40135   0.79271   0.63453   0.00000  Uiso   1.00
N226   N     0.53424   0.13711   0.39117   0.00000  Uiso   1.00
N227   N     0.45181   0.47613   0.69545   0.00000  Uiso   1.00
N228   N     0.35764   0.84175   0.58354   0.00000  Uiso   1.00
N229   N     0.49052   0.18615   0.34018   0.00000  Uiso   1.00
N230   N     0.40810   0.52517   0.64446   0.00000  Uiso   1.00
C231   C     0.46630   0.63098   0.07823   0.00000  Uiso   1.00
C232   C     0.43772   0.54975   0.08129   0.00000  Uiso   1.00
C233   C     0.43804   0.45412   0.11227   0.00000  Uiso   1.00
C234   C     0.40941   0.39084   0.10951   0.00000  Uiso   1.00
C235   C     0.36928   0.25991   0.11920   0.00000  Uiso   1.00
C236   C     0.47434   0.64465   0.01422   0.00000  Uiso   1.00
C237   C     0.50546   0.62883   0.98880   0.00000  Uiso   1.00
C238   C     0.50766   0.64546   0.92958   0.00000  Uiso   1.00
C239   C     0.52439   0.66194   0.83513   0.00000  Uiso   1.00
C240   C     0.45162   0.73807   0.09808   0.00000  Uiso   1.00
C241   C     0.46364   0.80082   0.14317   0.00000  Uiso   1.00
C242   C     0.44671   0.89612   0.15455   0.00000  Uiso   1.00
C243   C     0.42817   0.05765   0.19032   0.00000  Uiso   1.00
C244   C     0.41489   0.68866   0.01826   0.00000  Uiso   1.00
C245   C     0.40980   0.58108   0.04872   0.00000  Uiso   1.00
C246   C     0.38116   0.51793   0.04592   0.00000  Uiso   1.00
C247   C     0.38143   0.42223   0.07688   0.00000  Uiso   1.00
C248   C     0.44642   0.67598   0.98165   0.00000  Uiso   1.00
C249   C     0.44858   0.69264   0.92245   0.00000  Uiso   1.00
C250   C     0.47968   0.67684   0.89695   0.00000  Uiso   1.00
C251   C     0.42370   0.76940   0.06551   0.00000  Uiso   1.00
C252   C     0.40676   0.86462   0.07682   0.00000  Uiso   1.00
C253   C     0.41874   0.92750   0.12192   0.00000  Uiso   1.00
H254   H     0.48805   0.60660   0.10359   0.00000  Uiso   1.00
H255   H     0.45965   0.42990   0.13746   0.00000  Uiso   1.00
H256   H     0.52706   0.60460   0.01401   0.00000  Uiso   1.00
H257   H     0.48525   0.77655   0.16836   0.00000  Uiso   1.00
H258   H     0.41587   0.24780   0.16064   0.00000  Uiso   1.00
H259   H     0.55800   0.61619   0.90035   0.00000  Uiso   1.00
H260   H     0.46983   0.97880   0.22582   0.00000  Uiso   1.00
H261   H     0.39315   0.71305   0.99290   0.00000  Uiso   1.00
H262   H     0.35955   0.54219   0.02071   0.00000  Uiso   1.00
H263   H     0.42696   0.71688   0.89726   0.00000  Uiso   1.00
H264   H     0.38515   0.88884   0.05161   0.00000  Uiso   1.00
H265   H     0.33462   0.33893   0.06588   0.00000  Uiso   1.00
H266   H     0.47676   0.70733   0.80558   0.00000  Uiso   1.00
H267   H     0.38858   0.06993   0.13106   0.00000  Uiso   1.00
O268   O     0.35486   0.17903   0.13353   0.00000  Uiso   1.00
O269   O     0.54133   0.66236   0.79204   0.00000  Uiso   1.00
O270   O     0.42565   0.13809   0.21906   0.00000  Uiso   1.00
N271   N     0.40135   0.29271   0.13453   0.00000  Uiso   1.00
N272   N     0.53424   0.63711   0.89117   0.00000  Uiso   1.00
N273   N     0.45181   0.97613   0.19545   0.00000  Uiso   1.00
N274   N     0.35764   0.34175   0.08354   0.00000  Uiso   1.00
N275   N     0.49052   0.68615   0.84018   0.00000  Uiso   1.00
N276   N     0.40810   0.02517   0.14446   0.00000  Uiso   1.00
C277   C     0.96630   0.13098   0.07823   0.00000  Uiso   1.00
C278   C     0.93772   0.04975   0.08129   0.00000  Uiso   1.00
C279   C     0.93804   0.95412   0.11227   0.00000  Uiso   1.00
C280   C     0.90941   0.89084   0.10951   0.00000  Uiso   1.00
C281   C     0.86928   0.75991   0.11920   0.00000  Uiso   1.00
C282   C     0.97434   0.14465   0.01422   0.00000  Uiso   1.00
C283   C     0.00546   0.12883   0.98880   0.00000  Uiso   1.00
C284   C     0.00766   0.14546   0.92958   0.00000  Uiso   1.00
C285   C     0.02439   0.16194   0.83513   0.00000  Uiso   1.00
C286   C     0.95162   0.23807   0.09808   0.00000  Uiso   1.00
C287   C     0.96364   0.30082   0.14317   0.00000  Uiso   1.00
C288   C     0.94671   0.39612   0.15455   0.00000  Uiso   1.00
C289   C     0.92817   0.55765   0.19032   0.00000  Uiso   1.00
C290   C     0.91489   0.18866   0.01826   0.00000  Uiso   1.00
C291   C     0.90980   0.08108   0.04872   0.00000  Uiso   1.00
C292   C     0.88116   0.01793   0.04592   0.00000  Uiso   1.00
C293   C     0.88143   0.92223   0.07688   0.00000  Uiso   1.00
C294   C     0.94642   0.17598   0.98165   0.00000  Uiso   1.00
C295   C     0.94858   0.19264   0.92245   0.00000  Uiso   1.00
C296   C     0.97968   0.17684   0.89695   0.00000  Uiso   1.00
C297   C     0.92370   0.26940   0.06551   0.00000  Uiso   1.00
C298   C     0.90676   0.36462   0.07682   0.00000  Uiso   1.00
C299   C     0.91874   0.42750   0.12192   0.00000  Uiso   1.00
H300   H     0.98805   0.10660   0.10359   0.00000  Uiso   1.00
H301   H     0.95965   0.92990   0.13746   0.00000  Uiso   1.00
H302   H     0.02706   0.10460   0.01401   0.00000  Uiso   1.00
H303   H     0.98525   0.27655   0.16836   0.00000  Uiso   1.00
H304   H     0.91587   0.74780   0.16064   0.00000  Uiso   1.00
H305   H     0.05800   0.11619   0.90035   0.00000  Uiso   1.00
H306   H     0.96983   0.47880   0.22582   0.00000  Uiso   1.00
H307   H     0.89315   0.21305   0.99290   0.00000  Uiso   1.00
H308   H     0.85955   0.04219   0.02071   0.00000  Uiso   1.00
H309   H     0.92696   0.21688   0.89726   0.00000  Uiso   1.00
H310   H     0.88515   0.38884   0.05161   0.00000  Uiso   1.00
H311   H     0.83462   0.83893   0.06588   0.00000  Uiso   1.00
H312   H     0.97676   0.20733   0.80558   0.00000  Uiso   1.00
H313   H     0.88858   0.56993   0.13106   0.00000  Uiso   1.00
O314   O     0.85486   0.67903   0.13353   0.00000  Uiso   1.00
O315   O     0.04133   0.16236   0.79204   0.00000  Uiso   1.00
O316   O     0.92565   0.63809   0.21906   0.00000  Uiso   1.00
N317   N     0.90135   0.79271   0.13453   0.00000  Uiso   1.00
N318   N     0.03424   0.13711   0.89117   0.00000  Uiso   1.00
N319   N     0.95181   0.47613   0.19545   0.00000  Uiso   1.00
N320   N     0.85764   0.84175   0.08354   0.00000  Uiso   1.00
N321   N     0.99052   0.18615   0.84018   0.00000  Uiso   1.00
N322   N     0.90810   0.52517   0.14446   0.00000  Uiso   1.00
C323   C     0.96630   0.63098   0.57823   0.00000  Uiso   1.00
C324   C     0.93772   0.54975   0.58129   0.00000  Uiso   1.00
C325   C     0.93804   0.45412   0.61227   0.00000  Uiso   1.00
C326   C     0.90941   0.39084   0.60951   0.00000  Uiso   1.00
C327   C     0.86928   0.25991   0.61920   0.00000  Uiso   1.00
C328   C     0.97434   0.64465   0.51422   0.00000  Uiso   1.00
C329   C     0.00546   0.62883   0.48880   0.00000  Uiso   1.00
C330   C     0.00766   0.64546   0.42958   0.00000  Uiso   1.00
C331   C     0.02439   0.66194   0.33513   0.00000  Uiso   1.00
C332   C     0.95162   0.73807   0.59808   0.00000  Uiso   1.00
C333   C     0.96364   0.80082   0.64317   0.00000  Uiso   1.00
C334   C     0.94671   0.89612   0.65455   0.00000  Uiso   1.00
C335   C     0.92817   0.05765   0.69032   0.00000  Uiso   1.00
C336   C     0.91489   0.68866   0.51826   0.00000  Uiso   1.00
C337   C     0.90980   0.58108   0.54872   0.00000  Uiso   1.00
C338   C     0.88116   0.51793   0.54592   0.00000  Uiso   1.00
C339   C     0.88143   0.42223   0.57688   0.00000  Uiso   1.00
C340   C     0.94642   0.67598   0.48165   0.00000  Uiso   1.00
C341   C     0.94858   0.69264   0.42245   0.00000  Uiso   1.00
C342   C     0.97968   0.67684   0.39695   0.00000  Uiso   1.00
C343   C     0.92370   0.76940   0.56551   0.00000  Uiso   1.00
C344   C     0.90676   0.86462   0.57682   0.00000  Uiso   1.00
C345   C     0.91874   0.92750   0.62192   0.00000  Uiso   1.00
H346   H     0.98805   0.60660   0.60359   0.00000  Uiso   1.00
H347   H     0.95965   0.42990   0.63746   0.00000  Uiso   1.00
H348   H     0.02706   0.60460   0.51401   0.00000  Uiso   1.00
H349   H     0.98525   0.77655   0.66836   0.00000  Uiso   1.00
H350   H     0.91587   0.24780   0.66064   0.00000  Uiso   1.00
H351   H     0.05800   0.61619   0.40035   0.00000  Uiso   1.00
H352   H     0.96983   0.97880   0.72582   0.00000  Uiso   1.00
H353   H     0.89315   0.71305   0.49290   0.00000  Uiso   1.00
H354   H     0.85955   0.54219   0.52071   0.00000  Uiso   1.00
H355   H     0.92696   0.71688   0.39726   0.00000  Uiso   1.00
H356   H     0.88515   0.88884   0.55161   0.00000  Uiso   1.00
H357   H     0.83462   0.33893   0.56588   0.00000  Uiso   1.00
H358   H     0.97676   0.70733   0.30558   0.00000  Uiso   1.00
H359   H     0.88858   0.06993   0.63106   0.00000  Uiso   1.00
O360   O     0.85486   0.17903   0.63353   0.00000  Uiso   1.00
O361   O     0.04133   0.66236   0.29204   0.00000  Uiso   1.00
O362   O     0.92565   0.13809   0.71906   0.00000  Uiso   1.00
N363   N     0.90135   0.29271   0.63453   0.00000  Uiso   1.00
N364   N     0.03424   0.63711   0.39117   0.00000  Uiso   1.00
N365   N     0.95181   0.97613   0.69545   0.00000  Uiso   1.00
N366   N     0.85764   0.34175   0.58354   0.00000  Uiso   1.00
N367   N     0.99052   0.68615   0.34018   0.00000  Uiso   1.00
N368   N     0.90810   0.02517   0.64446   0.00000  Uiso   1.00
C369   C     0.78370   0.38098   0.82823   0.00000  Uiso   1.00
C370   C     0.81228   0.29975   0.83129   0.00000  Uiso   1.00
C371   C     0.81196   0.20412   0.86227   0.00000  Uiso   1.00
C372   C     0.84059   0.14084   0.85951   0.00000  Uiso   1.00
C373   C     0.88072   0.00991   0.86920   0.00000  Uiso   1.00
C374   C     0.77566   0.39465   0.76422   0.00000  Uiso   1.00
C375   C     0.74454   0.37883   0.73880   0.00000  Uiso   1.00
C376   C     0.74234   0.39546   0.67958   0.00000  Uiso   1.00
C377   C     0.72561   0.41194   0.58513   0.00000  Uiso   1.00
C378   C     0.79838   0.48807   0.84808   0.00000  Uiso   1.00
C379   C     0.78636   0.55082   0.89317   0.00000  Uiso   1.00
C380   C     0.80329   0.64612   0.90455   0.00000  Uiso   1.00
C381   C     0.82183   0.80765   0.94032   0.00000  Uiso   1.00
C382   C     0.83511   0.43866   0.76826   0.00000  Uiso   1.00
C383   C     0.84020   0.33108   0.79872   0.00000  Uiso   1.00
C384   C     0.86884   0.26793   0.79592   0.00000  Uiso   1.00
C385   C     0.86857   0.17223   0.82688   0.00000  Uiso   1.00
C386   C     0.80358   0.42598   0.73165   0.00000  Uiso   1.00
C387   C     0.80142   0.44264   0.67245   0.00000  Uiso   1.00
C388   C     0.77032   0.42684   0.64695   0.00000  Uiso   1.00
C389   C     0.82630   0.51940   0.81551   0.00000  Uiso   1.00
C390   C     0.84324   0.61462   0.82682   0.00000  Uiso   1.00
C391   C     0.83126   0.67750   0.87192   0.00000  Uiso   1.00
H392   H     0.76195   0.35660   0.85359   0.00000  Uiso   1.00
H393   H     0.79035   0.17990   0.88746   0.00000  Uiso   1.00
H394   H     0.72294   0.35460   0.76401   0.00000  Uiso   1.00
H395   H     0.76475   0.52655   0.91836   0.00000  Uiso   1.00
H396   H     0.83413   0.99780   0.91064   0.00000  Uiso   1.00
H397   H     0.69200   0.36619   0.65035   0.00000  Uiso   1.00
H398   H     0.78017   0.72880   0.97582   0.00000  Uiso   1.00
H399   H     0.85685   0.46305   0.74290   0.00000  Uiso   1.00
H400   H     0.89045   0.29219   0.77071   0.00000  Uiso   1.00
H401   H     0.82304   0.46688   0.64726   0.00000  Uiso   1.00
H402   H     0.86485   0.63884   0.80161   0.00000  Uiso   1.00
H403   H     0.91538   0.08893   0.81588   0.00000  Uiso   1.00
H404   H     0.77324   0.45733   0.55558   0.00000  Uiso   1.00
H405   H     0.86142   0.81993   0.88106   0.00000  Uiso   1.00
O406   O     0.89514   0.92903   0.88353   0.00000  Uiso   1.00
O407   O     0.70867   0.41236   0.54204   0.00000  Uiso   1.00
O408   O     0.82435   0.88809   0.96906   0.00000  Uiso   1.00
N409   N     0.84865   0.04271   0.88453   0.00000  Uiso   1.00
N410   N     0.71576   0.38711   0.64117   0.00000  Uiso   1.00
N411   N     0.79819   0.72613   0.94545   0.00000  Uiso   1.00
N412   N     0.89236   0.09175   0.83354   0.00000  Uiso   1.00
N413   N     0.75948   0.43615   0.59018   0.00000  Uiso   1.00
N414   N     0.84190   0.77517   0.89446   0.00000  Uiso   1.00
C415   C     0.78370   0.88098   0.32823   0.00000  Uiso   1.00
C416   C     0.81228   0.79975   0.33129   0.00000  Uiso   1.00
C417   C     0.81196   0.70412   0.36227   0.00000  Uiso   1.00
C418   C     0.84059   0.64084   0.35951   0.00000  Uiso   1.00
C419   C     0.88072   0.50991   0.36920   0.00000  Uiso   1.00
C420   C     0.77566   0.89465   0.26422   0.00000  Uiso   1.00
C421   C     0.74454   0.87883   0.23880   0.00000  Uiso   1.00
C422   C     0.74234   0.89546   0.17958   0.00000  Uiso   1.00
C423   C     0.72561   0.91194   0.08513   0.00000  Uiso   1.00
C424   C     0.79838   0.98807   0.34808   0.00000  Uiso   1.00
C425   C     0.78636   0.05082   0.39317   0.00000  Uiso   1.00
C426   C     0.80329   0.14612   0.40455   0.00000  Uiso   1.00
C427   C     0.82183   0.30765   0.44032   0.00000  Uiso   1.00
C428   C     0.83511   0.93866   0.26826   0.00000  Uiso   1.00
C429   C     0.84020   0.83108   0.29872   0.00000  Uiso   1.00
C430   C     0.86884   0.76793   0.29592   0.00000  Uiso   1.00
C431   C     0.86857   0.67223   0.32688   0.00000  Uiso   1.00
C432   C     0.80358   0.92598   0.23165   0.00000  Uiso   1.00
C433   C     0.80142   0.94264   0.17245   0.00000  Uiso   1.00
C434   C     0.77032   0.92684   0.14695   0.00000  Uiso   1.00
C435   C     0.82630   0.01940   0.31551   0.00000  Uiso   1.00
C436   C     0.84324   0.11462   0.32682   0.00000  Uiso   1.00
C437   C     0.83126   0.17750   0.37192   0.00000  Uiso   1.00
H438   H     0.76195   0.85660   0.35359   0.00000  Uiso   1.00
H439   H     0.79035   0.67990   0.38746   0.00000  Uiso   1.00
H440   H     0.72294   0.85460   0.26401   0.00000  Uiso   1.00
H441   H     0.76475   0.02655   0.41836   0.00000  Uiso   1.00
H442   H     0.83413   0.49780   0.41064   0.00000  Uiso   1.00
H443   H     0.69200   0.86619   0.15035   0.00000  Uiso   1.00
H444   H     0.78017   0.22880   0.47582   0.00000  Uiso   1.00
H445   H     0.85685   0.96305   0.24290   0.00000  Uiso   1.00
H446   H     0.89045   0.79219   0.27071   0.00000  Uiso   1.00
H447   H     0.82304   0.96688   0.14726   0.00000  Uiso   1.00
H448   H     0.86485   0.13884   0.30161   0.00000  Uiso   1.00
H449   H     0.91538   0.58893   0.31588   0.00000  Uiso   1.00
H450   H     0.77324   0.95733   0.05558   0.00000  Uiso   1.00
H451   H     0.86142   0.31993   0.38106   0.00000  Uiso   1.00
O452   O     0.89514   0.42903   0.38353   0.00000  Uiso   1.00
O453   O     0.70867   0.91236   0.04204   0.00000  Uiso   1.00
O454   O     0.82435   0.38809   0.46906   0.00000  Uiso   1.00
N455   N     0.84865   0.54271   0.38453   0.00000  Uiso   1.00
N456   N     0.71576   0.88711   0.14117   0.00000  Uiso   1.00
N457   N     0.79819   0.22613   0.44545   0.00000  Uiso   1.00
N458   N     0.89236   0.59175   0.33354   0.00000  Uiso   1.00
N459   N     0.75948   0.93615   0.09018   0.00000  Uiso   1.00
N460   N     0.84190   0.27517   0.39446   0.00000  Uiso   1.00
C461   C     0.28370   0.38098   0.32823   0.00000  Uiso   1.00
C462   C     0.31228   0.29975   0.33129   0.00000  Uiso   1.00
C463   C     0.31196   0.20412   0.36227   0.00000  Uiso   1.00
C464   C     0.34059   0.14084   0.35951   0.00000  Uiso   1.00
C465   C     0.38072   0.00991   0.36920   0.00000  Uiso   1.00
C466   C     0.27566   0.39465   0.26422   0.00000  Uiso   1.00
C467   C     0.24454   0.37883   0.23880   0.00000  Uiso   1.00
C468   C     0.24234   0.39546   0.17958   0.00000  Uiso   1.00
C469   C     0.22561   0.41194   0.08513   0.00000  Uiso   1.00
C470   C     0.29838   0.48807   0.34808   0.00000  Uiso   1.00
C471   C     0.28636   0.55082   0.39317   0.00000  Uiso   1.00
C472   C     0.30329   0.64612   0.40455   0.00000  Uiso   1.00
C473   C     0.32183   0.80765   0.44032   0.00000  Uiso   1.00
C474   C     0.33511   0.43866   0.26826   0.00000  Uiso   1.00
C475   C     0.34020   0.33108   0.29872   0.00000  Uiso   1.00
C476   C     0.36884   0.26793   0.29592   0.00000  Uiso   1.00
C477   C     0.36857   0.17223   0.32688   0.00000  Uiso   1.00
C478   C     0.30358   0.42598   0.23165   0.00000  Uiso   1.00
C479   C     0.30142   0.44264   0.17245   0.00000  Uiso   1.00
C480   C     0.27032   0.42684   0.14695   0.00000  Uiso   1.00
C481   C     0.32630   0.51940   0.31551   0.00000  Uiso   1.00
C482   C     0.34324   0.61462   0.32682   0.00000  Uiso   1.00
C483   C     0.33126   0.67750   0.37192   0.00000  Uiso   1.00
H484   H     0.26195   0.35660   0.35359   0.00000  Uiso   1.00
H485   H     0.29035   0.17990   0.38746   0.00000  Uiso   1.00
H486   H     0.22294   0.35460   0.26401   0.00000  Uiso   1.00
H487   H     0.26475   0.52655   0.41836   0.00000  Uiso   1.00
H488   H     0.33413   0.99780   0.41064   0.00000  Uiso   1.00
H489   H     0.19200   0.36619   0.15035   0.00000  Uiso   1.00
H490   H     0.28017   0.72880   0.47582   0.00000  Uiso   1.00
H491   H     0.35685   0.46305   0.24290   0.00000  Uiso   1.00
H492   H     0.39045   0.29219   0.27071   0.00000  Uiso   1.00
H493   H     0.32304   0.46688   0.14726   0.00000  Uiso   1.00
H494   H     0.36485   0.63884   0.30161   0.00000  Uiso   1.00
H495   H     0.41538   0.08893   0.31588   0.00000  Uiso   1.00
H496   H     0.27324   0.45733   0.05558   0.00000  Uiso   1.00
H497   H     0.36142   0.81993   0.38106   0.00000  Uiso   1.00
O498   O     0.39514   0.92903   0.38353   0.00000  Uiso   1.00
O499   O     0.20867   0.41236   0.04204   0.00000  Uiso   1.00
O500   O     0.32435   0.88809   0.46906   0.00000  Uiso   1.00
N501   N     0.34865   0.04271   0.38453   0.00000  Uiso   1.00
N502   N     0.21576   0.38711   0.14117   0.00000  Uiso   1.00
N503   N     0.29819   0.72613   0.44545   0.00000  Uiso   1.00
N504   N     0.39236   0.09175   0.33354   0.00000  Uiso   1.00
N505   N     0.25948   0.43615   0.09018   0.00000  Uiso   1.00
N506   N     0.34190   0.77517   0.39446   0.00000  Uiso   1.00
C507   C     0.28370   0.88098   0.82823   0.00000  Uiso   1.00
C508   C     0.31228   0.79975   0.83129   0.00000  Uiso   1.00
C509   C     0.31196   0.70412   0.86227   0.00000  Uiso   1.00
C510   C     0.34059   0.64084   0.85951   0.00000  Uiso   1.00
C511   C     0.38072   0.50991   0.86920   0.00000  Uiso   1.00
C512   C     0.27566   0.89465   0.76422   0.00000  Uiso   1.00
C513   C     0.24454   0.87883   0.73880   0.00000  Uiso   1.00
C514   C     0.24234   0.89546   0.67958   0.00000  Uiso   1.00
C515   C     0.22561   0.91194   0.58513   0.00000  Uiso   1.00
C516   C     0.29838   0.98807   0.84808   0.00000  Uiso   1.00
C517   C     0.28636   0.05082   0.89317   0.00000  Uiso   1.00
C518   C     0.30329   0.14612   0.90455   0.00000  Uiso   1.00
C519   C     0.32183   0.30765   0.94032   0.00000  Uiso   1.00
C520   C     0.33511   0.93866   0.76826   0.00000  Uiso   1.00
C521   C     0.34020   0.83108   0.79872   0.00000  Uiso   1.00
C522   C     0.36884   0.76793   0.79592   0.00000  Uiso   1.00
C523   C     0.36857   0.67223   0.82688   0.00000  Uiso   1.00
C524   C     0.30358   0.92598   0.73165   0.00000  Uiso   1.00
C525   C     0.30142   0.94264   0.67245   0.00000  Uiso   1.00
C526   C     0.27032   0.92684   0.64695   0.00000  Uiso   1.00
C527   C     0.32630   0.01940   0.81551   0.00000  Uiso   1.00
C528   C     0.34324   0.11462   0.82682   0.00000  Uiso   1.00
C529   C     0.33126   0.17750   0.87192   0.00000  Uiso   1.00
H530   H     0.26195   0.85660   0.85359   0.00000  Uiso   1.00
H531   H     0.29035   0.67990   0.88746   0.00000  Uiso   1.00
H532   H     0.22294   0.85460   0.76401   0.00000  Uiso   1.00
H533   H     0.26475   0.02655   0.91836   0.00000  Uiso   1.00
H534   H     0.33413   0.49780   0.91064   0.00000  Uiso   1.00
H535   H     0.19200   0.86619   0.65035   0.00000  Uiso   1.00
H536   H     0.28017   0.22880   0.97582   0.00000  Uiso   1.00
H537   H     0.35685   0.96305   0.74290   0.00000  Uiso   1.00
H538   H     0.39045   0.79219   0.77071   0.00000  Uiso   1.00
H539   H     0.32304   0.96688   0.64726   0.00000  Uiso   1.00
H540   H     0.36485   0.13884   0.80161   0.00000  Uiso   1.00
H541   H     0.41538   0.58893   0.81588   0.00000  Uiso   1.00
H542   H     0.27324   0.95733   0.55558   0.00000  Uiso   1.00
H543   H     0.36142   0.31993   0.88106   0.00000  Uiso   1.00
O544   O     0.39514   0.42903   0.88353   0.00000  Uiso   1.00
O545   O     0.20867   0.91236   0.54204   0.00000  Uiso   1.00
O546   O     0.32435   0.38809   0.96906   0.00000  Uiso   1.00
N547   N     0.34865   0.54271   0.88453   0.00000  Uiso   1.00
N548   N     0.21576   0.88711   0.64117   0.00000  Uiso   1.00
N549   N     0.29819   0.22613   0.94545   0.00000  Uiso   1.00
N550   N     0.39236   0.59175   0.83354   0.00000  Uiso   1.00
N551   N     0.25948   0.93615   0.59018   0.00000  Uiso   1.00
N552   N     0.34190   0.27517   0.89446   0.00000  Uiso   1.00
C553   C     0.71630   0.11902   0.82823   0.00000  Uiso   1.00
C554   C     0.68772   0.20025   0.83129   0.00000  Uiso   1.00
C555   C     0.68804   0.29588   0.86227   0.00000  Uiso   1.00
C556   C     0.65941   0.35916   0.85951   0.00000  Uiso   1.00
C557   C     0.61928   0.49009   0.86920   0.00000  Uiso   1.00
C558   C     0.72434   0.10535   0.76422   0.00000  Uiso   1.00
C559   C     0.75546   0.12117   0.73880   0.00000  Uiso   1.00
C560   C     0.75766   0.10454   0.67958   0.00000  Uiso   1.00
C561   C     0.77439   0.08806   0.58513   0.00000  Uiso   1.00
C562   C     0.70162   0.01193   0.84808   0.00000  Uiso   1.00
C563   C     0.71364   0.94918   0.89317   0.00000  Uiso   1.00
C564   C     0.69671   0.85388   0.90455   0.00000  Uiso   1.00
C565   C     0.67817   0.69235   0.94032   0.00000  Uiso   1.00
C566   C     0.66489   0.06134   0.76826   0.00000  Uiso   1.00
C567   C     0.65980   0.16892   0.79872   0.00000  Uiso   1.00
C568   C     0.63116   0.23207   0.79592   0.00000  Uiso   1.00
C569   C     0.63143   0.32777   0.82688   0.00000  Uiso   1.00
C570   C     0.69642   0.07402   0.73165   0.00000  Uiso   1.00
C571   C     0.69858   0.05736   0.67245   0.00000  Uiso   1.00
C572   C     0.72968   0.07316   0.64695   0.00000  Uiso   1.00
C573   C     0.67370   0.98060   0.81551   0.00000  Uiso   1.00
C574   C     0.65676   0.88538   0.82682   0.00000  Uiso   1.00
C575   C     0.66874   0.82250   0.87192   0.00000  Uiso   1.00
H576   H     0.73805   0.14340   0.85359   0.00000  Uiso   1.00
H577   H     0.70965   0.32010   0.88746   0.00000  Uiso   1.00
H578   H     0.77706   0.14540   0.76401   0.00000  Uiso   1.00
H579   H     0.73525   0.97345   0.91836   0.00000  Uiso   1.00
H580   H     0.66587   0.50220   0.91064   0.00000  Uiso   1.00
H581   H     0.80800   0.13381   0.65035   0.00000  Uiso   1.00
H582   H     0.71983   0.77120   0.97582   0.00000  Uiso   1.00
H583   H     0.64315   0.03695   0.74290   0.00000  Uiso   1.00
H584   H     0.60955   0.20781   0.77071   0.00000  Uiso   1.00
H585   H     0.67696   0.03312   0.64726   0.00000  Uiso   1.00
H586   H     0.63515   0.86116   0.80161   0.00000  Uiso   1.00
H587   H     0.58462   0.41107   0.81588   0.00000  Uiso   1.00
H588   H     0.72676   0.04267   0.55558   0.00000  Uiso   1.00
H589   H     0.63858   0.68007   0.88106   0.00000  Uiso   1.00
O590   O     0.60486   0.57097   0.88353   0.00000  Uiso   1.00
O591   O     0.79133   0.08764   0.54204   0.00000  Uiso   1.00
O592   O     0.67565   0.61191   0.96906   0.00000  Uiso   1.00
N593   N     0.65135   0.45729   0.88453   0.00000  Uiso   1.00
N594   N     0.78424   0.11289   0.64117   0.00000  Uiso   1.00
N595   N     0.70181   0.77387   0.94545   0.00000  Uiso   1.00
N596   N     0.60764   0.40825   0.83354   0.00000  Uiso   1.00
N597   N     0.74052   0.06385   0.59018   0.00000  Uiso   1.00
N598   N     0.65810   0.72483   0.89446   0.00000  Uiso   1.00
C599   C     0.71630   0.61902   0.32823   0.00000  Uiso   1.00
C600   C     0.68772   0.70025   0.33129   0.00000  Uiso   1.00
C601   C     0.68804   0.79588   0.36227   0.00000  Uiso   1.00
C602   C     0.65941   0.85916   0.35951   0.00000  Uiso   1.00
C603   C     0.61928   0.99009   0.36920   0.00000  Uiso   1.00
C604   C     0.72434   0.60535   0.26422   0.00000  Uiso   1.00
C605   C     0.75546   0.62117   0.23880   0.00000  Uiso   1.00
C606   C     0.75766   0.60454   0.17958   0.00000  Uiso   1.00
C607   C     0.77439   0.58806   0.08513   0.00000  Uiso   1.00
C608   C     0.70162   0.51193   0.34808   0.00000  Uiso   1.00
C609   C     0.71364   0.44918   0.39317   0.00000  Uiso   1.00
C610   C     0.69671   0.35388   0.40455   0.00000  Uiso   1.00
C611   C     0.67817   0.19235   0.44032   0.00000  Uiso   1.00
C612   C     0.66489   0.56134   0.26826   0.00000  Uiso   1.00
C613   C     0.65980   0.66892   0.29872   0.00000  Uiso   1.00
C614   C     0.63116   0.73207   0.29592   0.00000  Uiso   1.00
C615   C     0.63143   0.82777   0.32688   0.00000  Uiso   1.00
C616   C     0.69642   0.57402   0.23165   0.00000  Uiso   1.00
C617   C     0.69858   0.55736   0.17245   0.00000  Uiso   1.00
C618   C     0.72968   0.57316   0.14695   0.00000  Uiso   1.00
C619   C     0.67370   0.48060   0.31551   0.00000  Uiso   1.00
C620   C     0.65676   0.38538   0.32682   0.00000  Uiso   1.00
C621   C     0.66874   0.32250   0.37192   0.00000  Uiso   1.00
H622   H     0.73805   0.64340   0.35359   0.00000  Uiso   1.00
H623   H     0.70965   0.82010   0.38746   0.00000  Uiso   1.00
H624   H     0.77706   0.64540   0.26401   0.00000  Uiso   1.00
H625   H     0.73525   0.47345   0.41836   0.00000  Uiso   1.00
H626   H     0.66587   0.00220   0.41064   0.00000  Uiso   1.00
H627   H     0.80800   0.63381   0.15035   0.00000  Uiso   1.00
H628   H     0.71983   0.27120   0.47582   0.00000  Uiso   1.00
H629   H     0.64315   0.53695   0.24290   0.00000  Uiso   1.00
H630   H     0.60955   0.70781   0.27071   0.00000  Uiso   1.00
H631   H     0.67696   0.53312   0.14726   0.00000  Uiso   1.00
H632   H     0.63515   0.36116   0.30161   0.00000  Uiso   1.00
H633   H     0.58462   0.91107   0.31588   0.00000  Uiso   1.00
H634   H     0.72676   0.54267   0.05558   0.00000  Uiso   1.00
H635   H     0.63858   0.18007   0.38106   0.00000  Uiso   1.00
O636   O     0.60486   0.07097   0.38353   0.00000  Uiso   1.00
O637   O     0.79133   0.58764   0.04204   0.00000  Uiso   1.00
O638   O     0.67565   0.11191   0.46906   0.00000  Uiso   1.00
N639   N     0.65135   0.95729   0.38453   0.00000  Uiso   1.00
N640   N     0.78424   0.61289   0.14117   0.00000  Uiso   1.00
N641   N     0.70181   0.27387   0.44545   0.00000  Uiso   1.00
N642   N     0.60764   0.90825   0.33354   0.00000  Uiso   1.00
N643   N     0.74052   0.56385   0.09018   0.00000  Uiso   1.00
N644   N     0.65810   0.22483   0.39446   0.00000  Uiso   1.00
C645   C     0.21630   0.11902   0.32823   0.00000  Uiso   1.00
C646   C     0.18772   0.20025   0.33129   0.00000  Uiso   1.00
C647   C     0.18804   0.29588   0.36227   0.00000  Uiso   1.00
C648   C     0.15941   0.35916   0.35951   0.00000  Uiso   1.00
C649   C     0.11928   0.49009   0.36920   0.00000  Uiso   1.00
C650   C     0.22434   0.10535   0.26422   0.00000  Uiso   1.00
C651   C     0.25546   0.12117   0.23880   0.00000  Uiso   1.00
C652   C     0.25766   0.10454   0.17958   0.00000  Uiso   1.00
C653   C     0.27439   0.08806   0.08513   0.00000  Uiso   1.00
C654   C     0.20162   0.01193   0.34808   0.00000  Uiso   1.00
C655   C     0.21364   0.94918   0.39317   0.00000  Uiso   1.00
C656   C     0.19671   0.85388   0.40455   0.00000  Uiso   1.00
C657   C     0.17817   0.69235   0.44032   0.00000  Uiso   1.00
C658   C     0.16489   0.06134   0.26826   0.00000  Uiso   1.00
C659   C     0.15980   0.16892   0.29872   0.00000  Uiso   1.00
C660   C     0.13116   0.23207   0.29592   0.00000  Uiso   1.00
C661   C     0.13143   0.32777   0.32688   0.00000  Uiso   1.00
C662   C     0.19642   0.07402   0.23165   0.00000  Uiso   1.00
C663   C     0.19858   0.05736   0.17245   0.00000  Uiso   1.00
C664   C     0.22968   0.07316   0.14695   0.00000  Uiso   1.00
C665   C     0.17370   0.98060   0.31551   0.00000  Uiso   1.00
C666   C     0.15676   0.88538   0.32682   0.00000  Uiso   1.00
C667   C     0.16874   0.82250   0.37192   0.00000  Uiso   1.00
H668   H     0.23805   0.14340   0.35359   0.00000  Uiso   1.00
H669   H     0.20965   0.32010   0.38746   0.00000  Uiso   1.00
H670   H     0.27706   0.14540   0.26401   0.00000  Uiso   1.00
H671   H     0.23525   0.97345   0.41836   0.00000  Uiso   1.00
H672   H     0.16587   0.50220   0.41064   0.00000  Uiso   1.00
H673   H     0.30800   0.13381   0.15035   0.00000  Uiso   1.00
H674   H     0.21983   0.77120   0.47582   0.00000  Uiso   1.00
H675   H     0.14315   0.03695   0.24290   0.00000  Uiso   1.00
H676   H     0.10955   0.20781   0.27071   0.00000  Uiso   1.00
H677   H     0.17696   0.03312   0.14726   0.00000  Uiso   1.00
H678   H     0.13515   0.86116   0.30161   0.00000  Uiso   1.00
H679   H     0.08462   0.41107   0.31588   0.00000  Uiso   1.00
H680   H     0.22676   0.04267   0.05558   0.00000  Uiso   1.00
H681   H     0.13858   0.68007   0.38106   0.00000  Uiso   1.00
O682   O     0.10486   0.57097   0.38353   0.00000  Uiso   1.00
O683   O     0.29133   0.08764   0.04204   0.00000  Uiso   1.00
O684   O     0.17565   0.61191   0.46906   0.00000  Uiso   1.00
N685   N     0.15135   0.45729   0.38453   0.00000  Uiso   1.00
N686   N     0.28424   0.11289   0.14117   0.00000  Uiso   1.00
N687   N     0.20181   0.77387   0.44545   0.00000  Uiso   1.00
N688   N     0.10764   0.40825   0.33354   0.00000  Uiso   1.00
N689   N     0.24052   0.06385   0.09018   0.00000  Uiso   1.00
N690   N     0.15810   0.72483   0.39446   0.00000  Uiso   1.00
C691   C     0.21630   0.61902   0.82823   0.00000  Uiso   1.00
C692   C     0.18772   0.70025   0.83129   0.00000  Uiso   1.00
C693   C     0.18804   0.79588   0.86227   0.00000  Uiso   1.00
C694   C     0.15941   0.85916   0.85951   0.00000  Uiso   1.00
C695   C     0.11928   0.99009   0.86920   0.00000  Uiso   1.00
C696   C     0.22434   0.60535   0.76422   0.00000  Uiso   1.00
C697   C     0.25546   0.62117   0.73880   0.00000  Uiso   1.00
C698   C     0.25766   0.60454   0.67958   0.00000  Uiso   1.00
C699   C     0.27439   0.58806   0.58513   0.00000  Uiso   1.00
C700   C     0.20162   0.51193   0.84808   0.00000  Uiso   1.00
C701   C     0.21364   0.44918   0.89317   0.00000  Uiso   1.00
C702   C     0.19671   0.35388   0.90455   0.00000  Uiso   1.00
C703   C     0.17817   0.19235   0.94032   0.00000  Uiso   1.00
C704   C     0.16489   0.56134   0.76826   0.00000  Uiso   1.00
C705   C     0.15980   0.66892   0.79872   0.00000  Uiso   1.00
C706   C     0.13116   0.73207   0.79592   0.00000  Uiso   1.00
C707   C     0.13143   0.82777   0.82688   0.00000  Uiso   1.00
C708   C     0.19642   0.57402   0.73165   0.00000  Uiso   1.00
C709   C     0.19858   0.55736   0.67245   0.00000  Uiso   1.00
C710   C     0.22968   0.57316   0.64695   0.00000  Uiso   1.00
C711   C     0.17370   0.48060   0.81551   0.00000  Uiso   1.00
C712   C     0.15676   0.38538   0.82682   0.00000  Uiso   1.00
C713   C     0.16874   0.32250   0.87192   0.00000  Uiso   1.00
H714   H     0.23805   0.64340   0.85359   0.00000  Uiso   1.00
H715   H     0.20965   0.82010   0.88746   0.00000  Uiso   1.00
H716   H     0.27706   0.64540   0.76401   0.00000  Uiso   1.00
H717   H     0.23525   0.47345   0.91836   0.00000  Uiso   1.00
H718   H     0.16587   0.00220   0.91064   0.00000  Uiso   1.00
H719   H     0.30800   0.63381   0.65035   0.00000  Uiso   1.00
H720   H     0.21983   0.27120   0.97582   0.00000  Uiso   1.00
H721   H     0.14315   0.53695   0.74290   0.00000  Uiso   1.00
H722   H     0.10955   0.70781   0.77071   0.00000  Uiso   1.00
H723   H     0.17696   0.53312   0.64726   0.00000  Uiso   1.00
H724   H     0.13515   0.36116   0.80161   0.00000  Uiso   1.00
H725   H     0.08462   0.91107   0.81588   0.00000  Uiso   1.00
H726   H     0.22676   0.54267   0.55558   0.00000  Uiso   1.00
H727   H     0.13858   0.18007   0.88106   0.00000  Uiso   1.00
O728   O     0.10486   0.07097   0.88353   0.00000  Uiso   1.00
O729   O     0.29133   0.58764   0.54204   0.00000  Uiso   1.00
O730   O     0.17565   0.11191   0.96906   0.00000  Uiso   1.00
N731   N     0.15135   0.95729   0.88453   0.00000  Uiso   1.00
N732   N     0.28424   0.61289   0.64117   0.00000  Uiso   1.00
N733   N     0.20181   0.27387   0.94545   0.00000  Uiso   1.00
N734   N     0.10764   0.90825   0.83354   0.00000  Uiso   1.00
N735   N     0.24052   0.56385   0.59018   0.00000  Uiso   1.00
N736   N     0.15810   0.22483   0.89446   0.00000  Uiso   1.00
