data_job_01924
_audit_creation_date              2018-12-19
_audit_creation_method            'Materials Studio'
_symmetry_space_group_name_H-M    'P1'
_symmetry_Int_Tables_number       1
_symmetry_cell_setting            triclinic
loop_
_symmetry_equiv_pos_as_xyz
  x,y,z
_cell_length_a                    28.3731
_cell_length_b                    26.4471
_cell_length_c                    14.1903
_cell_angle_alpha                 90.0000
_cell_angle_beta                  90.0000
_cell_angle_gamma                 90.0000
loop_
_atom_site_label
_atom_site_type_symbol
_atom_site_fract_x
_atom_site_fract_y
_atom_site_fract_z
_atom_site_U_iso_or_equiv
_atom_site_adp_type
_atom_site_occupancy
C1     C     0.28934   0.00337   0.35366   0.00000  Uiso   1.00
C2     C     0.26210   0.95367   0.35336   0.00000  Uiso   1.00
C3     C     0.26581   0.91589   0.28590   0.00000  Uiso   1.00
C4     C     0.23788   0.87330   0.29823   0.00000  Uiso   1.00
C5     C     0.20019   0.79684   0.28602   0.00000  Uiso   1.00
C6     C     0.25236   0.04517   0.35688   0.00000  Uiso   1.00
C7     C     0.24790   0.08433   0.29239   0.00000  Uiso   1.00
C8     C     0.21177   0.11878   0.30771   0.00000  Uiso   1.00
C9     C     0.15900   0.18440   0.30100   0.00000  Uiso   1.00
C10    C     0.31504   0.00547   0.44796   0.00000  Uiso   1.00
C11    C     0.36328   0.01127   0.46004   0.00000  Uiso   1.00
C12    C     0.37992   0.01230   0.55204   0.00000  Uiso   1.00
C13    C     0.42447   0.01628   0.68674   0.00000  Uiso   1.00
C14    C     0.23312   0.99491   0.49554   0.00000  Uiso   1.00
C15    C     0.23156   0.94908   0.43042   0.00000  Uiso   1.00
C16    C     0.20361   0.90653   0.44287   0.00000  Uiso   1.00
C17    C     0.20729   0.86870   0.37543   0.00000  Uiso   1.00
C18    C     0.22183   0.04058   0.43394   0.00000  Uiso   1.00
C19    C     0.18570   0.07498   0.44936   0.00000  Uiso   1.00
C20    C     0.18118   0.11418   0.38491   0.00000  Uiso   1.00
C21    C     0.28451   0.00088   0.52502   0.00000  Uiso   1.00
C22    C     0.30108   0.00191   0.61701   0.00000  Uiso   1.00
C23    C     0.34933   0.00770   0.62924   0.00000  Uiso   1.00
H24    H     0.31312   0.00695   0.29366   0.00000  Uiso   1.00
H25    H     0.28944   0.91946   0.22626   0.00000  Uiso   1.00
H26    H     0.27154   0.08788   0.23277   0.00000  Uiso   1.00
H27    H     0.38690   0.01482   0.40039   0.00000  Uiso   1.00
H28    H     0.24972   0.82044   0.18551   0.00000  Uiso   1.00
H29    H     0.21198   0.17558   0.19924   0.00000  Uiso   1.00
H30    H     0.45523   0.02152   0.55271   0.00000  Uiso   1.00
H31    H     0.20935   0.99134   0.55553   0.00000  Uiso   1.00
H32    H     0.17998   0.90299   0.50251   0.00000  Uiso   1.00
H33    H     0.16208   0.07141   0.50901   0.00000  Uiso   1.00
H34    H     0.27744   0.99836   0.67663   0.00000  Uiso   1.00
H35    H     0.16088   0.80708   0.40971   0.00000  Uiso   1.00
H36    H     0.12313   0.16222   0.42344   0.00000  Uiso   1.00
H37    H     0.36639   0.00816   0.77691   0.00000  Uiso   1.00
O38    O     0.18784   0.75593   0.25799   0.00000  Uiso   1.00
O39    O     0.13833   0.22186   0.27601   0.00000  Uiso   1.00
O40    O     0.45748   0.01974   0.73975   0.00000  Uiso   1.00
N41    N     0.23285   0.82942   0.24556   0.00000  Uiso   1.00
N42    N     0.19755   0.16144   0.25839   0.00000  Uiso   1.00
N43    N     0.42498   0.01743   0.58885   0.00000  Uiso   1.00
N44    N     0.18504   0.82223   0.36621   0.00000  Uiso   1.00
N45    N     0.14975   0.15425   0.37903   0.00000  Uiso   1.00
N46    N     0.37717   0.01024   0.70950   0.00000  Uiso   1.00
C47    C     0.51716   0.29227   0.54733   0.00000  Uiso   1.00
C48    C     0.56267   0.26168   0.54322   0.00000  Uiso   1.00
C49    C     0.59900   0.26861   0.47903   0.00000  Uiso   1.00
C50    C     0.63768   0.23673   0.48694   0.00000  Uiso   1.00
C51    C     0.70800   0.19491   0.46994   0.00000  Uiso   1.00
C52    C     0.47712   0.25402   0.53981   0.00000  Uiso   1.00
C53    C     0.44152   0.25451   0.47275   0.00000  Uiso   1.00
C54    C     0.40817   0.21618   0.47781   0.00000  Uiso   1.00
C55    C     0.34566   0.16249   0.45555   0.00000  Uiso   1.00
C56    C     0.51448   0.31387   0.64682   0.00000  Uiso   1.00
C57    C     0.51028   0.36468   0.66974   0.00000  Uiso   1.00
C58    C     0.50837   0.37675   0.76490   0.00000  Uiso   1.00
C59    C     0.50386   0.41598   0.90879   0.00000  Uiso   1.00
C60    C     0.52124   0.22334   0.67555   0.00000  Uiso   1.00
C61    C     0.56489   0.22424   0.61287   0.00000  Uiso   1.00
C62    C     0.60352   0.19234   0.62089   0.00000  Uiso   1.00
C63    C     0.63990   0.19922   0.55672   0.00000  Uiso   1.00
C64    C     0.47934   0.21658   0.60945   0.00000  Uiso   1.00
C65    C     0.44604   0.17824   0.61461   0.00000  Uiso   1.00
C66    C     0.41039   0.17867   0.54757   0.00000  Uiso   1.00
C67    C     0.51670   0.27643   0.71647   0.00000  Uiso   1.00
C68    C     0.51480   0.28841   0.81160   0.00000  Uiso   1.00
C69    C     0.51059   0.33924   0.83466   0.00000  Uiso   1.00
H70    H     0.51543   0.32142   0.49311   0.00000  Uiso   1.00
H71    H     0.59727   0.29759   0.42514   0.00000  Uiso   1.00
H72    H     0.43981   0.28349   0.41887   0.00000  Uiso   1.00
H73    H     0.50856   0.39365   0.61583   0.00000  Uiso   1.00
H74    H     0.68898   0.25464   0.38047   0.00000  Uiso   1.00
H75    H     0.35695   0.22493   0.36727   0.00000  Uiso   1.00
H76    H     0.50193   0.45722   0.78260   0.00000  Uiso   1.00
H77    H     0.52297   0.19418   0.72977   0.00000  Uiso   1.00
H78    H     0.60523   0.16337   0.67479   0.00000  Uiso   1.00
H79    H     0.44776   0.14927   0.66852   0.00000  Uiso   1.00
H80    H     0.51651   0.25943   0.86548   0.00000  Uiso   1.00
H81    H     0.69543   0.14570   0.58309   0.00000  Uiso   1.00
H82    H     0.36340   0.11599   0.56990   0.00000  Uiso   1.00
H83    H     0.50838   0.34828   0.98522   0.00000  Uiso   1.00
O84    O     0.74617   0.18218   0.44132   0.00000  Uiso   1.00
O85    O     0.31056   0.14321   0.42402   0.00000  Uiso   1.00
O86    O     0.50077   0.44797   0.96892   0.00000  Uiso   1.00
N87    N     0.67921   0.23324   0.43571   0.00000  Uiso   1.00
N88    N     0.36879   0.20545   0.42337   0.00000  Uiso   1.00
N89    N     0.50432   0.42262   0.81166   0.00000  Uiso   1.00
N90    N     0.68268   0.17462   0.54474   0.00000  Uiso   1.00
N91    N     0.37226   0.14683   0.53240   0.00000  Uiso   1.00
N92    N     0.50779   0.36400   0.92069   0.00000  Uiso   1.00
C93    C     0.21066   0.49663   0.35366   0.00000  Uiso   1.00
C94    C     0.23790   0.54633   0.35336   0.00000  Uiso   1.00
C95    C     0.23419   0.58411   0.28590   0.00000  Uiso   1.00
C96    C     0.26212   0.62670   0.29823   0.00000  Uiso   1.00
C97    C     0.29981   0.70316   0.28602   0.00000  Uiso   1.00
C98    C     0.24764   0.45483   0.35688   0.00000  Uiso   1.00
C99    C     0.25210   0.41567   0.29239   0.00000  Uiso   1.00
C100   C     0.28823   0.38122   0.30771   0.00000  Uiso   1.00
C101   C     0.34100   0.31560   0.30100   0.00000  Uiso   1.00
C102   C     0.18496   0.49453   0.44796   0.00000  Uiso   1.00
C103   C     0.13672   0.48873   0.46004   0.00000  Uiso   1.00
C104   C     0.12008   0.48770   0.55204   0.00000  Uiso   1.00
C105   C     0.07553   0.48372   0.68674   0.00000  Uiso   1.00
C106   C     0.26688   0.50509   0.49554   0.00000  Uiso   1.00
C107   C     0.26844   0.55092   0.43042   0.00000  Uiso   1.00
C108   C     0.29639   0.59347   0.44287   0.00000  Uiso   1.00
C109   C     0.29271   0.63130   0.37543   0.00000  Uiso   1.00
C110   C     0.27817   0.45942   0.43394   0.00000  Uiso   1.00
C111   C     0.31430   0.42502   0.44936   0.00000  Uiso   1.00
C112   C     0.31882   0.38582   0.38491   0.00000  Uiso   1.00
C113   C     0.21549   0.49912   0.52502   0.00000  Uiso   1.00
C114   C     0.19892   0.49809   0.61701   0.00000  Uiso   1.00
C115   C     0.15067   0.49230   0.62924   0.00000  Uiso   1.00
H116   H     0.18688   0.49305   0.29366   0.00000  Uiso   1.00
H117   H     0.21056   0.58054   0.22626   0.00000  Uiso   1.00
H118   H     0.22846   0.41212   0.23277   0.00000  Uiso   1.00
H119   H     0.11310   0.48518   0.40039   0.00000  Uiso   1.00
H120   H     0.25028   0.67956   0.18551   0.00000  Uiso   1.00
H121   H     0.28802   0.32442   0.19924   0.00000  Uiso   1.00
H122   H     0.04477   0.47848   0.55271   0.00000  Uiso   1.00
H123   H     0.29065   0.50866   0.55553   0.00000  Uiso   1.00
H124   H     0.32002   0.59701   0.50251   0.00000  Uiso   1.00
H125   H     0.33792   0.42859   0.50901   0.00000  Uiso   1.00
H126   H     0.22256   0.50164   0.67663   0.00000  Uiso   1.00
H127   H     0.33912   0.69292   0.40971   0.00000  Uiso   1.00
H128   H     0.37687   0.33778   0.42344   0.00000  Uiso   1.00
H129   H     0.13361   0.49184   0.77691   0.00000  Uiso   1.00
O130   O     0.31216   0.74407   0.25799   0.00000  Uiso   1.00
O131   O     0.36167   0.27814   0.27601   0.00000  Uiso   1.00
O132   O     0.04252   0.48026   0.73975   0.00000  Uiso   1.00
N133   N     0.26715   0.67058   0.24556   0.00000  Uiso   1.00
N134   N     0.30245   0.33856   0.25839   0.00000  Uiso   1.00
N135   N     0.07502   0.48257   0.58885   0.00000  Uiso   1.00
N136   N     0.31496   0.67777   0.36621   0.00000  Uiso   1.00
N137   N     0.35025   0.34575   0.37903   0.00000  Uiso   1.00
N138   N     0.12283   0.48976   0.70950   0.00000  Uiso   1.00
C139   C     0.98284   0.20773   0.54733   0.00000  Uiso   1.00
C140   C     0.93733   0.23832   0.54322   0.00000  Uiso   1.00
C141   C     0.90100   0.23139   0.47903   0.00000  Uiso   1.00
C142   C     0.86232   0.26327   0.48694   0.00000  Uiso   1.00
C143   C     0.79200   0.30509   0.46994   0.00000  Uiso   1.00
C144   C     0.02288   0.24598   0.53981   0.00000  Uiso   1.00
C145   C     0.05848   0.24549   0.47275   0.00000  Uiso   1.00
C146   C     0.09183   0.28382   0.47781   0.00000  Uiso   1.00
C147   C     0.15434   0.33751   0.45555   0.00000  Uiso   1.00
C148   C     0.98552   0.18613   0.64682   0.00000  Uiso   1.00
C149   C     0.98972   0.13532   0.66974   0.00000  Uiso   1.00
C150   C     0.99163   0.12325   0.76490   0.00000  Uiso   1.00
C151   C     0.99614   0.08402   0.90879   0.00000  Uiso   1.00
C152   C     0.97876   0.27666   0.67555   0.00000  Uiso   1.00
C153   C     0.93511   0.27576   0.61287   0.00000  Uiso   1.00
C154   C     0.89648   0.30766   0.62089   0.00000  Uiso   1.00
C155   C     0.86010   0.30078   0.55672   0.00000  Uiso   1.00
C156   C     0.02066   0.28342   0.60945   0.00000  Uiso   1.00
C157   C     0.05396   0.32176   0.61461   0.00000  Uiso   1.00
C158   C     0.08961   0.32133   0.54757   0.00000  Uiso   1.00
C159   C     0.98330   0.22357   0.71647   0.00000  Uiso   1.00
C160   C     0.98520   0.21159   0.81160   0.00000  Uiso   1.00
C161   C     0.98941   0.16076   0.83466   0.00000  Uiso   1.00
H162   H     0.98457   0.17858   0.49311   0.00000  Uiso   1.00
H163   H     0.90273   0.20241   0.42514   0.00000  Uiso   1.00
H164   H     0.06019   0.21651   0.41887   0.00000  Uiso   1.00
H165   H     0.99144   0.10635   0.61583   0.00000  Uiso   1.00
H166   H     0.81102   0.24536   0.38047   0.00000  Uiso   1.00
H167   H     0.14305   0.27507   0.36727   0.00000  Uiso   1.00
H168   H     0.99807   0.04278   0.78260   0.00000  Uiso   1.00
H169   H     0.97703   0.30582   0.72977   0.00000  Uiso   1.00
H170   H     0.89477   0.33663   0.67479   0.00000  Uiso   1.00
H171   H     0.05224   0.35073   0.66852   0.00000  Uiso   1.00
H172   H     0.98349   0.24057   0.86548   0.00000  Uiso   1.00
H173   H     0.80457   0.35430   0.58309   0.00000  Uiso   1.00
H174   H     0.13660   0.38401   0.56990   0.00000  Uiso   1.00
H175   H     0.99162   0.15172   0.98522   0.00000  Uiso   1.00
O176   O     0.75383   0.31782   0.44132   0.00000  Uiso   1.00
O177   O     0.18944   0.35679   0.42402   0.00000  Uiso   1.00
O178   O     0.99923   0.05203   0.96892   0.00000  Uiso   1.00
N179   N     0.82079   0.26676   0.43571   0.00000  Uiso   1.00
N180   N     0.13121   0.29455   0.42337   0.00000  Uiso   1.00
N181   N     0.99568   0.07738   0.81166   0.00000  Uiso   1.00
N182   N     0.81732   0.32538   0.54474   0.00000  Uiso   1.00
N183   N     0.12774   0.35317   0.53240   0.00000  Uiso   1.00
N184   N     0.99221   0.13600   0.92069   0.00000  Uiso   1.00
C185   C     0.71066   0.50337   0.14634   0.00000  Uiso   1.00
C186   C     0.73790   0.45367   0.14664   0.00000  Uiso   1.00
C187   C     0.73419   0.41589   0.21410   0.00000  Uiso   1.00
C188   C     0.76212   0.37330   0.20177   0.00000  Uiso   1.00
C189   C     0.79981   0.29684   0.21398   0.00000  Uiso   1.00
C190   C     0.74764   0.54517   0.14312   0.00000  Uiso   1.00
C191   C     0.75210   0.58433   0.20761   0.00000  Uiso   1.00
C192   C     0.78823   0.61878   0.19229   0.00000  Uiso   1.00
C193   C     0.84100   0.68440   0.19900   0.00000  Uiso   1.00
C194   C     0.68496   0.50547   0.05204   0.00000  Uiso   1.00
C195   C     0.63672   0.51127   0.03996   0.00000  Uiso   1.00
C196   C     0.62008   0.51230   0.94796   0.00000  Uiso   1.00
C197   C     0.57553   0.51628   0.81326   0.00000  Uiso   1.00
C198   C     0.76688   0.49491   0.00446   0.00000  Uiso   1.00
C199   C     0.76844   0.44908   0.06958   0.00000  Uiso   1.00
C200   C     0.79639   0.40653   0.05713   0.00000  Uiso   1.00
C201   C     0.79271   0.36870   0.12457   0.00000  Uiso   1.00
C202   C     0.77817   0.54058   0.06606   0.00000  Uiso   1.00
C203   C     0.81430   0.57498   0.05064   0.00000  Uiso   1.00
C204   C     0.81882   0.61418   0.11509   0.00000  Uiso   1.00
C205   C     0.71549   0.50088   0.97498   0.00000  Uiso   1.00
C206   C     0.69892   0.50191   0.88299   0.00000  Uiso   1.00
C207   C     0.65067   0.50770   0.87076   0.00000  Uiso   1.00
H208   H     0.68688   0.50695   0.20634   0.00000  Uiso   1.00
H209   H     0.71056   0.41946   0.27374   0.00000  Uiso   1.00
H210   H     0.72846   0.58788   0.26723   0.00000  Uiso   1.00
H211   H     0.61310   0.51482   0.09961   0.00000  Uiso   1.00
H212   H     0.75028   0.32044   0.31449   0.00000  Uiso   1.00
H213   H     0.78802   0.67558   0.30076   0.00000  Uiso   1.00
H214   H     0.54477   0.52152   0.94729   0.00000  Uiso   1.00
H215   H     0.79065   0.49134   0.94447   0.00000  Uiso   1.00
H216   H     0.82002   0.40299   0.99749   0.00000  Uiso   1.00
H217   H     0.83792   0.57141   0.99099   0.00000  Uiso   1.00
H218   H     0.72256   0.49836   0.82337   0.00000  Uiso   1.00
H219   H     0.83912   0.30708   0.09029   0.00000  Uiso   1.00
H220   H     0.87687   0.66222   0.07656   0.00000  Uiso   1.00
H221   H     0.63361   0.50816   0.72309   0.00000  Uiso   1.00
O222   O     0.81216   0.25593   0.24201   0.00000  Uiso   1.00
O223   O     0.86167   0.72186   0.22399   0.00000  Uiso   1.00
O224   O     0.54252   0.51974   0.76025   0.00000  Uiso   1.00
N225   N     0.76715   0.32942   0.25444   0.00000  Uiso   1.00
N226   N     0.80245   0.66144   0.24161   0.00000  Uiso   1.00
N227   N     0.57502   0.51743   0.91115   0.00000  Uiso   1.00
N228   N     0.81496   0.32223   0.13379   0.00000  Uiso   1.00
N229   N     0.85025   0.65425   0.12097   0.00000  Uiso   1.00
N230   N     0.62283   0.51024   0.79050   0.00000  Uiso   1.00
C231   C     0.48284   0.79227   0.95267   0.00000  Uiso   1.00
C232   C     0.43733   0.76168   0.95678   0.00000  Uiso   1.00
C233   C     0.40100   0.76861   0.02097   0.00000  Uiso   1.00
C234   C     0.36232   0.73673   0.01306   0.00000  Uiso   1.00
C235   C     0.29200   0.69491   0.03006   0.00000  Uiso   1.00
C236   C     0.52288   0.75402   0.96019   0.00000  Uiso   1.00
C237   C     0.55848   0.75451   0.02725   0.00000  Uiso   1.00
C238   C     0.59183   0.71618   0.02219   0.00000  Uiso   1.00
C239   C     0.65434   0.66249   0.04445   0.00000  Uiso   1.00
C240   C     0.48552   0.81387   0.85318   0.00000  Uiso   1.00
C241   C     0.48972   0.86468   0.83026   0.00000  Uiso   1.00
C242   C     0.49163   0.87675   0.73510   0.00000  Uiso   1.00
C243   C     0.49614   0.91598   0.59121   0.00000  Uiso   1.00
C244   C     0.47876   0.72334   0.82445   0.00000  Uiso   1.00
C245   C     0.43511   0.72424   0.88713   0.00000  Uiso   1.00
C246   C     0.39648   0.69234   0.87911   0.00000  Uiso   1.00
C247   C     0.36010   0.69922   0.94328   0.00000  Uiso   1.00
C248   C     0.52066   0.71658   0.89055   0.00000  Uiso   1.00
C249   C     0.55396   0.67824   0.88539   0.00000  Uiso   1.00
C250   C     0.58961   0.67867   0.95243   0.00000  Uiso   1.00
C251   C     0.48330   0.77643   0.78353   0.00000  Uiso   1.00
C252   C     0.48520   0.78841   0.68840   0.00000  Uiso   1.00
C253   C     0.48941   0.83924   0.66534   0.00000  Uiso   1.00
H254   H     0.48457   0.82142   0.00689   0.00000  Uiso   1.00
H255   H     0.40273   0.79759   0.07486   0.00000  Uiso   1.00
H256   H     0.56019   0.78349   0.08113   0.00000  Uiso   1.00
H257   H     0.49144   0.89365   0.88417   0.00000  Uiso   1.00
H258   H     0.31102   0.75464   0.11953   0.00000  Uiso   1.00
H259   H     0.64305   0.72493   0.13273   0.00000  Uiso   1.00
H260   H     0.49807   0.95722   0.71740   0.00000  Uiso   1.00
H261   H     0.47703   0.69418   0.77023   0.00000  Uiso   1.00
H262   H     0.39477   0.66337   0.82521   0.00000  Uiso   1.00
H263   H     0.55224   0.64927   0.83148   0.00000  Uiso   1.00
H264   H     0.48349   0.75943   0.63452   0.00000  Uiso   1.00
H265   H     0.30457   0.64570   0.91691   0.00000  Uiso   1.00
H266   H     0.63660   0.61599   0.93010   0.00000  Uiso   1.00
H267   H     0.49162   0.84828   0.51478   0.00000  Uiso   1.00
O268   O     0.25383   0.68218   0.05868   0.00000  Uiso   1.00
O269   O     0.68944   0.64321   0.07598   0.00000  Uiso   1.00
O270   O     0.49923   0.94797   0.53108   0.00000  Uiso   1.00
N271   N     0.32079   0.73324   0.06429   0.00000  Uiso   1.00
N272   N     0.63121   0.70545   0.07663   0.00000  Uiso   1.00
N273   N     0.49568   0.92262   0.68834   0.00000  Uiso   1.00
N274   N     0.31732   0.67462   0.95526   0.00000  Uiso   1.00
N275   N     0.62774   0.64683   0.96760   0.00000  Uiso   1.00
N276   N     0.49221   0.86400   0.57931   0.00000  Uiso   1.00
C277   C     0.78934   0.99663   0.14634   0.00000  Uiso   1.00
C278   C     0.76210   0.04633   0.14664   0.00000  Uiso   1.00
C279   C     0.76581   0.08411   0.21410   0.00000  Uiso   1.00
C280   C     0.73788   0.12670   0.20177   0.00000  Uiso   1.00
C281   C     0.70019   0.20316   0.21398   0.00000  Uiso   1.00
C282   C     0.75236   0.95483   0.14312   0.00000  Uiso   1.00
C283   C     0.74790   0.91567   0.20761   0.00000  Uiso   1.00
C284   C     0.71177   0.88122   0.19229   0.00000  Uiso   1.00
C285   C     0.65900   0.81560   0.19900   0.00000  Uiso   1.00
C286   C     0.81504   0.99453   0.05204   0.00000  Uiso   1.00
C287   C     0.86328   0.98873   0.03996   0.00000  Uiso   1.00
C288   C     0.87992   0.98770   0.94796   0.00000  Uiso   1.00
C289   C     0.92447   0.98372   0.81326   0.00000  Uiso   1.00
C290   C     0.73312   0.00509   0.00446   0.00000  Uiso   1.00
C291   C     0.73156   0.05092   0.06958   0.00000  Uiso   1.00
C292   C     0.70361   0.09347   0.05713   0.00000  Uiso   1.00
C293   C     0.70729   0.13130   0.12457   0.00000  Uiso   1.00
C294   C     0.72183   0.95942   0.06606   0.00000  Uiso   1.00
C295   C     0.68570   0.92502   0.05064   0.00000  Uiso   1.00
C296   C     0.68118   0.88582   0.11509   0.00000  Uiso   1.00
C297   C     0.78451   0.99912   0.97498   0.00000  Uiso   1.00
C298   C     0.80108   0.99809   0.88299   0.00000  Uiso   1.00
C299   C     0.84933   0.99230   0.87076   0.00000  Uiso   1.00
H300   H     0.81312   0.99305   0.20634   0.00000  Uiso   1.00
H301   H     0.78944   0.08054   0.27374   0.00000  Uiso   1.00
H302   H     0.77154   0.91212   0.26723   0.00000  Uiso   1.00
H303   H     0.88690   0.98518   0.09961   0.00000  Uiso   1.00
H304   H     0.74972   0.17956   0.31449   0.00000  Uiso   1.00
H305   H     0.71198   0.82442   0.30076   0.00000  Uiso   1.00
H306   H     0.95523   0.97848   0.94729   0.00000  Uiso   1.00
H307   H     0.70935   0.00866   0.94447   0.00000  Uiso   1.00
H308   H     0.67998   0.09701   0.99749   0.00000  Uiso   1.00
H309   H     0.66208   0.92859   0.99099   0.00000  Uiso   1.00
H310   H     0.77744   0.00164   0.82337   0.00000  Uiso   1.00
H311   H     0.66088   0.19292   0.09029   0.00000  Uiso   1.00
H312   H     0.62313   0.83778   0.07656   0.00000  Uiso   1.00
H313   H     0.86639   0.99184   0.72309   0.00000  Uiso   1.00
O314   O     0.68784   0.24407   0.24201   0.00000  Uiso   1.00
O315   O     0.63833   0.77814   0.22399   0.00000  Uiso   1.00
O316   O     0.95748   0.98026   0.76025   0.00000  Uiso   1.00
N317   N     0.73285   0.17058   0.25444   0.00000  Uiso   1.00
N318   N     0.69755   0.83856   0.24161   0.00000  Uiso   1.00
N319   N     0.92498   0.98257   0.91115   0.00000  Uiso   1.00
N320   N     0.68504   0.17777   0.13379   0.00000  Uiso   1.00
N321   N     0.64975   0.84575   0.12097   0.00000  Uiso   1.00
N322   N     0.87717   0.98976   0.79050   0.00000  Uiso   1.00
C323   C     0.01716   0.70773   0.95267   0.00000  Uiso   1.00
C324   C     0.06267   0.73832   0.95678   0.00000  Uiso   1.00
C325   C     0.09900   0.73139   0.02097   0.00000  Uiso   1.00
C326   C     0.13768   0.76327   0.01306   0.00000  Uiso   1.00
C327   C     0.20800   0.80509   0.03006   0.00000  Uiso   1.00
C328   C     0.97712   0.74598   0.96019   0.00000  Uiso   1.00
C329   C     0.94152   0.74549   0.02725   0.00000  Uiso   1.00
C330   C     0.90817   0.78382   0.02219   0.00000  Uiso   1.00
C331   C     0.84566   0.83751   0.04445   0.00000  Uiso   1.00
C332   C     0.01448   0.68613   0.85318   0.00000  Uiso   1.00
C333   C     0.01028   0.63532   0.83026   0.00000  Uiso   1.00
C334   C     0.00837   0.62325   0.73510   0.00000  Uiso   1.00
C335   C     0.00386   0.58402   0.59121   0.00000  Uiso   1.00
C336   C     0.02124   0.77666   0.82445   0.00000  Uiso   1.00
C337   C     0.06489   0.77576   0.88713   0.00000  Uiso   1.00
C338   C     0.10352   0.80766   0.87911   0.00000  Uiso   1.00
C339   C     0.13990   0.80078   0.94328   0.00000  Uiso   1.00
C340   C     0.97934   0.78342   0.89055   0.00000  Uiso   1.00
C341   C     0.94604   0.82176   0.88539   0.00000  Uiso   1.00
C342   C     0.91039   0.82133   0.95243   0.00000  Uiso   1.00
C343   C     0.01670   0.72357   0.78353   0.00000  Uiso   1.00
C344   C     0.01480   0.71159   0.68840   0.00000  Uiso   1.00
C345   C     0.01059   0.66076   0.66534   0.00000  Uiso   1.00
H346   H     0.01543   0.67858   0.00689   0.00000  Uiso   1.00
H347   H     0.09727   0.70241   0.07486   0.00000  Uiso   1.00
H348   H     0.93981   0.71651   0.08113   0.00000  Uiso   1.00
H349   H     0.00856   0.60635   0.88417   0.00000  Uiso   1.00
H350   H     0.18898   0.74536   0.11953   0.00000  Uiso   1.00
H351   H     0.85695   0.77507   0.13273   0.00000  Uiso   1.00
H352   H     0.00193   0.54278   0.71740   0.00000  Uiso   1.00
H353   H     0.02297   0.80582   0.77023   0.00000  Uiso   1.00
H354   H     0.10523   0.83663   0.82521   0.00000  Uiso   1.00
H355   H     0.94776   0.85073   0.83148   0.00000  Uiso   1.00
H356   H     0.01651   0.74057   0.63452   0.00000  Uiso   1.00
H357   H     0.19543   0.85430   0.91691   0.00000  Uiso   1.00
H358   H     0.86340   0.88401   0.93010   0.00000  Uiso   1.00
H359   H     0.00838   0.65172   0.51478   0.00000  Uiso   1.00
O360   O     0.24617   0.81782   0.05868   0.00000  Uiso   1.00
O361   O     0.81056   0.85679   0.07598   0.00000  Uiso   1.00
O362   O     0.00077   0.55203   0.53108   0.00000  Uiso   1.00
N363   N     0.17921   0.76676   0.06429   0.00000  Uiso   1.00
N364   N     0.86879   0.79455   0.07663   0.00000  Uiso   1.00
N365   N     0.00432   0.57738   0.68834   0.00000  Uiso   1.00
N366   N     0.18268   0.82538   0.95526   0.00000  Uiso   1.00
N367   N     0.87226   0.85317   0.96760   0.00000  Uiso   1.00
N368   N     0.00779   0.63600   0.57931   0.00000  Uiso   1.00
C369   C     0.71066   0.99663   0.64634   0.00000  Uiso   1.00
C370   C     0.73790   0.04633   0.64664   0.00000  Uiso   1.00
C371   C     0.73419   0.08411   0.71410   0.00000  Uiso   1.00
C372   C     0.76212   0.12670   0.70177   0.00000  Uiso   1.00
C373   C     0.79981   0.20316   0.71398   0.00000  Uiso   1.00
C374   C     0.74764   0.95483   0.64312   0.00000  Uiso   1.00
C375   C     0.75210   0.91567   0.70761   0.00000  Uiso   1.00
C376   C     0.78823   0.88122   0.69229   0.00000  Uiso   1.00
C377   C     0.84100   0.81560   0.69900   0.00000  Uiso   1.00
C378   C     0.68496   0.99453   0.55204   0.00000  Uiso   1.00
C379   C     0.63672   0.98873   0.53996   0.00000  Uiso   1.00
C380   C     0.62008   0.98770   0.44796   0.00000  Uiso   1.00
C381   C     0.57553   0.98372   0.31326   0.00000  Uiso   1.00
C382   C     0.76688   0.00509   0.50446   0.00000  Uiso   1.00
C383   C     0.76844   0.05092   0.56958   0.00000  Uiso   1.00
C384   C     0.79639   0.09347   0.55713   0.00000  Uiso   1.00
C385   C     0.79271   0.13130   0.62457   0.00000  Uiso   1.00
C386   C     0.77817   0.95942   0.56606   0.00000  Uiso   1.00
C387   C     0.81430   0.92502   0.55064   0.00000  Uiso   1.00
C388   C     0.81882   0.88582   0.61509   0.00000  Uiso   1.00
C389   C     0.71549   0.99912   0.47498   0.00000  Uiso   1.00
C390   C     0.69892   0.99809   0.38299   0.00000  Uiso   1.00
C391   C     0.65067   0.99230   0.37076   0.00000  Uiso   1.00
H392   H     0.68688   0.99305   0.70634   0.00000  Uiso   1.00
H393   H     0.71056   0.08054   0.77374   0.00000  Uiso   1.00
H394   H     0.72846   0.91212   0.76723   0.00000  Uiso   1.00
H395   H     0.61310   0.98518   0.59961   0.00000  Uiso   1.00
H396   H     0.75028   0.17956   0.81449   0.00000  Uiso   1.00
H397   H     0.78802   0.82442   0.80076   0.00000  Uiso   1.00
H398   H     0.54477   0.97848   0.44729   0.00000  Uiso   1.00
H399   H     0.79065   0.00866   0.44447   0.00000  Uiso   1.00
H400   H     0.82002   0.09701   0.49749   0.00000  Uiso   1.00
H401   H     0.83792   0.92859   0.49099   0.00000  Uiso   1.00
H402   H     0.72256   0.00164   0.32337   0.00000  Uiso   1.00
H403   H     0.83912   0.19292   0.59029   0.00000  Uiso   1.00
H404   H     0.87687   0.83778   0.57656   0.00000  Uiso   1.00
H405   H     0.63361   0.99184   0.22309   0.00000  Uiso   1.00
O406   O     0.81216   0.24407   0.74201   0.00000  Uiso   1.00
O407   O     0.86167   0.77814   0.72399   0.00000  Uiso   1.00
O408   O     0.54252   0.98026   0.26025   0.00000  Uiso   1.00
N409   N     0.76715   0.17058   0.75444   0.00000  Uiso   1.00
N410   N     0.80245   0.83856   0.74161   0.00000  Uiso   1.00
N411   N     0.57502   0.98257   0.41115   0.00000  Uiso   1.00
N412   N     0.81496   0.17777   0.63379   0.00000  Uiso   1.00
N413   N     0.85025   0.84575   0.62097   0.00000  Uiso   1.00
N414   N     0.62283   0.98976   0.29050   0.00000  Uiso   1.00
C415   C     0.48284   0.70773   0.45267   0.00000  Uiso   1.00
C416   C     0.43733   0.73832   0.45678   0.00000  Uiso   1.00
C417   C     0.40100   0.73139   0.52097   0.00000  Uiso   1.00
C418   C     0.36232   0.76327   0.51306   0.00000  Uiso   1.00
C419   C     0.29200   0.80509   0.53006   0.00000  Uiso   1.00
C420   C     0.52288   0.74598   0.46019   0.00000  Uiso   1.00
C421   C     0.55848   0.74549   0.52725   0.00000  Uiso   1.00
C422   C     0.59183   0.78382   0.52219   0.00000  Uiso   1.00
C423   C     0.65434   0.83751   0.54445   0.00000  Uiso   1.00
C424   C     0.48552   0.68613   0.35318   0.00000  Uiso   1.00
C425   C     0.48972   0.63532   0.33026   0.00000  Uiso   1.00
C426   C     0.49163   0.62325   0.23510   0.00000  Uiso   1.00
C427   C     0.49614   0.58402   0.09121   0.00000  Uiso   1.00
C428   C     0.47876   0.77666   0.32445   0.00000  Uiso   1.00
C429   C     0.43511   0.77576   0.38713   0.00000  Uiso   1.00
C430   C     0.39648   0.80766   0.37911   0.00000  Uiso   1.00
C431   C     0.36010   0.80078   0.44328   0.00000  Uiso   1.00
C432   C     0.52066   0.78342   0.39055   0.00000  Uiso   1.00
C433   C     0.55396   0.82176   0.38539   0.00000  Uiso   1.00
C434   C     0.58961   0.82133   0.45243   0.00000  Uiso   1.00
C435   C     0.48330   0.72357   0.28353   0.00000  Uiso   1.00
C436   C     0.48520   0.71159   0.18840   0.00000  Uiso   1.00
C437   C     0.48941   0.66076   0.16534   0.00000  Uiso   1.00
H438   H     0.48457   0.67858   0.50689   0.00000  Uiso   1.00
H439   H     0.40273   0.70241   0.57486   0.00000  Uiso   1.00
H440   H     0.56019   0.71651   0.58113   0.00000  Uiso   1.00
H441   H     0.49144   0.60635   0.38417   0.00000  Uiso   1.00
H442   H     0.31102   0.74536   0.61953   0.00000  Uiso   1.00
H443   H     0.64305   0.77507   0.63273   0.00000  Uiso   1.00
H444   H     0.49807   0.54278   0.21740   0.00000  Uiso   1.00
H445   H     0.47703   0.80582   0.27023   0.00000  Uiso   1.00
H446   H     0.39477   0.83663   0.32521   0.00000  Uiso   1.00
H447   H     0.55224   0.85073   0.33148   0.00000  Uiso   1.00
H448   H     0.48349   0.74057   0.13452   0.00000  Uiso   1.00
H449   H     0.30457   0.85430   0.41691   0.00000  Uiso   1.00
H450   H     0.63660   0.88401   0.43010   0.00000  Uiso   1.00
H451   H     0.49162   0.65172   0.01478   0.00000  Uiso   1.00
O452   O     0.25383   0.81782   0.55868   0.00000  Uiso   1.00
O453   O     0.68944   0.85679   0.57598   0.00000  Uiso   1.00
O454   O     0.49923   0.55203   0.03108   0.00000  Uiso   1.00
N455   N     0.32079   0.76676   0.56429   0.00000  Uiso   1.00
N456   N     0.63121   0.79455   0.57663   0.00000  Uiso   1.00
N457   N     0.49568   0.57738   0.18834   0.00000  Uiso   1.00
N458   N     0.31732   0.82538   0.45526   0.00000  Uiso   1.00
N459   N     0.62774   0.85317   0.46760   0.00000  Uiso   1.00
N460   N     0.49221   0.63600   0.07931   0.00000  Uiso   1.00
C461   C     0.78934   0.50337   0.64634   0.00000  Uiso   1.00
C462   C     0.76210   0.45367   0.64664   0.00000  Uiso   1.00
C463   C     0.76581   0.41589   0.71410   0.00000  Uiso   1.00
C464   C     0.73788   0.37330   0.70177   0.00000  Uiso   1.00
C465   C     0.70019   0.29684   0.71398   0.00000  Uiso   1.00
C466   C     0.75236   0.54517   0.64312   0.00000  Uiso   1.00
C467   C     0.74790   0.58433   0.70761   0.00000  Uiso   1.00
C468   C     0.71177   0.61878   0.69229   0.00000  Uiso   1.00
C469   C     0.65900   0.68440   0.69900   0.00000  Uiso   1.00
C470   C     0.81504   0.50547   0.55204   0.00000  Uiso   1.00
C471   C     0.86328   0.51127   0.53996   0.00000  Uiso   1.00
C472   C     0.87992   0.51230   0.44796   0.00000  Uiso   1.00
C473   C     0.92447   0.51628   0.31326   0.00000  Uiso   1.00
C474   C     0.73312   0.49491   0.50446   0.00000  Uiso   1.00
C475   C     0.73156   0.44908   0.56958   0.00000  Uiso   1.00
C476   C     0.70361   0.40653   0.55713   0.00000  Uiso   1.00
C477   C     0.70729   0.36870   0.62457   0.00000  Uiso   1.00
C478   C     0.72183   0.54058   0.56606   0.00000  Uiso   1.00
C479   C     0.68570   0.57498   0.55064   0.00000  Uiso   1.00
C480   C     0.68118   0.61418   0.61509   0.00000  Uiso   1.00
C481   C     0.78451   0.50088   0.47498   0.00000  Uiso   1.00
C482   C     0.80108   0.50191   0.38299   0.00000  Uiso   1.00
C483   C     0.84933   0.50770   0.37076   0.00000  Uiso   1.00
H484   H     0.81312   0.50695   0.70634   0.00000  Uiso   1.00
H485   H     0.78944   0.41946   0.77374   0.00000  Uiso   1.00
H486   H     0.77154   0.58788   0.76723   0.00000  Uiso   1.00
H487   H     0.88690   0.51482   0.59961   0.00000  Uiso   1.00
H488   H     0.74972   0.32044   0.81449   0.00000  Uiso   1.00
H489   H     0.71198   0.67558   0.80076   0.00000  Uiso   1.00
H490   H     0.95523   0.52152   0.44729   0.00000  Uiso   1.00
H491   H     0.70935   0.49134   0.44447   0.00000  Uiso   1.00
H492   H     0.67998   0.40299   0.49749   0.00000  Uiso   1.00
H493   H     0.66208   0.57141   0.49099   0.00000  Uiso   1.00
H494   H     0.77744   0.49836   0.32337   0.00000  Uiso   1.00
H495   H     0.66088   0.30708   0.59029   0.00000  Uiso   1.00
H496   H     0.62313   0.66222   0.57656   0.00000  Uiso   1.00
H497   H     0.86639   0.50816   0.22309   0.00000  Uiso   1.00
O498   O     0.68784   0.25593   0.74201   0.00000  Uiso   1.00
O499   O     0.63833   0.72186   0.72399   0.00000  Uiso   1.00
O500   O     0.95748   0.51974   0.26025   0.00000  Uiso   1.00
N501   N     0.73285   0.32942   0.75444   0.00000  Uiso   1.00
N502   N     0.69755   0.66144   0.74161   0.00000  Uiso   1.00
N503   N     0.92498   0.51743   0.41115   0.00000  Uiso   1.00
N504   N     0.68504   0.32223   0.63379   0.00000  Uiso   1.00
N505   N     0.64975   0.65425   0.62097   0.00000  Uiso   1.00
N506   N     0.87717   0.51024   0.29050   0.00000  Uiso   1.00
C507   C     0.01716   0.79227   0.45267   0.00000  Uiso   1.00
C508   C     0.06267   0.76168   0.45678   0.00000  Uiso   1.00
C509   C     0.09900   0.76861   0.52097   0.00000  Uiso   1.00
C510   C     0.13768   0.73673   0.51306   0.00000  Uiso   1.00
C511   C     0.20800   0.69491   0.53006   0.00000  Uiso   1.00
C512   C     0.97712   0.75402   0.46019   0.00000  Uiso   1.00
C513   C     0.94152   0.75451   0.52725   0.00000  Uiso   1.00
C514   C     0.90817   0.71618   0.52219   0.00000  Uiso   1.00
C515   C     0.84566   0.66249   0.54445   0.00000  Uiso   1.00
C516   C     0.01448   0.81387   0.35318   0.00000  Uiso   1.00
C517   C     0.01028   0.86468   0.33026   0.00000  Uiso   1.00
C518   C     0.00837   0.87675   0.23510   0.00000  Uiso   1.00
C519   C     0.00386   0.91598   0.09121   0.00000  Uiso   1.00
C520   C     0.02124   0.72334   0.32445   0.00000  Uiso   1.00
C521   C     0.06489   0.72424   0.38713   0.00000  Uiso   1.00
C522   C     0.10352   0.69234   0.37911   0.00000  Uiso   1.00
C523   C     0.13990   0.69922   0.44328   0.00000  Uiso   1.00
C524   C     0.97934   0.71658   0.39055   0.00000  Uiso   1.00
C525   C     0.94604   0.67824   0.38539   0.00000  Uiso   1.00
C526   C     0.91039   0.67867   0.45243   0.00000  Uiso   1.00
C527   C     0.01670   0.77643   0.28353   0.00000  Uiso   1.00
C528   C     0.01480   0.78841   0.18840   0.00000  Uiso   1.00
C529   C     0.01059   0.83924   0.16534   0.00000  Uiso   1.00
H530   H     0.01543   0.82142   0.50689   0.00000  Uiso   1.00
H531   H     0.09727   0.79759   0.57486   0.00000  Uiso   1.00
H532   H     0.93981   0.78349   0.58113   0.00000  Uiso   1.00
H533   H     0.00856   0.89365   0.38417   0.00000  Uiso   1.00
H534   H     0.18898   0.75464   0.61953   0.00000  Uiso   1.00
H535   H     0.85695   0.72493   0.63273   0.00000  Uiso   1.00
H536   H     0.00193   0.95722   0.21740   0.00000  Uiso   1.00
H537   H     0.02297   0.69418   0.27023   0.00000  Uiso   1.00
H538   H     0.10523   0.66337   0.32521   0.00000  Uiso   1.00
H539   H     0.94776   0.64927   0.33148   0.00000  Uiso   1.00
H540   H     0.01651   0.75943   0.13452   0.00000  Uiso   1.00
H541   H     0.19543   0.64570   0.41691   0.00000  Uiso   1.00
H542   H     0.86340   0.61599   0.43010   0.00000  Uiso   1.00
H543   H     0.00838   0.84828   0.01478   0.00000  Uiso   1.00
O544   O     0.24617   0.68218   0.55868   0.00000  Uiso   1.00
O545   O     0.81056   0.64321   0.57598   0.00000  Uiso   1.00
O546   O     0.00077   0.94797   0.03108   0.00000  Uiso   1.00
N547   N     0.17921   0.73324   0.56429   0.00000  Uiso   1.00
N548   N     0.86879   0.70545   0.57663   0.00000  Uiso   1.00
N549   N     0.00432   0.92262   0.18834   0.00000  Uiso   1.00
N550   N     0.18268   0.67462   0.45526   0.00000  Uiso   1.00
N551   N     0.87226   0.64683   0.46760   0.00000  Uiso   1.00
N552   N     0.00779   0.86400   0.07931   0.00000  Uiso   1.00
C553   C     0.28934   0.49663   0.85366   0.00000  Uiso   1.00
C554   C     0.26210   0.54633   0.85336   0.00000  Uiso   1.00
C555   C     0.26581   0.58411   0.78590   0.00000  Uiso   1.00
C556   C     0.23788   0.62670   0.79823   0.00000  Uiso   1.00
C557   C     0.20019   0.70316   0.78602   0.00000  Uiso   1.00
C558   C     0.25236   0.45483   0.85688   0.00000  Uiso   1.00
C559   C     0.24790   0.41567   0.79239   0.00000  Uiso   1.00
C560   C     0.21177   0.38122   0.80771   0.00000  Uiso   1.00
C561   C     0.15900   0.31560   0.80100   0.00000  Uiso   1.00
C562   C     0.31504   0.49453   0.94796   0.00000  Uiso   1.00
C563   C     0.36328   0.48873   0.96004   0.00000  Uiso   1.00
C564   C     0.37992   0.48770   0.05204   0.00000  Uiso   1.00
C565   C     0.42447   0.48372   0.18674   0.00000  Uiso   1.00
C566   C     0.23312   0.50509   0.99554   0.00000  Uiso   1.00
C567   C     0.23156   0.55092   0.93042   0.00000  Uiso   1.00
C568   C     0.20361   0.59347   0.94287   0.00000  Uiso   1.00
C569   C     0.20729   0.63130   0.87543   0.00000  Uiso   1.00
C570   C     0.22183   0.45942   0.93394   0.00000  Uiso   1.00
C571   C     0.18570   0.42502   0.94936   0.00000  Uiso   1.00
C572   C     0.18118   0.38582   0.88491   0.00000  Uiso   1.00
C573   C     0.28451   0.49912   0.02502   0.00000  Uiso   1.00
C574   C     0.30108   0.49809   0.11701   0.00000  Uiso   1.00
C575   C     0.34933   0.49230   0.12924   0.00000  Uiso   1.00
H576   H     0.31312   0.49305   0.79366   0.00000  Uiso   1.00
H577   H     0.28944   0.58054   0.72626   0.00000  Uiso   1.00
H578   H     0.27154   0.41212   0.73277   0.00000  Uiso   1.00
H579   H     0.38690   0.48518   0.90039   0.00000  Uiso   1.00
H580   H     0.24972   0.67956   0.68551   0.00000  Uiso   1.00
H581   H     0.21198   0.32442   0.69924   0.00000  Uiso   1.00
H582   H     0.45523   0.47848   0.05271   0.00000  Uiso   1.00
H583   H     0.20935   0.50866   0.05553   0.00000  Uiso   1.00
H584   H     0.17998   0.59701   0.00251   0.00000  Uiso   1.00
H585   H     0.16208   0.42859   0.00901   0.00000  Uiso   1.00
H586   H     0.27744   0.50164   0.17663   0.00000  Uiso   1.00
H587   H     0.16088   0.69292   0.90971   0.00000  Uiso   1.00
H588   H     0.12313   0.33778   0.92344   0.00000  Uiso   1.00
H589   H     0.36639   0.49184   0.27691   0.00000  Uiso   1.00
O590   O     0.18784   0.74407   0.75799   0.00000  Uiso   1.00
O591   O     0.13833   0.27814   0.77601   0.00000  Uiso   1.00
O592   O     0.45748   0.48026   0.23975   0.00000  Uiso   1.00
N593   N     0.23285   0.67058   0.74556   0.00000  Uiso   1.00
N594   N     0.19755   0.33856   0.75839   0.00000  Uiso   1.00
N595   N     0.42498   0.48257   0.08885   0.00000  Uiso   1.00
N596   N     0.18504   0.67777   0.86621   0.00000  Uiso   1.00
N597   N     0.14975   0.34575   0.87903   0.00000  Uiso   1.00
N598   N     0.37717   0.48976   0.20950   0.00000  Uiso   1.00
C599   C     0.51716   0.20773   0.04733   0.00000  Uiso   1.00
C600   C     0.56267   0.23832   0.04322   0.00000  Uiso   1.00
C601   C     0.59900   0.23139   0.97903   0.00000  Uiso   1.00
C602   C     0.63768   0.26327   0.98694   0.00000  Uiso   1.00
C603   C     0.70800   0.30509   0.96994   0.00000  Uiso   1.00
C604   C     0.47712   0.24598   0.03981   0.00000  Uiso   1.00
C605   C     0.44152   0.24549   0.97275   0.00000  Uiso   1.00
C606   C     0.40817   0.28382   0.97781   0.00000  Uiso   1.00
C607   C     0.34566   0.33751   0.95555   0.00000  Uiso   1.00
C608   C     0.51448   0.18613   0.14682   0.00000  Uiso   1.00
C609   C     0.51028   0.13532   0.16974   0.00000  Uiso   1.00
C610   C     0.50837   0.12325   0.26490   0.00000  Uiso   1.00
C611   C     0.50386   0.08402   0.40879   0.00000  Uiso   1.00
C612   C     0.52124   0.27666   0.17555   0.00000  Uiso   1.00
C613   C     0.56489   0.27576   0.11287   0.00000  Uiso   1.00
C614   C     0.60352   0.30766   0.12089   0.00000  Uiso   1.00
C615   C     0.63990   0.30078   0.05672   0.00000  Uiso   1.00
C616   C     0.47934   0.28342   0.10945   0.00000  Uiso   1.00
C617   C     0.44604   0.32176   0.11461   0.00000  Uiso   1.00
C618   C     0.41039   0.32133   0.04757   0.00000  Uiso   1.00
C619   C     0.51670   0.22357   0.21647   0.00000  Uiso   1.00
C620   C     0.51480   0.21159   0.31160   0.00000  Uiso   1.00
C621   C     0.51059   0.16076   0.33466   0.00000  Uiso   1.00
H622   H     0.51543   0.17858   0.99311   0.00000  Uiso   1.00
H623   H     0.59727   0.20241   0.92514   0.00000  Uiso   1.00
H624   H     0.43981   0.21651   0.91887   0.00000  Uiso   1.00
H625   H     0.50856   0.10635   0.11583   0.00000  Uiso   1.00
H626   H     0.68898   0.24536   0.88047   0.00000  Uiso   1.00
H627   H     0.35695   0.27507   0.86727   0.00000  Uiso   1.00
H628   H     0.50193   0.04278   0.28260   0.00000  Uiso   1.00
H629   H     0.52297   0.30582   0.22977   0.00000  Uiso   1.00
H630   H     0.60523   0.33663   0.17479   0.00000  Uiso   1.00
H631   H     0.44776   0.35073   0.16852   0.00000  Uiso   1.00
H632   H     0.51651   0.24057   0.36548   0.00000  Uiso   1.00
H633   H     0.69543   0.35430   0.08309   0.00000  Uiso   1.00
H634   H     0.36340   0.38401   0.06990   0.00000  Uiso   1.00
H635   H     0.50838   0.15172   0.48522   0.00000  Uiso   1.00
O636   O     0.74617   0.31782   0.94132   0.00000  Uiso   1.00
O637   O     0.31056   0.35679   0.92402   0.00000  Uiso   1.00
O638   O     0.50077   0.05203   0.46892   0.00000  Uiso   1.00
N639   N     0.67921   0.26676   0.93571   0.00000  Uiso   1.00
N640   N     0.36879   0.29455   0.92337   0.00000  Uiso   1.00
N641   N     0.50432   0.07738   0.31166   0.00000  Uiso   1.00
N642   N     0.68268   0.32538   0.04474   0.00000  Uiso   1.00
N643   N     0.37226   0.35317   0.03240   0.00000  Uiso   1.00
N644   N     0.50779   0.13600   0.42069   0.00000  Uiso   1.00
C645   C     0.21066   0.00337   0.85366   0.00000  Uiso   1.00
C646   C     0.23790   0.95367   0.85336   0.00000  Uiso   1.00
C647   C     0.23419   0.91589   0.78590   0.00000  Uiso   1.00
C648   C     0.26212   0.87330   0.79823   0.00000  Uiso   1.00
C649   C     0.29981   0.79684   0.78602   0.00000  Uiso   1.00
C650   C     0.24764   0.04517   0.85688   0.00000  Uiso   1.00
C651   C     0.25210   0.08433   0.79239   0.00000  Uiso   1.00
C652   C     0.28823   0.11878   0.80771   0.00000  Uiso   1.00
C653   C     0.34100   0.18440   0.80100   0.00000  Uiso   1.00
C654   C     0.18496   0.00547   0.94796   0.00000  Uiso   1.00
C655   C     0.13672   0.01127   0.96004   0.00000  Uiso   1.00
C656   C     0.12008   0.01230   0.05204   0.00000  Uiso   1.00
C657   C     0.07553   0.01628   0.18674   0.00000  Uiso   1.00
C658   C     0.26688   0.99491   0.99554   0.00000  Uiso   1.00
C659   C     0.26844   0.94908   0.93042   0.00000  Uiso   1.00
C660   C     0.29639   0.90653   0.94287   0.00000  Uiso   1.00
C661   C     0.29271   0.86870   0.87543   0.00000  Uiso   1.00
C662   C     0.27817   0.04058   0.93394   0.00000  Uiso   1.00
C663   C     0.31430   0.07498   0.94936   0.00000  Uiso   1.00
C664   C     0.31882   0.11418   0.88491   0.00000  Uiso   1.00
C665   C     0.21549   0.00088   0.02502   0.00000  Uiso   1.00
C666   C     0.19892   0.00191   0.11701   0.00000  Uiso   1.00
C667   C     0.15067   0.00770   0.12924   0.00000  Uiso   1.00
H668   H     0.18688   0.00695   0.79366   0.00000  Uiso   1.00
H669   H     0.21056   0.91946   0.72626   0.00000  Uiso   1.00
H670   H     0.22846   0.08788   0.73277   0.00000  Uiso   1.00
H671   H     0.11310   0.01482   0.90039   0.00000  Uiso   1.00
H672   H     0.25028   0.82044   0.68551   0.00000  Uiso   1.00
H673   H     0.28802   0.17558   0.69924   0.00000  Uiso   1.00
H674   H     0.04477   0.02152   0.05271   0.00000  Uiso   1.00
H675   H     0.29065   0.99134   0.05553   0.00000  Uiso   1.00
H676   H     0.32002   0.90299   0.00251   0.00000  Uiso   1.00
H677   H     0.33792   0.07141   0.00901   0.00000  Uiso   1.00
H678   H     0.22256   0.99836   0.17663   0.00000  Uiso   1.00
H679   H     0.33912   0.80708   0.90971   0.00000  Uiso   1.00
H680   H     0.37687   0.16222   0.92344   0.00000  Uiso   1.00
H681   H     0.13361   0.00816   0.27691   0.00000  Uiso   1.00
O682   O     0.31216   0.75593   0.75799   0.00000  Uiso   1.00
O683   O     0.36167   0.22186   0.77601   0.00000  Uiso   1.00
O684   O     0.04252   0.01974   0.23975   0.00000  Uiso   1.00
N685   N     0.26715   0.82942   0.74556   0.00000  Uiso   1.00
N686   N     0.30245   0.16144   0.75839   0.00000  Uiso   1.00
N687   N     0.07502   0.01743   0.08885   0.00000  Uiso   1.00
N688   N     0.31496   0.82223   0.86621   0.00000  Uiso   1.00
N689   N     0.35025   0.15425   0.87903   0.00000  Uiso   1.00
N690   N     0.12283   0.01024   0.20950   0.00000  Uiso   1.00
C691   C     0.98284   0.29227   0.04733   0.00000  Uiso   1.00
C692   C     0.93733   0.26168   0.04322   0.00000  Uiso   1.00
C693   C     0.90100   0.26861   0.97903   0.00000  Uiso   1.00
C694   C     0.86232   0.23673   0.98694   0.00000  Uiso   1.00
C695   C     0.79200   0.19491   0.96994   0.00000  Uiso   1.00
C696   C     0.02288   0.25402   0.03981   0.00000  Uiso   1.00
C697   C     0.05848   0.25451   0.97275   0.00000  Uiso   1.00
C698   C     0.09183   0.21618   0.97781   0.00000  Uiso   1.00
C699   C     0.15434   0.16249   0.95555   0.00000  Uiso   1.00
C700   C     0.98552   0.31387   0.14682   0.00000  Uiso   1.00
C701   C     0.98972   0.36468   0.16974   0.00000  Uiso   1.00
C702   C     0.99163   0.37675   0.26490   0.00000  Uiso   1.00
C703   C     0.99614   0.41598   0.40879   0.00000  Uiso   1.00
C704   C     0.97876   0.22334   0.17555   0.00000  Uiso   1.00
C705   C     0.93511   0.22424   0.11287   0.00000  Uiso   1.00
C706   C     0.89648   0.19234   0.12089   0.00000  Uiso   1.00
C707   C     0.86010   0.19922   0.05672   0.00000  Uiso   1.00
C708   C     0.02066   0.21658   0.10945   0.00000  Uiso   1.00
C709   C     0.05396   0.17824   0.11461   0.00000  Uiso   1.00
C710   C     0.08961   0.17867   0.04757   0.00000  Uiso   1.00
C711   C     0.98330   0.27643   0.21647   0.00000  Uiso   1.00
C712   C     0.98520   0.28841   0.31160   0.00000  Uiso   1.00
C713   C     0.98941   0.33924   0.33466   0.00000  Uiso   1.00
H714   H     0.98457   0.32142   0.99311   0.00000  Uiso   1.00
H715   H     0.90273   0.29759   0.92514   0.00000  Uiso   1.00
H716   H     0.06019   0.28349   0.91887   0.00000  Uiso   1.00
H717   H     0.99144   0.39365   0.11583   0.00000  Uiso   1.00
H718   H     0.81102   0.25464   0.88047   0.00000  Uiso   1.00
H719   H     0.14305   0.22493   0.86727   0.00000  Uiso   1.00
H720   H     0.99807   0.45722   0.28260   0.00000  Uiso   1.00
H721   H     0.97703   0.19418   0.22977   0.00000  Uiso   1.00
H722   H     0.89477   0.16337   0.17479   0.00000  Uiso   1.00
H723   H     0.05224   0.14927   0.16852   0.00000  Uiso   1.00
H724   H     0.98349   0.25943   0.36548   0.00000  Uiso   1.00
H725   H     0.80457   0.14570   0.08309   0.00000  Uiso   1.00
H726   H     0.13660   0.11599   0.06990   0.00000  Uiso   1.00
H727   H     0.99162   0.34828   0.48522   0.00000  Uiso   1.00
O728   O     0.75383   0.18218   0.94132   0.00000  Uiso   1.00
O729   O     0.18944   0.14321   0.92402   0.00000  Uiso   1.00
O730   O     0.99923   0.44797   0.46892   0.00000  Uiso   1.00
N731   N     0.82079   0.23324   0.93571   0.00000  Uiso   1.00
N732   N     0.13121   0.20545   0.92337   0.00000  Uiso   1.00
N733   N     0.99568   0.42262   0.31166   0.00000  Uiso   1.00
N734   N     0.81732   0.17462   0.04474   0.00000  Uiso   1.00
N735   N     0.12774   0.14683   0.03240   0.00000  Uiso   1.00
N736   N     0.99221   0.36400   0.42069   0.00000  Uiso   1.00
