data_job_06898
_audit_creation_date              2018-12-19
_audit_creation_method            'Materials Studio'
_symmetry_space_group_name_H-M    'P1'
_symmetry_Int_Tables_number       1
_symmetry_cell_setting            triclinic
loop_
_symmetry_equiv_pos_as_xyz
  x,y,z
_cell_length_a                    22.6780
_cell_length_b                    22.6780
_cell_length_c                    57.9591
_cell_angle_alpha                 90.0000
_cell_angle_beta                  90.0000
_cell_angle_gamma                 120.0000
loop_
_atom_site_label
_atom_site_type_symbol
_atom_site_fract_x
_atom_site_fract_y
_atom_site_fract_z
_atom_site_U_iso_or_equiv
_atom_site_adp_type
_atom_site_occupancy
C1     C     0.47746   0.04537   0.43829   0.00000  Uiso   1.00
C2     C     0.53344   0.03300   0.44739   0.00000  Uiso   1.00
C3     C     0.85705   0.63969   0.12393   0.00000  Uiso   1.00
C4     C     0.91483   0.63857   0.13118   0.00000  Uiso   1.00
C5     C     0.99186   0.61072   0.14571   0.00000  Uiso   1.00
C6     C     0.48565   0.10778   0.45109   0.00000  Uiso   1.00
C7     C     0.43574   0.11069   0.46407   0.00000  Uiso   1.00
C8     C     0.45329   0.17253   0.47443   0.00000  Uiso   1.00
C9     C     0.45610   0.26081   0.49469   0.00000  Uiso   1.00
C10    C     0.49544   0.06705   0.41318   0.00000  Uiso   1.00
C11    C     0.45376   0.03573   0.39428   0.00000  Uiso   1.00
C12    C     0.47955   0.06329   0.37273   0.00000  Uiso   1.00
C13    C     0.49756   0.08832   0.33413   0.00000  Uiso   1.00
C14    C     0.59737   0.15003   0.43361   0.00000  Uiso   1.00
C15    C     0.59857   0.08985   0.44485   0.00000  Uiso   1.00
C16    C     0.65639   0.08882   0.45208   0.00000  Uiso   1.00
C17    C     0.64675   0.02885   0.46196   0.00000  Uiso   1.00
C18    C     0.55078   0.16463   0.44855   0.00000  Uiso   1.00
C19    C     0.56841   0.22648   0.45889   0.00000  Uiso   1.00
C20    C     0.51854   0.22948   0.47188   0.00000  Uiso   1.00
C21    C     0.56058   0.12390   0.41064   0.00000  Uiso   1.00
C22    C     0.58643   0.15152   0.38911   0.00000  Uiso   1.00
C23    C     0.54480   0.12024   0.37018   0.00000  Uiso   1.00
H24    H     0.42675   0.00111   0.44027   0.00000  Uiso   1.00
H25    H     0.80664   0.59571   0.12589   0.00000  Uiso   1.00
H26    H     0.38534   0.06669   0.46603   0.00000  Uiso   1.00
H27    H     0.40336   0.99174   0.39626   0.00000  Uiso   1.00
H28    H     0.88698   0.54088   0.14580   0.00000  Uiso   1.00
H29    H     0.36816   0.16446   0.49347   0.00000  Uiso   1.00
H30    H     0.40615   0.00640   0.34635   0.00000  Uiso   1.00
H31    H     0.64808   0.19429   0.43163   0.00000  Uiso   1.00
H32    H     0.70678   0.13282   0.45011   0.00000  Uiso   1.00
H33    H     0.61882   0.27047   0.45692   0.00000  Uiso   1.00
H34    H     0.63684   0.19551   0.38715   0.00000  Uiso   1.00
H35    H     0.74314   0.03961   0.47174   0.00000  Uiso   1.00
H36    H     0.55765   0.32986   0.48608   0.00000  Uiso   1.00
H37    H     0.59565   0.17179   0.33895   0.00000  Uiso   1.00
O38    O     0.01635   0.57966   0.15443   0.00000  Uiso   1.00
O39    O     0.43966   0.29379   0.50657   0.00000  Uiso   1.00
O40    O     0.48951   0.08642   0.31354   0.00000  Uiso   1.00
N41    N     0.92352   0.58824   0.14152   0.00000  Uiso   1.00
N42    N     0.41677   0.19293   0.48826   0.00000  Uiso   1.00
N43    N     0.45229   0.04517   0.35071   0.00000  Uiso   1.00
N44    N     0.02549   0.67723   0.13754   0.00000  Uiso   1.00
N45    N     0.51874   0.28193   0.48428   0.00000  Uiso   1.00
N46    N     0.55426   0.13417   0.34673   0.00000  Uiso   1.00
C47    C     0.14412   0.37870   0.77162   0.00000  Uiso   1.00
C48    C     0.20011   0.36633   0.78072   0.00000  Uiso   1.00
C49    C     0.52372   0.97302   0.45726   0.00000  Uiso   1.00
C50    C     0.58150   0.97190   0.46451   0.00000  Uiso   1.00
C51    C     0.65853   0.94405   0.47904   0.00000  Uiso   1.00
C52    C     0.15232   0.44112   0.78442   0.00000  Uiso   1.00
C53    C     0.10241   0.44402   0.79740   0.00000  Uiso   1.00
C54    C     0.11996   0.50587   0.80776   0.00000  Uiso   1.00
C55    C     0.12277   0.59414   0.82802   0.00000  Uiso   1.00
C56    C     0.16211   0.40039   0.74651   0.00000  Uiso   1.00
C57    C     0.12043   0.36906   0.72762   0.00000  Uiso   1.00
C58    C     0.14622   0.39662   0.70606   0.00000  Uiso   1.00
C59    C     0.16423   0.42165   0.66746   0.00000  Uiso   1.00
C60    C     0.26403   0.48336   0.76694   0.00000  Uiso   1.00
C61    C     0.26524   0.42318   0.77818   0.00000  Uiso   1.00
C62    C     0.32305   0.42215   0.78542   0.00000  Uiso   1.00
C63    C     0.31342   0.36218   0.79530   0.00000  Uiso   1.00
C64    C     0.21745   0.49796   0.78188   0.00000  Uiso   1.00
C65    C     0.23508   0.55982   0.79222   0.00000  Uiso   1.00
C66    C     0.18521   0.56282   0.80522   0.00000  Uiso   1.00
C67    C     0.22724   0.45723   0.74397   0.00000  Uiso   1.00
C68    C     0.25310   0.48485   0.72244   0.00000  Uiso   1.00
C69    C     0.21146   0.45357   0.70352   0.00000  Uiso   1.00
H70    H     0.09341   0.33445   0.77360   0.00000  Uiso   1.00
H71    H     0.47330   0.92904   0.45923   0.00000  Uiso   1.00
H72    H     0.05201   0.40003   0.79936   0.00000  Uiso   1.00
H73    H     0.07003   0.32507   0.72959   0.00000  Uiso   1.00
H74    H     0.55364   0.87421   0.47913   0.00000  Uiso   1.00
H75    H     0.03482   0.49780   0.82681   0.00000  Uiso   1.00
H76    H     0.07282   0.33974   0.67968   0.00000  Uiso   1.00
H77    H     0.31474   0.52762   0.76496   0.00000  Uiso   1.00
H78    H     0.37345   0.46615   0.78345   0.00000  Uiso   1.00
H79    H     0.28548   0.60380   0.79025   0.00000  Uiso   1.00
H80    H     0.30350   0.52884   0.72048   0.00000  Uiso   1.00
H81    H     0.40981   0.37294   0.80507   0.00000  Uiso   1.00
H82    H     0.22432   0.66319   0.81941   0.00000  Uiso   1.00
H83    H     0.26232   0.50513   0.67228   0.00000  Uiso   1.00
O84    O     0.68302   0.91299   0.48776   0.00000  Uiso   1.00
O85    O     0.10633   0.62712   0.83990   0.00000  Uiso   1.00
O86    O     0.15618   0.41975   0.64688   0.00000  Uiso   1.00
N87    N     0.59019   0.92157   0.47485   0.00000  Uiso   1.00
N88    N     0.08344   0.52627   0.82160   0.00000  Uiso   1.00
N89    N     0.11895   0.37850   0.68404   0.00000  Uiso   1.00
N90    N     0.69216   0.01057   0.47087   0.00000  Uiso   1.00
N91    N     0.18541   0.61526   0.81762   0.00000  Uiso   1.00
N92    N     0.22092   0.46750   0.68006   0.00000  Uiso   1.00
C93    C     0.81079   0.71204   0.10495   0.00000  Uiso   1.00
C94    C     0.86678   0.69966   0.11405   0.00000  Uiso   1.00
C95    C     0.19039   0.30636   0.79059   0.00000  Uiso   1.00
C96    C     0.24817   0.30524   0.79784   0.00000  Uiso   1.00
C97    C     0.32519   0.27739   0.81237   0.00000  Uiso   1.00
C98    C     0.81899   0.77445   0.11775   0.00000  Uiso   1.00
C99    C     0.76907   0.77736   0.13073   0.00000  Uiso   1.00
C100   C     0.78662   0.83920   0.14110   0.00000  Uiso   1.00
C101   C     0.78944   0.92747   0.16136   0.00000  Uiso   1.00
C102   C     0.82878   0.73372   0.07985   0.00000  Uiso   1.00
C103   C     0.78709   0.70239   0.06095   0.00000  Uiso   1.00
C104   C     0.81288   0.72995   0.03940   0.00000  Uiso   1.00
C105   C     0.83090   0.75498   0.00080   0.00000  Uiso   1.00
C106   C     0.93070   0.81670   0.10027   0.00000  Uiso   1.00
C107   C     0.93191   0.75651   0.11151   0.00000  Uiso   1.00
C108   C     0.98972   0.75548   0.11875   0.00000  Uiso   1.00
C109   C     0.98008   0.69552   0.12863   0.00000  Uiso   1.00
C110   C     0.88411   0.83130   0.11521   0.00000  Uiso   1.00
C111   C     0.90174   0.89315   0.12556   0.00000  Uiso   1.00
C112   C     0.85187   0.89615   0.13855   0.00000  Uiso   1.00
C113   C     0.89391   0.79057   0.07730   0.00000  Uiso   1.00
C114   C     0.91977   0.81818   0.05577   0.00000  Uiso   1.00
C115   C     0.87813   0.78690   0.03685   0.00000  Uiso   1.00
H116   H     0.76008   0.66778   0.10693   0.00000  Uiso   1.00
H117   H     0.13997   0.26238   0.79256   0.00000  Uiso   1.00
H118   H     0.71867   0.73336   0.13270   0.00000  Uiso   1.00
H119   H     0.73669   0.65840   0.06293   0.00000  Uiso   1.00
H120   H     0.22031   0.20755   0.81247   0.00000  Uiso   1.00
H121   H     0.70149   0.83113   0.16014   0.00000  Uiso   1.00
H122   H     0.73949   0.67307   0.01301   0.00000  Uiso   1.00
H123   H     0.98141   0.86096   0.09829   0.00000  Uiso   1.00
H124   H     0.04012   0.79948   0.11678   0.00000  Uiso   1.00
H125   H     0.95215   0.93713   0.12358   0.00000  Uiso   1.00
H126   H     0.97017   0.86218   0.05381   0.00000  Uiso   1.00
H127   H     0.07648   0.70627   0.13840   0.00000  Uiso   1.00
H128   H     0.89099   0.99652   0.15274   0.00000  Uiso   1.00
H129   H     0.92899   0.83846   0.00562   0.00000  Uiso   1.00
O130   O     0.34968   0.24633   0.82109   0.00000  Uiso   1.00
O131   O     0.77299   0.96046   0.17324   0.00000  Uiso   1.00
O132   O     0.82285   0.75308   0.98021   0.00000  Uiso   1.00
N133   N     0.25686   0.25490   0.80818   0.00000  Uiso   1.00
N134   N     0.75010   0.85960   0.15493   0.00000  Uiso   1.00
N135   N     0.78562   0.71184   0.01738   0.00000  Uiso   1.00
N136   N     0.35882   0.34390   0.80421   0.00000  Uiso   1.00
N137   N     0.85207   0.94860   0.15095   0.00000  Uiso   1.00
N138   N     0.88759   0.80083   0.01340   0.00000  Uiso   1.00
C139   C     0.95463   0.43209   0.43829   0.00000  Uiso   1.00
C140   C     0.96700   0.50045   0.44739   0.00000  Uiso   1.00
C141   C     0.36031   0.21736   0.12393   0.00000  Uiso   1.00
C142   C     0.36143   0.27626   0.13118   0.00000  Uiso   1.00
C143   C     0.38928   0.38114   0.14571   0.00000  Uiso   1.00
C144   C     0.89222   0.37787   0.45109   0.00000  Uiso   1.00
C145   C     0.88931   0.32505   0.46407   0.00000  Uiso   1.00
C146   C     0.82747   0.28076   0.47443   0.00000  Uiso   1.00
C147   C     0.73919   0.19529   0.49469   0.00000  Uiso   1.00
C148   C     0.93295   0.42839   0.41318   0.00000  Uiso   1.00
C149   C     0.96427   0.41803   0.39428   0.00000  Uiso   1.00
C150   C     0.93671   0.41626   0.37273   0.00000  Uiso   1.00
C151   C     0.91168   0.40925   0.33413   0.00000  Uiso   1.00
C152   C     0.84997   0.44734   0.43361   0.00000  Uiso   1.00
C153   C     0.91015   0.50873   0.44485   0.00000  Uiso   1.00
C154   C     0.91118   0.56757   0.45208   0.00000  Uiso   1.00
C155   C     0.97115   0.61790   0.46196   0.00000  Uiso   1.00
C156   C     0.83537   0.38615   0.44855   0.00000  Uiso   1.00
C157   C     0.77352   0.34192   0.45889   0.00000  Uiso   1.00
C158   C     0.77052   0.28906   0.47188   0.00000  Uiso   1.00
C159   C     0.87610   0.43668   0.41064   0.00000  Uiso   1.00
C160   C     0.84848   0.43491   0.38911   0.00000  Uiso   1.00
C161   C     0.87976   0.42456   0.37018   0.00000  Uiso   1.00
H162   H     0.99889   0.42563   0.44027   0.00000  Uiso   1.00
H163   H     0.40429   0.21093   0.12589   0.00000  Uiso   1.00
H164   H     0.93331   0.31865   0.46603   0.00000  Uiso   1.00
H165   H     0.00826   0.41162   0.39626   0.00000  Uiso   1.00
H166   H     0.45912   0.34610   0.14580   0.00000  Uiso   1.00
H167   H     0.83554   0.20369   0.49347   0.00000  Uiso   1.00
H168   H     0.99360   0.39975   0.34635   0.00000  Uiso   1.00
H169   H     0.80571   0.45379   0.43163   0.00000  Uiso   1.00
H170   H     0.86718   0.57397   0.45011   0.00000  Uiso   1.00
H171   H     0.72953   0.34835   0.45692   0.00000  Uiso   1.00
H172   H     0.80449   0.44133   0.38715   0.00000  Uiso   1.00
H173   H     0.96039   0.70354   0.47174   0.00000  Uiso   1.00
H174   H     0.67014   0.22780   0.48608   0.00000  Uiso   1.00
H175   H     0.82821   0.42386   0.33895   0.00000  Uiso   1.00
O176   O     0.42034   0.43669   0.15443   0.00000  Uiso   1.00
O177   O     0.70621   0.14587   0.50657   0.00000  Uiso   1.00
O178   O     0.91358   0.40310   0.31354   0.00000  Uiso   1.00
N179   N     0.41176   0.33528   0.14152   0.00000  Uiso   1.00
N180   N     0.80707   0.22384   0.48826   0.00000  Uiso   1.00
N181   N     0.95483   0.40712   0.35071   0.00000  Uiso   1.00
N182   N     0.32277   0.34826   0.13754   0.00000  Uiso   1.00
N183   N     0.71807   0.23681   0.48428   0.00000  Uiso   1.00
N184   N     0.86583   0.42009   0.34673   0.00000  Uiso   1.00
C185   C     0.62130   0.76542   0.77162   0.00000  Uiso   1.00
C186   C     0.63367   0.83378   0.78072   0.00000  Uiso   1.00
C187   C     0.02698   0.55070   0.45726   0.00000  Uiso   1.00
C188   C     0.02810   0.60960   0.46451   0.00000  Uiso   1.00
C189   C     0.05595   0.71447   0.47904   0.00000  Uiso   1.00
C190   C     0.55888   0.71120   0.78442   0.00000  Uiso   1.00
C191   C     0.55598   0.65838   0.79740   0.00000  Uiso   1.00
C192   C     0.49413   0.61409   0.80776   0.00000  Uiso   1.00
C193   C     0.40586   0.52863   0.82802   0.00000  Uiso   1.00
C194   C     0.59961   0.76172   0.74651   0.00000  Uiso   1.00
C195   C     0.63094   0.75137   0.72762   0.00000  Uiso   1.00
C196   C     0.60338   0.74960   0.70606   0.00000  Uiso   1.00
C197   C     0.57835   0.74258   0.66746   0.00000  Uiso   1.00
C198   C     0.51664   0.78067   0.76694   0.00000  Uiso   1.00
C199   C     0.57682   0.84206   0.77818   0.00000  Uiso   1.00
C200   C     0.57785   0.90091   0.78542   0.00000  Uiso   1.00
C201   C     0.63782   0.95123   0.79530   0.00000  Uiso   1.00
C202   C     0.50204   0.71948   0.78188   0.00000  Uiso   1.00
C203   C     0.44018   0.67526   0.79222   0.00000  Uiso   1.00
C204   C     0.43718   0.62239   0.80522   0.00000  Uiso   1.00
C205   C     0.54277   0.77001   0.74397   0.00000  Uiso   1.00
C206   C     0.51515   0.76825   0.72244   0.00000  Uiso   1.00
C207   C     0.54643   0.75789   0.70352   0.00000  Uiso   1.00
H208   H     0.66555   0.75897   0.77360   0.00000  Uiso   1.00
H209   H     0.07096   0.54426   0.45923   0.00000  Uiso   1.00
H210   H     0.59997   0.65198   0.79936   0.00000  Uiso   1.00
H211   H     0.67493   0.74496   0.72959   0.00000  Uiso   1.00
H212   H     0.12579   0.67943   0.47913   0.00000  Uiso   1.00
H213   H     0.50220   0.53703   0.82681   0.00000  Uiso   1.00
H214   H     0.66026   0.73308   0.67968   0.00000  Uiso   1.00
H215   H     0.47238   0.78712   0.76496   0.00000  Uiso   1.00
H216   H     0.53385   0.90730   0.78345   0.00000  Uiso   1.00
H217   H     0.39620   0.68168   0.79025   0.00000  Uiso   1.00
H218   H     0.47116   0.77466   0.72048   0.00000  Uiso   1.00
H219   H     0.62706   0.03687   0.80507   0.00000  Uiso   1.00
H220   H     0.33681   0.56113   0.81941   0.00000  Uiso   1.00
H221   H     0.49487   0.75719   0.67228   0.00000  Uiso   1.00
O222   O     0.08701   0.77003   0.48776   0.00000  Uiso   1.00
O223   O     0.37288   0.47920   0.83990   0.00000  Uiso   1.00
O224   O     0.58025   0.73643   0.64688   0.00000  Uiso   1.00
N225   N     0.07843   0.66862   0.47485   0.00000  Uiso   1.00
N226   N     0.47373   0.55717   0.82160   0.00000  Uiso   1.00
N227   N     0.62150   0.74045   0.68404   0.00000  Uiso   1.00
N228   N     0.98943   0.68159   0.47087   0.00000  Uiso   1.00
N229   N     0.38474   0.57014   0.81762   0.00000  Uiso   1.00
N230   N     0.53250   0.75342   0.68006   0.00000  Uiso   1.00
C231   C     0.28796   0.09875   0.10495   0.00000  Uiso   1.00
C232   C     0.30034   0.16711   0.11405   0.00000  Uiso   1.00
C233   C     0.69364   0.88403   0.79059   0.00000  Uiso   1.00
C234   C     0.69476   0.94293   0.79784   0.00000  Uiso   1.00
C235   C     0.72261   0.04780   0.81237   0.00000  Uiso   1.00
C236   C     0.22555   0.04453   0.11775   0.00000  Uiso   1.00
C237   C     0.22264   0.99171   0.13073   0.00000  Uiso   1.00
C238   C     0.16080   0.94742   0.14110   0.00000  Uiso   1.00
C239   C     0.07253   0.86196   0.16136   0.00000  Uiso   1.00
C240   C     0.26628   0.09506   0.07985   0.00000  Uiso   1.00
C241   C     0.29761   0.08470   0.06095   0.00000  Uiso   1.00
C242   C     0.27005   0.08293   0.03940   0.00000  Uiso   1.00
C243   C     0.24502   0.07591   0.00080   0.00000  Uiso   1.00
C244   C     0.18330   0.11400   0.10027   0.00000  Uiso   1.00
C245   C     0.24349   0.17540   0.11151   0.00000  Uiso   1.00
C246   C     0.24452   0.23424   0.11875   0.00000  Uiso   1.00
C247   C     0.30448   0.28457   0.12863   0.00000  Uiso   1.00
C248   C     0.16870   0.05282   0.11521   0.00000  Uiso   1.00
C249   C     0.10685   0.00859   0.12556   0.00000  Uiso   1.00
C250   C     0.10385   0.95572   0.13855   0.00000  Uiso   1.00
C251   C     0.20943   0.10334   0.07730   0.00000  Uiso   1.00
C252   C     0.18182   0.10158   0.05577   0.00000  Uiso   1.00
C253   C     0.21310   0.09123   0.03685   0.00000  Uiso   1.00
H254   H     0.33222   0.09230   0.10693   0.00000  Uiso   1.00
H255   H     0.73762   0.87760   0.79256   0.00000  Uiso   1.00
H256   H     0.26664   0.98531   0.13270   0.00000  Uiso   1.00
H257   H     0.34160   0.07829   0.06293   0.00000  Uiso   1.00
H258   H     0.79245   0.01276   0.81247   0.00000  Uiso   1.00
H259   H     0.16887   0.87036   0.16014   0.00000  Uiso   1.00
H260   H     0.32693   0.06642   0.01301   0.00000  Uiso   1.00
H261   H     0.13904   0.12045   0.09829   0.00000  Uiso   1.00
H262   H     0.20052   0.24063   0.11678   0.00000  Uiso   1.00
H263   H     0.06287   0.01502   0.12358   0.00000  Uiso   1.00
H264   H     0.13782   0.10799   0.05381   0.00000  Uiso   1.00
H265   H     0.29373   0.37021   0.13840   0.00000  Uiso   1.00
H266   H     0.00348   0.89446   0.15274   0.00000  Uiso   1.00
H267   H     0.16154   0.09053   0.00562   0.00000  Uiso   1.00
O268   O     0.75367   0.10336   0.82109   0.00000  Uiso   1.00
O269   O     0.03954   0.81254   0.17324   0.00000  Uiso   1.00
O270   O     0.24692   0.06976   0.98021   0.00000  Uiso   1.00
N271   N     0.74510   0.00195   0.80818   0.00000  Uiso   1.00
N272   N     0.14040   0.89050   0.15493   0.00000  Uiso   1.00
N273   N     0.28816   0.07378   0.01738   0.00000  Uiso   1.00
N274   N     0.65610   0.01492   0.80421   0.00000  Uiso   1.00
N275   N     0.05140   0.90348   0.15095   0.00000  Uiso   1.00
N276   N     0.19917   0.08676   0.01340   0.00000  Uiso   1.00
C277   C     0.56791   0.52254   0.43829   0.00000  Uiso   1.00
C278   C     0.49955   0.46656   0.44739   0.00000  Uiso   1.00
C279   C     0.78264   0.14295   0.12393   0.00000  Uiso   1.00
C280   C     0.72374   0.08517   0.13118   0.00000  Uiso   1.00
C281   C     0.61886   0.00814   0.14571   0.00000  Uiso   1.00
C282   C     0.62213   0.51435   0.45109   0.00000  Uiso   1.00
C283   C     0.67495   0.56426   0.46407   0.00000  Uiso   1.00
C284   C     0.71924   0.54671   0.47443   0.00000  Uiso   1.00
C285   C     0.80471   0.54390   0.49469   0.00000  Uiso   1.00
C286   C     0.57161   0.50456   0.41318   0.00000  Uiso   1.00
C287   C     0.58197   0.54624   0.39428   0.00000  Uiso   1.00
C288   C     0.58374   0.52045   0.37273   0.00000  Uiso   1.00
C289   C     0.59075   0.50244   0.33413   0.00000  Uiso   1.00
C290   C     0.55266   0.40263   0.43361   0.00000  Uiso   1.00
C291   C     0.49127   0.40143   0.44485   0.00000  Uiso   1.00
C292   C     0.43243   0.34361   0.45208   0.00000  Uiso   1.00
C293   C     0.38210   0.35325   0.46196   0.00000  Uiso   1.00
C294   C     0.61385   0.44922   0.44855   0.00000  Uiso   1.00
C295   C     0.65808   0.43159   0.45889   0.00000  Uiso   1.00
C296   C     0.71094   0.48146   0.47188   0.00000  Uiso   1.00
C297   C     0.56332   0.43942   0.41064   0.00000  Uiso   1.00
C298   C     0.56509   0.41357   0.38911   0.00000  Uiso   1.00
C299   C     0.57544   0.45520   0.37018   0.00000  Uiso   1.00
H300   H     0.57437   0.57325   0.44027   0.00000  Uiso   1.00
H301   H     0.78907   0.19336   0.12589   0.00000  Uiso   1.00
H302   H     0.68135   0.61466   0.46603   0.00000  Uiso   1.00
H303   H     0.58838   0.59664   0.39626   0.00000  Uiso   1.00
H304   H     0.65390   0.11302   0.14580   0.00000  Uiso   1.00
H305   H     0.79631   0.63184   0.49347   0.00000  Uiso   1.00
H306   H     0.60025   0.59385   0.34635   0.00000  Uiso   1.00
H307   H     0.54621   0.35192   0.43163   0.00000  Uiso   1.00
H308   H     0.42603   0.29322   0.45011   0.00000  Uiso   1.00
H309   H     0.65165   0.38118   0.45692   0.00000  Uiso   1.00
H310   H     0.55867   0.36316   0.38715   0.00000  Uiso   1.00
H311   H     0.29646   0.25686   0.47174   0.00000  Uiso   1.00
H312   H     0.77220   0.44235   0.48608   0.00000  Uiso   1.00
H313   H     0.57614   0.40435   0.33895   0.00000  Uiso   1.00
O314   O     0.56331   0.98365   0.15443   0.00000  Uiso   1.00
O315   O     0.85413   0.56034   0.50657   0.00000  Uiso   1.00
O316   O     0.59690   0.51049   0.31354   0.00000  Uiso   1.00
N317   N     0.66472   0.07648   0.14152   0.00000  Uiso   1.00
N318   N     0.77616   0.58323   0.48826   0.00000  Uiso   1.00
N319   N     0.59288   0.54771   0.35071   0.00000  Uiso   1.00
N320   N     0.65174   0.97451   0.13754   0.00000  Uiso   1.00
N321   N     0.76319   0.48126   0.48428   0.00000  Uiso   1.00
N322   N     0.57991   0.44574   0.34673   0.00000  Uiso   1.00
C323   C     0.23458   0.85588   0.77162   0.00000  Uiso   1.00
C324   C     0.16622   0.79989   0.78072   0.00000  Uiso   1.00
C325   C     0.44930   0.47628   0.45726   0.00000  Uiso   1.00
C326   C     0.39040   0.41850   0.46451   0.00000  Uiso   1.00
C327   C     0.28553   0.34147   0.47904   0.00000  Uiso   1.00
C328   C     0.28880   0.84768   0.78442   0.00000  Uiso   1.00
C329   C     0.34162   0.89759   0.79740   0.00000  Uiso   1.00
C330   C     0.38591   0.88004   0.80776   0.00000  Uiso   1.00
C331   C     0.47137   0.87723   0.82802   0.00000  Uiso   1.00
C332   C     0.23828   0.83789   0.74651   0.00000  Uiso   1.00
C333   C     0.24863   0.87957   0.72762   0.00000  Uiso   1.00
C334   C     0.25040   0.85378   0.70606   0.00000  Uiso   1.00
C335   C     0.25742   0.83577   0.66746   0.00000  Uiso   1.00
C336   C     0.21933   0.73597   0.76694   0.00000  Uiso   1.00
C337   C     0.15794   0.73476   0.77818   0.00000  Uiso   1.00
C338   C     0.09909   0.67695   0.78542   0.00000  Uiso   1.00
C339   C     0.04877   0.68658   0.79530   0.00000  Uiso   1.00
C340   C     0.28052   0.78255   0.78188   0.00000  Uiso   1.00
C341   C     0.32474   0.76492   0.79222   0.00000  Uiso   1.00
C342   C     0.37761   0.81479   0.80522   0.00000  Uiso   1.00
C343   C     0.22999   0.77276   0.74397   0.00000  Uiso   1.00
C344   C     0.23175   0.74690   0.72244   0.00000  Uiso   1.00
C345   C     0.24211   0.78854   0.70352   0.00000  Uiso   1.00
H346   H     0.24103   0.90659   0.77360   0.00000  Uiso   1.00
H347   H     0.45574   0.52670   0.45923   0.00000  Uiso   1.00
H348   H     0.34802   0.94799   0.79936   0.00000  Uiso   1.00
H349   H     0.25504   0.92997   0.72959   0.00000  Uiso   1.00
H350   H     0.32057   0.44636   0.47913   0.00000  Uiso   1.00
H351   H     0.46297   0.96518   0.82681   0.00000  Uiso   1.00
H352   H     0.26692   0.92718   0.67968   0.00000  Uiso   1.00
H353   H     0.21288   0.68526   0.76496   0.00000  Uiso   1.00
H354   H     0.09270   0.62655   0.78345   0.00000  Uiso   1.00
H355   H     0.31832   0.71452   0.79025   0.00000  Uiso   1.00
H356   H     0.22534   0.69650   0.72048   0.00000  Uiso   1.00
H357   H     0.96313   0.59019   0.80507   0.00000  Uiso   1.00
H358   H     0.43887   0.77568   0.81941   0.00000  Uiso   1.00
H359   H     0.24281   0.73768   0.67228   0.00000  Uiso   1.00
O360   O     0.22997   0.31698   0.48776   0.00000  Uiso   1.00
O361   O     0.52080   0.89367   0.83990   0.00000  Uiso   1.00
O362   O     0.26357   0.84382   0.64688   0.00000  Uiso   1.00
N363   N     0.33138   0.40981   0.47485   0.00000  Uiso   1.00
N364   N     0.44283   0.91656   0.82160   0.00000  Uiso   1.00
N365   N     0.25955   0.88105   0.68404   0.00000  Uiso   1.00
N366   N     0.31841   0.30784   0.47087   0.00000  Uiso   1.00
N367   N     0.42986   0.81459   0.81762   0.00000  Uiso   1.00
N368   N     0.24658   0.77908   0.68006   0.00000  Uiso   1.00
C369   C     0.90125   0.18921   0.10495   0.00000  Uiso   1.00
C370   C     0.83289   0.13322   0.11405   0.00000  Uiso   1.00
C371   C     0.11597   0.80961   0.79059   0.00000  Uiso   1.00
C372   C     0.05707   0.75183   0.79784   0.00000  Uiso   1.00
C373   C     0.95220   0.67481   0.81237   0.00000  Uiso   1.00
C374   C     0.95547   0.18101   0.11775   0.00000  Uiso   1.00
C375   C     0.00829   0.23093   0.13073   0.00000  Uiso   1.00
C376   C     0.05258   0.21338   0.14110   0.00000  Uiso   1.00
C377   C     0.13804   0.21056   0.16136   0.00000  Uiso   1.00
C378   C     0.90494   0.17122   0.07985   0.00000  Uiso   1.00
C379   C     0.91530   0.21291   0.06095   0.00000  Uiso   1.00
C380   C     0.91707   0.18712   0.03940   0.00000  Uiso   1.00
C381   C     0.92409   0.16910   0.00080   0.00000  Uiso   1.00
C382   C     0.88600   0.06930   0.10027   0.00000  Uiso   1.00
C383   C     0.82460   0.06809   0.11151   0.00000  Uiso   1.00
C384   C     0.76576   0.01028   0.11875   0.00000  Uiso   1.00
C385   C     0.71543   0.01992   0.12863   0.00000  Uiso   1.00
C386   C     0.94718   0.11589   0.11521   0.00000  Uiso   1.00
C387   C     0.99141   0.09826   0.12556   0.00000  Uiso   1.00
C388   C     0.04428   0.14813   0.13855   0.00000  Uiso   1.00
C389   C     0.89666   0.10609   0.07730   0.00000  Uiso   1.00
C390   C     0.89842   0.08023   0.05577   0.00000  Uiso   1.00
C391   C     0.90877   0.12187   0.03685   0.00000  Uiso   1.00
H392   H     0.90770   0.23992   0.10693   0.00000  Uiso   1.00
H393   H     0.12240   0.86003   0.79256   0.00000  Uiso   1.00
H394   H     0.01469   0.28133   0.13270   0.00000  Uiso   1.00
H395   H     0.92171   0.26331   0.06293   0.00000  Uiso   1.00
H396   H     0.98724   0.77969   0.81247   0.00000  Uiso   1.00
H397   H     0.12964   0.29851   0.16014   0.00000  Uiso   1.00
H398   H     0.93358   0.26051   0.01301   0.00000  Uiso   1.00
H399   H     0.87955   0.01859   0.09829   0.00000  Uiso   1.00
H400   H     0.75937   0.95988   0.11678   0.00000  Uiso   1.00
H401   H     0.98498   0.04785   0.12358   0.00000  Uiso   1.00
H402   H     0.89201   0.02983   0.05381   0.00000  Uiso   1.00
H403   H     0.62979   0.92352   0.13840   0.00000  Uiso   1.00
H404   H     0.10554   0.10901   0.15274   0.00000  Uiso   1.00
H405   H     0.90947   0.07101   0.00562   0.00000  Uiso   1.00
O406   O     0.89664   0.65032   0.82109   0.00000  Uiso   1.00
O407   O     0.18746   0.22701   0.17324   0.00000  Uiso   1.00
O408   O     0.93024   0.17715   0.98021   0.00000  Uiso   1.00
N409   N     0.99805   0.74314   0.80818   0.00000  Uiso   1.00
N410   N     0.10950   0.24990   0.15493   0.00000  Uiso   1.00
N411   N     0.92622   0.21438   0.01738   0.00000  Uiso   1.00
N412   N     0.98508   0.64118   0.80421   0.00000  Uiso   1.00
N413   N     0.09652   0.14793   0.15095   0.00000  Uiso   1.00
N414   N     0.91324   0.11241   0.01340   0.00000  Uiso   1.00
C415   C     0.04537   0.47746   0.06171   0.00000  Uiso   1.00
C416   C     0.03300   0.53344   0.05261   0.00000  Uiso   1.00
C417   C     0.63969   0.85705   0.37607   0.00000  Uiso   1.00
C418   C     0.63857   0.91483   0.36882   0.00000  Uiso   1.00
C419   C     0.61072   0.99186   0.35429   0.00000  Uiso   1.00
C420   C     0.10778   0.48565   0.04891   0.00000  Uiso   1.00
C421   C     0.11069   0.43574   0.03593   0.00000  Uiso   1.00
C422   C     0.17253   0.45329   0.02557   0.00000  Uiso   1.00
C423   C     0.26081   0.45610   0.00531   0.00000  Uiso   1.00
C424   C     0.06705   0.49544   0.08682   0.00000  Uiso   1.00
C425   C     0.03573   0.45376   0.10572   0.00000  Uiso   1.00
C426   C     0.06329   0.47955   0.12727   0.00000  Uiso   1.00
C427   C     0.08832   0.49756   0.16587   0.00000  Uiso   1.00
C428   C     0.15003   0.59737   0.06639   0.00000  Uiso   1.00
C429   C     0.08985   0.59857   0.05515   0.00000  Uiso   1.00
C430   C     0.08882   0.65639   0.04792   0.00000  Uiso   1.00
C431   C     0.02885   0.64675   0.03804   0.00000  Uiso   1.00
C432   C     0.16463   0.55078   0.05145   0.00000  Uiso   1.00
C433   C     0.22648   0.56841   0.04111   0.00000  Uiso   1.00
C434   C     0.22948   0.51854   0.02812   0.00000  Uiso   1.00
C435   C     0.12390   0.56058   0.08936   0.00000  Uiso   1.00
C436   C     0.15152   0.58643   0.11089   0.00000  Uiso   1.00
C437   C     0.12024   0.54480   0.12982   0.00000  Uiso   1.00
H438   H     0.00111   0.42675   0.05973   0.00000  Uiso   1.00
H439   H     0.59571   0.80664   0.37411   0.00000  Uiso   1.00
H440   H     0.06669   0.38534   0.03397   0.00000  Uiso   1.00
H441   H     0.99174   0.40336   0.10374   0.00000  Uiso   1.00
H442   H     0.54088   0.88698   0.35420   0.00000  Uiso   1.00
H443   H     0.16446   0.36816   0.00653   0.00000  Uiso   1.00
H444   H     0.00640   0.40615   0.15365   0.00000  Uiso   1.00
H445   H     0.19429   0.64808   0.06837   0.00000  Uiso   1.00
H446   H     0.13282   0.70678   0.04989   0.00000  Uiso   1.00
H447   H     0.27047   0.61882   0.04308   0.00000  Uiso   1.00
H448   H     0.19551   0.63684   0.11285   0.00000  Uiso   1.00
H449   H     0.03961   0.74314   0.02826   0.00000  Uiso   1.00
H450   H     0.32986   0.55765   0.01392   0.00000  Uiso   1.00
H451   H     0.17179   0.59565   0.16105   0.00000  Uiso   1.00
O452   O     0.57966   0.01635   0.34557   0.00000  Uiso   1.00
O453   O     0.29379   0.43966   0.99343   0.00000  Uiso   1.00
O454   O     0.08642   0.48951   0.18646   0.00000  Uiso   1.00
N455   N     0.58824   0.92352   0.35848   0.00000  Uiso   1.00
N456   N     0.19293   0.41677   0.01174   0.00000  Uiso   1.00
N457   N     0.04517   0.45229   0.14929   0.00000  Uiso   1.00
N458   N     0.67723   0.02549   0.36246   0.00000  Uiso   1.00
N459   N     0.28193   0.51874   0.01572   0.00000  Uiso   1.00
N460   N     0.13417   0.55426   0.15327   0.00000  Uiso   1.00
C461   C     0.71204   0.81079   0.39505   0.00000  Uiso   1.00
C462   C     0.69966   0.86678   0.38595   0.00000  Uiso   1.00
C463   C     0.30636   0.19039   0.70941   0.00000  Uiso   1.00
C464   C     0.30524   0.24817   0.70216   0.00000  Uiso   1.00
C465   C     0.27739   0.32519   0.68763   0.00000  Uiso   1.00
C466   C     0.77445   0.81899   0.38225   0.00000  Uiso   1.00
C467   C     0.77736   0.76907   0.36927   0.00000  Uiso   1.00
C468   C     0.83920   0.78662   0.35890   0.00000  Uiso   1.00
C469   C     0.92747   0.78944   0.33864   0.00000  Uiso   1.00
C470   C     0.73372   0.82878   0.42015   0.00000  Uiso   1.00
C471   C     0.70239   0.78709   0.43905   0.00000  Uiso   1.00
C472   C     0.72995   0.81288   0.46060   0.00000  Uiso   1.00
C473   C     0.75498   0.83090   0.49920   0.00000  Uiso   1.00
C474   C     0.81670   0.93070   0.39973   0.00000  Uiso   1.00
C475   C     0.75651   0.93191   0.38849   0.00000  Uiso   1.00
C476   C     0.75548   0.98972   0.38125   0.00000  Uiso   1.00
C477   C     0.69552   0.98008   0.37137   0.00000  Uiso   1.00
C478   C     0.83130   0.88411   0.38479   0.00000  Uiso   1.00
C479   C     0.89315   0.90174   0.37444   0.00000  Uiso   1.00
C480   C     0.89615   0.85187   0.36145   0.00000  Uiso   1.00
C481   C     0.79057   0.89391   0.42270   0.00000  Uiso   1.00
C482   C     0.81818   0.91977   0.44423   0.00000  Uiso   1.00
C483   C     0.78690   0.87813   0.46315   0.00000  Uiso   1.00
H484   H     0.66778   0.76008   0.39307   0.00000  Uiso   1.00
H485   H     0.26238   0.13997   0.70744   0.00000  Uiso   1.00
H486   H     0.73336   0.71867   0.36730   0.00000  Uiso   1.00
H487   H     0.65840   0.73669   0.43707   0.00000  Uiso   1.00
H488   H     0.20755   0.22031   0.68753   0.00000  Uiso   1.00
H489   H     0.83113   0.70149   0.33986   0.00000  Uiso   1.00
H490   H     0.67307   0.73949   0.48699   0.00000  Uiso   1.00
H491   H     0.86096   0.98141   0.40171   0.00000  Uiso   1.00
H492   H     0.79948   0.04012   0.38322   0.00000  Uiso   1.00
H493   H     0.93713   0.95215   0.37642   0.00000  Uiso   1.00
H494   H     0.86218   0.97017   0.44619   0.00000  Uiso   1.00
H495   H     0.70627   0.07648   0.36160   0.00000  Uiso   1.00
H496   H     0.99652   0.89099   0.34726   0.00000  Uiso   1.00
H497   H     0.83846   0.92899   0.49438   0.00000  Uiso   1.00
O498   O     0.24633   0.34968   0.67891   0.00000  Uiso   1.00
O499   O     0.96046   0.77299   0.32676   0.00000  Uiso   1.00
O500   O     0.75308   0.82285   0.51979   0.00000  Uiso   1.00
N501   N     0.25490   0.25686   0.69182   0.00000  Uiso   1.00
N502   N     0.85960   0.75010   0.34507   0.00000  Uiso   1.00
N503   N     0.71184   0.78562   0.48262   0.00000  Uiso   1.00
N504   N     0.34390   0.35882   0.69579   0.00000  Uiso   1.00
N505   N     0.94860   0.85207   0.34905   0.00000  Uiso   1.00
N506   N     0.80083   0.88759   0.48660   0.00000  Uiso   1.00
C507   C     0.37870   0.14412   0.72838   0.00000  Uiso   1.00
C508   C     0.36633   0.20011   0.71928   0.00000  Uiso   1.00
C509   C     0.97302   0.52372   0.04274   0.00000  Uiso   1.00
C510   C     0.97190   0.58150   0.03549   0.00000  Uiso   1.00
C511   C     0.94405   0.65853   0.02096   0.00000  Uiso   1.00
C512   C     0.44112   0.15232   0.71558   0.00000  Uiso   1.00
C513   C     0.44402   0.10241   0.70260   0.00000  Uiso   1.00
C514   C     0.50587   0.11996   0.69224   0.00000  Uiso   1.00
C515   C     0.59414   0.12277   0.67198   0.00000  Uiso   1.00
C516   C     0.40039   0.16211   0.75349   0.00000  Uiso   1.00
C517   C     0.36906   0.12043   0.77238   0.00000  Uiso   1.00
C518   C     0.39662   0.14622   0.79394   0.00000  Uiso   1.00
C519   C     0.42165   0.16423   0.83254   0.00000  Uiso   1.00
C520   C     0.48336   0.26403   0.73306   0.00000  Uiso   1.00
C521   C     0.42318   0.26524   0.72182   0.00000  Uiso   1.00
C522   C     0.42215   0.32305   0.71458   0.00000  Uiso   1.00
C523   C     0.36218   0.31342   0.70470   0.00000  Uiso   1.00
C524   C     0.49796   0.21745   0.71812   0.00000  Uiso   1.00
C525   C     0.55982   0.23508   0.70778   0.00000  Uiso   1.00
C526   C     0.56282   0.18521   0.69478   0.00000  Uiso   1.00
C527   C     0.45723   0.22724   0.75603   0.00000  Uiso   1.00
C528   C     0.48485   0.25310   0.77756   0.00000  Uiso   1.00
C529   C     0.45357   0.21146   0.79648   0.00000  Uiso   1.00
H530   H     0.33445   0.09341   0.72640   0.00000  Uiso   1.00
H531   H     0.92904   0.47330   0.04077   0.00000  Uiso   1.00
H532   H     0.40003   0.05201   0.70064   0.00000  Uiso   1.00
H533   H     0.32507   0.07003   0.77041   0.00000  Uiso   1.00
H534   H     0.87421   0.55364   0.02087   0.00000  Uiso   1.00
H535   H     0.49780   0.03482   0.67319   0.00000  Uiso   1.00
H536   H     0.33974   0.07282   0.82032   0.00000  Uiso   1.00
H537   H     0.52762   0.31474   0.73504   0.00000  Uiso   1.00
H538   H     0.46615   0.37345   0.71655   0.00000  Uiso   1.00
H539   H     0.60380   0.28548   0.70975   0.00000  Uiso   1.00
H540   H     0.52884   0.30350   0.77952   0.00000  Uiso   1.00
H541   H     0.37294   0.40981   0.69493   0.00000  Uiso   1.00
H542   H     0.66319   0.22432   0.68059   0.00000  Uiso   1.00
H543   H     0.50513   0.26232   0.82772   0.00000  Uiso   1.00
O544   O     0.91299   0.68302   0.01224   0.00000  Uiso   1.00
O545   O     0.62712   0.10633   0.66010   0.00000  Uiso   1.00
O546   O     0.41975   0.15618   0.85312   0.00000  Uiso   1.00
N547   N     0.92157   0.59019   0.02515   0.00000  Uiso   1.00
N548   N     0.52627   0.08344   0.67840   0.00000  Uiso   1.00
N549   N     0.37850   0.11895   0.81596   0.00000  Uiso   1.00
N550   N     0.01057   0.69216   0.02913   0.00000  Uiso   1.00
N551   N     0.61526   0.18541   0.68238   0.00000  Uiso   1.00
N552   N     0.46750   0.22092   0.81994   0.00000  Uiso   1.00
C553   C     0.43209   0.95463   0.06171   0.00000  Uiso   1.00
C554   C     0.50045   0.96700   0.05261   0.00000  Uiso   1.00
C555   C     0.21736   0.36031   0.37607   0.00000  Uiso   1.00
C556   C     0.27626   0.36143   0.36882   0.00000  Uiso   1.00
C557   C     0.38114   0.38928   0.35429   0.00000  Uiso   1.00
C558   C     0.37787   0.89222   0.04891   0.00000  Uiso   1.00
C559   C     0.32505   0.88931   0.03593   0.00000  Uiso   1.00
C560   C     0.28076   0.82747   0.02557   0.00000  Uiso   1.00
C561   C     0.19529   0.73919   0.00531   0.00000  Uiso   1.00
C562   C     0.42839   0.93295   0.08682   0.00000  Uiso   1.00
C563   C     0.41803   0.96427   0.10572   0.00000  Uiso   1.00
C564   C     0.41626   0.93671   0.12727   0.00000  Uiso   1.00
C565   C     0.40925   0.91168   0.16587   0.00000  Uiso   1.00
C566   C     0.44734   0.84997   0.06639   0.00000  Uiso   1.00
C567   C     0.50873   0.91015   0.05515   0.00000  Uiso   1.00
C568   C     0.56757   0.91118   0.04792   0.00000  Uiso   1.00
C569   C     0.61790   0.97115   0.03804   0.00000  Uiso   1.00
C570   C     0.38615   0.83537   0.05145   0.00000  Uiso   1.00
C571   C     0.34192   0.77352   0.04111   0.00000  Uiso   1.00
C572   C     0.28906   0.77052   0.02812   0.00000  Uiso   1.00
C573   C     0.43668   0.87610   0.08936   0.00000  Uiso   1.00
C574   C     0.43491   0.84848   0.11089   0.00000  Uiso   1.00
C575   C     0.42456   0.87976   0.12982   0.00000  Uiso   1.00
H576   H     0.42563   0.99889   0.05973   0.00000  Uiso   1.00
H577   H     0.21093   0.40429   0.37411   0.00000  Uiso   1.00
H578   H     0.31865   0.93331   0.03397   0.00000  Uiso   1.00
H579   H     0.41162   0.00826   0.10374   0.00000  Uiso   1.00
H580   H     0.34610   0.45912   0.35420   0.00000  Uiso   1.00
H581   H     0.20369   0.83554   0.00653   0.00000  Uiso   1.00
H582   H     0.39975   0.99360   0.15365   0.00000  Uiso   1.00
H583   H     0.45379   0.80571   0.06837   0.00000  Uiso   1.00
H584   H     0.57397   0.86718   0.04989   0.00000  Uiso   1.00
H585   H     0.34835   0.72953   0.04308   0.00000  Uiso   1.00
H586   H     0.44133   0.80449   0.11285   0.00000  Uiso   1.00
H587   H     0.70354   0.96039   0.02826   0.00000  Uiso   1.00
H588   H     0.22780   0.67014   0.01392   0.00000  Uiso   1.00
H589   H     0.42386   0.82821   0.16105   0.00000  Uiso   1.00
O590   O     0.43669   0.42034   0.34557   0.00000  Uiso   1.00
O591   O     0.14587   0.70621   0.99343   0.00000  Uiso   1.00
O592   O     0.40310   0.91358   0.18646   0.00000  Uiso   1.00
N593   N     0.33528   0.41176   0.35848   0.00000  Uiso   1.00
N594   N     0.22384   0.80707   0.01174   0.00000  Uiso   1.00
N595   N     0.40712   0.95483   0.14929   0.00000  Uiso   1.00
N596   N     0.34826   0.32277   0.36246   0.00000  Uiso   1.00
N597   N     0.23681   0.71807   0.01572   0.00000  Uiso   1.00
N598   N     0.42009   0.86583   0.15327   0.00000  Uiso   1.00
C599   C     0.09875   0.28796   0.39505   0.00000  Uiso   1.00
C600   C     0.16711   0.30034   0.38595   0.00000  Uiso   1.00
C601   C     0.88403   0.69364   0.70941   0.00000  Uiso   1.00
C602   C     0.94293   0.69476   0.70216   0.00000  Uiso   1.00
C603   C     0.04780   0.72261   0.68763   0.00000  Uiso   1.00
C604   C     0.04453   0.22555   0.38225   0.00000  Uiso   1.00
C605   C     0.99171   0.22264   0.36927   0.00000  Uiso   1.00
C606   C     0.94742   0.16080   0.35890   0.00000  Uiso   1.00
C607   C     0.86196   0.07253   0.33864   0.00000  Uiso   1.00
C608   C     0.09506   0.26628   0.42015   0.00000  Uiso   1.00
C609   C     0.08470   0.29761   0.43905   0.00000  Uiso   1.00
C610   C     0.08293   0.27005   0.46060   0.00000  Uiso   1.00
C611   C     0.07591   0.24502   0.49920   0.00000  Uiso   1.00
C612   C     0.11400   0.18330   0.39973   0.00000  Uiso   1.00
C613   C     0.17540   0.24349   0.38849   0.00000  Uiso   1.00
C614   C     0.23424   0.24452   0.38125   0.00000  Uiso   1.00
C615   C     0.28457   0.30448   0.37137   0.00000  Uiso   1.00
C616   C     0.05282   0.16870   0.38479   0.00000  Uiso   1.00
C617   C     0.00859   0.10685   0.37444   0.00000  Uiso   1.00
C618   C     0.95572   0.10385   0.36145   0.00000  Uiso   1.00
C619   C     0.10334   0.20943   0.42270   0.00000  Uiso   1.00
C620   C     0.10158   0.18182   0.44423   0.00000  Uiso   1.00
C621   C     0.09123   0.21310   0.46315   0.00000  Uiso   1.00
H622   H     0.09230   0.33222   0.39307   0.00000  Uiso   1.00
H623   H     0.87760   0.73762   0.70744   0.00000  Uiso   1.00
H624   H     0.98531   0.26664   0.36730   0.00000  Uiso   1.00
H625   H     0.07829   0.34160   0.43707   0.00000  Uiso   1.00
H626   H     0.01276   0.79245   0.68753   0.00000  Uiso   1.00
H627   H     0.87036   0.16887   0.33986   0.00000  Uiso   1.00
H628   H     0.06642   0.32693   0.48699   0.00000  Uiso   1.00
H629   H     0.12045   0.13904   0.40171   0.00000  Uiso   1.00
H630   H     0.24063   0.20052   0.38322   0.00000  Uiso   1.00
H631   H     0.01502   0.06287   0.37642   0.00000  Uiso   1.00
H632   H     0.10799   0.13782   0.44619   0.00000  Uiso   1.00
H633   H     0.37021   0.29373   0.36160   0.00000  Uiso   1.00
H634   H     0.89446   0.00348   0.34726   0.00000  Uiso   1.00
H635   H     0.09053   0.16154   0.49438   0.00000  Uiso   1.00
O636   O     0.10336   0.75367   0.67891   0.00000  Uiso   1.00
O637   O     0.81254   0.03954   0.32676   0.00000  Uiso   1.00
O638   O     0.06976   0.24692   0.51979   0.00000  Uiso   1.00
N639   N     0.00195   0.74510   0.69182   0.00000  Uiso   1.00
N640   N     0.89050   0.14040   0.34507   0.00000  Uiso   1.00
N641   N     0.07378   0.28816   0.48262   0.00000  Uiso   1.00
N642   N     0.01492   0.65610   0.69579   0.00000  Uiso   1.00
N643   N     0.90348   0.05140   0.34905   0.00000  Uiso   1.00
N644   N     0.08676   0.19917   0.48660   0.00000  Uiso   1.00
C645   C     0.76542   0.62130   0.72838   0.00000  Uiso   1.00
C646   C     0.83378   0.63367   0.71928   0.00000  Uiso   1.00
C647   C     0.55070   0.02698   0.04274   0.00000  Uiso   1.00
C648   C     0.60960   0.02810   0.03549   0.00000  Uiso   1.00
C649   C     0.71447   0.05595   0.02096   0.00000  Uiso   1.00
C650   C     0.71120   0.55888   0.71558   0.00000  Uiso   1.00
C651   C     0.65838   0.55598   0.70260   0.00000  Uiso   1.00
C652   C     0.61409   0.49413   0.69224   0.00000  Uiso   1.00
C653   C     0.52863   0.40586   0.67198   0.00000  Uiso   1.00
C654   C     0.76172   0.59961   0.75349   0.00000  Uiso   1.00
C655   C     0.75137   0.63094   0.77238   0.00000  Uiso   1.00
C656   C     0.74960   0.60338   0.79394   0.00000  Uiso   1.00
C657   C     0.74258   0.57835   0.83254   0.00000  Uiso   1.00
C658   C     0.78067   0.51664   0.73306   0.00000  Uiso   1.00
C659   C     0.84206   0.57682   0.72182   0.00000  Uiso   1.00
C660   C     0.90091   0.57785   0.71458   0.00000  Uiso   1.00
C661   C     0.95123   0.63782   0.70470   0.00000  Uiso   1.00
C662   C     0.71948   0.50204   0.71812   0.00000  Uiso   1.00
C663   C     0.67526   0.44018   0.70778   0.00000  Uiso   1.00
C664   C     0.62239   0.43718   0.69478   0.00000  Uiso   1.00
C665   C     0.77001   0.54277   0.75603   0.00000  Uiso   1.00
C666   C     0.76825   0.51515   0.77756   0.00000  Uiso   1.00
C667   C     0.75789   0.54643   0.79648   0.00000  Uiso   1.00
H668   H     0.75897   0.66555   0.72640   0.00000  Uiso   1.00
H669   H     0.54426   0.07096   0.04077   0.00000  Uiso   1.00
H670   H     0.65198   0.59997   0.70064   0.00000  Uiso   1.00
H671   H     0.74496   0.67493   0.77041   0.00000  Uiso   1.00
H672   H     0.67943   0.12579   0.02087   0.00000  Uiso   1.00
H673   H     0.53703   0.50220   0.67319   0.00000  Uiso   1.00
H674   H     0.73308   0.66026   0.82032   0.00000  Uiso   1.00
H675   H     0.78712   0.47238   0.73504   0.00000  Uiso   1.00
H676   H     0.90730   0.53385   0.71655   0.00000  Uiso   1.00
H677   H     0.68168   0.39620   0.70975   0.00000  Uiso   1.00
H678   H     0.77466   0.47116   0.77952   0.00000  Uiso   1.00
H679   H     0.03687   0.62706   0.69493   0.00000  Uiso   1.00
H680   H     0.56113   0.33681   0.68059   0.00000  Uiso   1.00
H681   H     0.75719   0.49487   0.82772   0.00000  Uiso   1.00
O682   O     0.77003   0.08701   0.01224   0.00000  Uiso   1.00
O683   O     0.47920   0.37288   0.66010   0.00000  Uiso   1.00
O684   O     0.73643   0.58025   0.85312   0.00000  Uiso   1.00
N685   N     0.66862   0.07843   0.02515   0.00000  Uiso   1.00
N686   N     0.55717   0.47373   0.67840   0.00000  Uiso   1.00
N687   N     0.74045   0.62150   0.81596   0.00000  Uiso   1.00
N688   N     0.68159   0.98943   0.02913   0.00000  Uiso   1.00
N689   N     0.57014   0.38474   0.68238   0.00000  Uiso   1.00
N690   N     0.75342   0.53250   0.81994   0.00000  Uiso   1.00
C691   C     0.52254   0.56791   0.06171   0.00000  Uiso   1.00
C692   C     0.46656   0.49955   0.05261   0.00000  Uiso   1.00
C693   C     0.14295   0.78264   0.37607   0.00000  Uiso   1.00
C694   C     0.08517   0.72374   0.36882   0.00000  Uiso   1.00
C695   C     0.00814   0.61886   0.35429   0.00000  Uiso   1.00
C696   C     0.51435   0.62213   0.04891   0.00000  Uiso   1.00
C697   C     0.56426   0.67495   0.03593   0.00000  Uiso   1.00
C698   C     0.54671   0.71924   0.02557   0.00000  Uiso   1.00
C699   C     0.54390   0.80471   0.00531   0.00000  Uiso   1.00
C700   C     0.50456   0.57161   0.08682   0.00000  Uiso   1.00
C701   C     0.54624   0.58197   0.10572   0.00000  Uiso   1.00
C702   C     0.52045   0.58374   0.12727   0.00000  Uiso   1.00
C703   C     0.50244   0.59075   0.16587   0.00000  Uiso   1.00
C704   C     0.40263   0.55266   0.06639   0.00000  Uiso   1.00
C705   C     0.40143   0.49127   0.05515   0.00000  Uiso   1.00
C706   C     0.34361   0.43243   0.04792   0.00000  Uiso   1.00
C707   C     0.35325   0.38210   0.03804   0.00000  Uiso   1.00
C708   C     0.44922   0.61385   0.05145   0.00000  Uiso   1.00
C709   C     0.43159   0.65808   0.04111   0.00000  Uiso   1.00
C710   C     0.48146   0.71094   0.02812   0.00000  Uiso   1.00
C711   C     0.43942   0.56332   0.08936   0.00000  Uiso   1.00
C712   C     0.41357   0.56509   0.11089   0.00000  Uiso   1.00
C713   C     0.45520   0.57544   0.12982   0.00000  Uiso   1.00
H714   H     0.57325   0.57437   0.05973   0.00000  Uiso   1.00
H715   H     0.19336   0.78907   0.37411   0.00000  Uiso   1.00
H716   H     0.61466   0.68135   0.03397   0.00000  Uiso   1.00
H717   H     0.59664   0.58838   0.10374   0.00000  Uiso   1.00
H718   H     0.11302   0.65390   0.35420   0.00000  Uiso   1.00
H719   H     0.63184   0.79631   0.00653   0.00000  Uiso   1.00
H720   H     0.59385   0.60025   0.15365   0.00000  Uiso   1.00
H721   H     0.35192   0.54621   0.06837   0.00000  Uiso   1.00
H722   H     0.29322   0.42603   0.04989   0.00000  Uiso   1.00
H723   H     0.38118   0.65165   0.04308   0.00000  Uiso   1.00
H724   H     0.36316   0.55867   0.11285   0.00000  Uiso   1.00
H725   H     0.25686   0.29646   0.02826   0.00000  Uiso   1.00
H726   H     0.44235   0.77220   0.01392   0.00000  Uiso   1.00
H727   H     0.40435   0.57614   0.16105   0.00000  Uiso   1.00
O728   O     0.98365   0.56331   0.34557   0.00000  Uiso   1.00
O729   O     0.56034   0.85413   0.99343   0.00000  Uiso   1.00
O730   O     0.51049   0.59690   0.18646   0.00000  Uiso   1.00
N731   N     0.07648   0.66472   0.35848   0.00000  Uiso   1.00
N732   N     0.58323   0.77616   0.01174   0.00000  Uiso   1.00
N733   N     0.54771   0.59288   0.14929   0.00000  Uiso   1.00
N734   N     0.97451   0.65174   0.36246   0.00000  Uiso   1.00
N735   N     0.48126   0.76319   0.01572   0.00000  Uiso   1.00
N736   N     0.44574   0.57991   0.15327   0.00000  Uiso   1.00
C737   C     0.18921   0.90125   0.39505   0.00000  Uiso   1.00
C738   C     0.13322   0.83289   0.38595   0.00000  Uiso   1.00
C739   C     0.80961   0.11597   0.70941   0.00000  Uiso   1.00
C740   C     0.75183   0.05707   0.70216   0.00000  Uiso   1.00
C741   C     0.67481   0.95220   0.68763   0.00000  Uiso   1.00
C742   C     0.18101   0.95547   0.38225   0.00000  Uiso   1.00
C743   C     0.23093   0.00829   0.36927   0.00000  Uiso   1.00
C744   C     0.21338   0.05258   0.35890   0.00000  Uiso   1.00
C745   C     0.21056   0.13804   0.33864   0.00000  Uiso   1.00
C746   C     0.17122   0.90494   0.42015   0.00000  Uiso   1.00
C747   C     0.21291   0.91530   0.43905   0.00000  Uiso   1.00
C748   C     0.18712   0.91707   0.46060   0.00000  Uiso   1.00
C749   C     0.16910   0.92409   0.49920   0.00000  Uiso   1.00
C750   C     0.06930   0.88600   0.39973   0.00000  Uiso   1.00
C751   C     0.06809   0.82460   0.38849   0.00000  Uiso   1.00
C752   C     0.01028   0.76576   0.38125   0.00000  Uiso   1.00
C753   C     0.01992   0.71543   0.37137   0.00000  Uiso   1.00
C754   C     0.11589   0.94718   0.38479   0.00000  Uiso   1.00
C755   C     0.09826   0.99141   0.37444   0.00000  Uiso   1.00
C756   C     0.14813   0.04428   0.36145   0.00000  Uiso   1.00
C757   C     0.10609   0.89666   0.42270   0.00000  Uiso   1.00
C758   C     0.08023   0.89842   0.44423   0.00000  Uiso   1.00
C759   C     0.12187   0.90877   0.46315   0.00000  Uiso   1.00
H760   H     0.23992   0.90770   0.39307   0.00000  Uiso   1.00
H761   H     0.86003   0.12240   0.70744   0.00000  Uiso   1.00
H762   H     0.28133   0.01469   0.36730   0.00000  Uiso   1.00
H763   H     0.26331   0.92171   0.43707   0.00000  Uiso   1.00
H764   H     0.77969   0.98724   0.68753   0.00000  Uiso   1.00
H765   H     0.29851   0.12964   0.33986   0.00000  Uiso   1.00
H766   H     0.26051   0.93358   0.48699   0.00000  Uiso   1.00
H767   H     0.01859   0.87955   0.40171   0.00000  Uiso   1.00
H768   H     0.95988   0.75937   0.38322   0.00000  Uiso   1.00
H769   H     0.04785   0.98498   0.37642   0.00000  Uiso   1.00
H770   H     0.02983   0.89201   0.44619   0.00000  Uiso   1.00
H771   H     0.92352   0.62979   0.36160   0.00000  Uiso   1.00
H772   H     0.10901   0.10554   0.34726   0.00000  Uiso   1.00
H773   H     0.07101   0.90947   0.49438   0.00000  Uiso   1.00
O774   O     0.65032   0.89664   0.67891   0.00000  Uiso   1.00
O775   O     0.22701   0.18746   0.32676   0.00000  Uiso   1.00
O776   O     0.17715   0.93024   0.51979   0.00000  Uiso   1.00
N777   N     0.74314   0.99805   0.69182   0.00000  Uiso   1.00
N778   N     0.24990   0.10950   0.34507   0.00000  Uiso   1.00
N779   N     0.21438   0.92622   0.48262   0.00000  Uiso   1.00
N780   N     0.64118   0.98508   0.69579   0.00000  Uiso   1.00
N781   N     0.14793   0.09652   0.34905   0.00000  Uiso   1.00
N782   N     0.11241   0.91324   0.48660   0.00000  Uiso   1.00
C783   C     0.85588   0.23458   0.72838   0.00000  Uiso   1.00
C784   C     0.79989   0.16622   0.71928   0.00000  Uiso   1.00
C785   C     0.47628   0.44930   0.04274   0.00000  Uiso   1.00
C786   C     0.41850   0.39040   0.03549   0.00000  Uiso   1.00
C787   C     0.34147   0.28553   0.02096   0.00000  Uiso   1.00
C788   C     0.84768   0.28880   0.71558   0.00000  Uiso   1.00
C789   C     0.89759   0.34162   0.70260   0.00000  Uiso   1.00
C790   C     0.88004   0.38591   0.69224   0.00000  Uiso   1.00
C791   C     0.87723   0.47137   0.67198   0.00000  Uiso   1.00
C792   C     0.83789   0.23828   0.75349   0.00000  Uiso   1.00
C793   C     0.87957   0.24863   0.77238   0.00000  Uiso   1.00
C794   C     0.85378   0.25040   0.79394   0.00000  Uiso   1.00
C795   C     0.83577   0.25742   0.83254   0.00000  Uiso   1.00
C796   C     0.73597   0.21933   0.73306   0.00000  Uiso   1.00
C797   C     0.73476   0.15794   0.72182   0.00000  Uiso   1.00
C798   C     0.67695   0.09909   0.71458   0.00000  Uiso   1.00
C799   C     0.68658   0.04877   0.70470   0.00000  Uiso   1.00
C800   C     0.78255   0.28052   0.71812   0.00000  Uiso   1.00
C801   C     0.76492   0.32474   0.70778   0.00000  Uiso   1.00
C802   C     0.81479   0.37761   0.69478   0.00000  Uiso   1.00
C803   C     0.77276   0.22999   0.75603   0.00000  Uiso   1.00
C804   C     0.74690   0.23175   0.77756   0.00000  Uiso   1.00
C805   C     0.78854   0.24211   0.79648   0.00000  Uiso   1.00
H806   H     0.90659   0.24103   0.72640   0.00000  Uiso   1.00
H807   H     0.52670   0.45574   0.04077   0.00000  Uiso   1.00
H808   H     0.94799   0.34802   0.70064   0.00000  Uiso   1.00
H809   H     0.92997   0.25504   0.77041   0.00000  Uiso   1.00
H810   H     0.44636   0.32057   0.02087   0.00000  Uiso   1.00
H811   H     0.96518   0.46297   0.67319   0.00000  Uiso   1.00
H812   H     0.92718   0.26692   0.82032   0.00000  Uiso   1.00
H813   H     0.68526   0.21288   0.73504   0.00000  Uiso   1.00
H814   H     0.62655   0.09270   0.71655   0.00000  Uiso   1.00
H815   H     0.71452   0.31832   0.70975   0.00000  Uiso   1.00
H816   H     0.69650   0.22534   0.77952   0.00000  Uiso   1.00
H817   H     0.59019   0.96313   0.69493   0.00000  Uiso   1.00
H818   H     0.77568   0.43887   0.68059   0.00000  Uiso   1.00
H819   H     0.73768   0.24281   0.82772   0.00000  Uiso   1.00
O820   O     0.31698   0.22997   0.01224   0.00000  Uiso   1.00
O821   O     0.89367   0.52080   0.66010   0.00000  Uiso   1.00
O822   O     0.84382   0.26357   0.85312   0.00000  Uiso   1.00
N823   N     0.40981   0.33138   0.02515   0.00000  Uiso   1.00
N824   N     0.91656   0.44283   0.67840   0.00000  Uiso   1.00
N825   N     0.88105   0.25955   0.81596   0.00000  Uiso   1.00
N826   N     0.30784   0.31841   0.02913   0.00000  Uiso   1.00
N827   N     0.81459   0.42986   0.68238   0.00000  Uiso   1.00
N828   N     0.77908   0.24658   0.81994   0.00000  Uiso   1.00
C829   C     0.52254   0.95463   0.56171   0.00000  Uiso   1.00
C830   C     0.46656   0.96700   0.55261   0.00000  Uiso   1.00
C831   C     0.14295   0.36031   0.87607   0.00000  Uiso   1.00
C832   C     0.08517   0.36143   0.86882   0.00000  Uiso   1.00
C833   C     0.00814   0.38928   0.85429   0.00000  Uiso   1.00
C834   C     0.51435   0.89222   0.54891   0.00000  Uiso   1.00
C835   C     0.56426   0.88931   0.53593   0.00000  Uiso   1.00
C836   C     0.54671   0.82747   0.52557   0.00000  Uiso   1.00
C837   C     0.54390   0.73919   0.50531   0.00000  Uiso   1.00
C838   C     0.50456   0.93295   0.58682   0.00000  Uiso   1.00
C839   C     0.54624   0.96427   0.60572   0.00000  Uiso   1.00
C840   C     0.52045   0.93671   0.62727   0.00000  Uiso   1.00
C841   C     0.50244   0.91168   0.66587   0.00000  Uiso   1.00
C842   C     0.40263   0.84997   0.56639   0.00000  Uiso   1.00
C843   C     0.40143   0.91015   0.55515   0.00000  Uiso   1.00
C844   C     0.34361   0.91118   0.54792   0.00000  Uiso   1.00
C845   C     0.35325   0.97115   0.53804   0.00000  Uiso   1.00
C846   C     0.44922   0.83537   0.55145   0.00000  Uiso   1.00
C847   C     0.43159   0.77352   0.54111   0.00000  Uiso   1.00
C848   C     0.48146   0.77052   0.52812   0.00000  Uiso   1.00
C849   C     0.43942   0.87610   0.58936   0.00000  Uiso   1.00
C850   C     0.41357   0.84848   0.61089   0.00000  Uiso   1.00
C851   C     0.45520   0.87976   0.62982   0.00000  Uiso   1.00
H852   H     0.57325   0.99889   0.55973   0.00000  Uiso   1.00
H853   H     0.19336   0.40429   0.87411   0.00000  Uiso   1.00
H854   H     0.61466   0.93331   0.53397   0.00000  Uiso   1.00
H855   H     0.59664   0.00826   0.60374   0.00000  Uiso   1.00
H856   H     0.11302   0.45912   0.85420   0.00000  Uiso   1.00
H857   H     0.63184   0.83554   0.50653   0.00000  Uiso   1.00
H858   H     0.59385   0.99360   0.65365   0.00000  Uiso   1.00
H859   H     0.35192   0.80571   0.56837   0.00000  Uiso   1.00
H860   H     0.29322   0.86718   0.54989   0.00000  Uiso   1.00
H861   H     0.38118   0.72953   0.54308   0.00000  Uiso   1.00
H862   H     0.36316   0.80449   0.61285   0.00000  Uiso   1.00
H863   H     0.25686   0.96039   0.52826   0.00000  Uiso   1.00
H864   H     0.44235   0.67014   0.51392   0.00000  Uiso   1.00
H865   H     0.40435   0.82821   0.66105   0.00000  Uiso   1.00
O866   O     0.98365   0.42034   0.84557   0.00000  Uiso   1.00
O867   O     0.56034   0.70621   0.49343   0.00000  Uiso   1.00
O868   O     0.51049   0.91358   0.68646   0.00000  Uiso   1.00
N869   N     0.07648   0.41176   0.85848   0.00000  Uiso   1.00
N870   N     0.58323   0.80707   0.51174   0.00000  Uiso   1.00
N871   N     0.54771   0.95483   0.64929   0.00000  Uiso   1.00
N872   N     0.97451   0.32277   0.86246   0.00000  Uiso   1.00
N873   N     0.48126   0.71807   0.51572   0.00000  Uiso   1.00
N874   N     0.44574   0.86583   0.65327   0.00000  Uiso   1.00
C875   C     0.18921   0.28796   0.89505   0.00000  Uiso   1.00
C876   C     0.13322   0.30034   0.88595   0.00000  Uiso   1.00
C877   C     0.80961   0.69364   0.20941   0.00000  Uiso   1.00
C878   C     0.75183   0.69476   0.20216   0.00000  Uiso   1.00
C879   C     0.67481   0.72261   0.18763   0.00000  Uiso   1.00
C880   C     0.18101   0.22555   0.88225   0.00000  Uiso   1.00
C881   C     0.23093   0.22264   0.86927   0.00000  Uiso   1.00
C882   C     0.21338   0.16080   0.85890   0.00000  Uiso   1.00
C883   C     0.21056   0.07253   0.83864   0.00000  Uiso   1.00
C884   C     0.17122   0.26628   0.92015   0.00000  Uiso   1.00
C885   C     0.21291   0.29761   0.93905   0.00000  Uiso   1.00
C886   C     0.18712   0.27005   0.96060   0.00000  Uiso   1.00
C887   C     0.16910   0.24502   0.99920   0.00000  Uiso   1.00
C888   C     0.06930   0.18330   0.89973   0.00000  Uiso   1.00
C889   C     0.06809   0.24349   0.88849   0.00000  Uiso   1.00
C890   C     0.01028   0.24452   0.88125   0.00000  Uiso   1.00
C891   C     0.01992   0.30448   0.87137   0.00000  Uiso   1.00
C892   C     0.11589   0.16870   0.88479   0.00000  Uiso   1.00
C893   C     0.09826   0.10685   0.87444   0.00000  Uiso   1.00
C894   C     0.14813   0.10385   0.86145   0.00000  Uiso   1.00
C895   C     0.10609   0.20943   0.92270   0.00000  Uiso   1.00
C896   C     0.08023   0.18182   0.94423   0.00000  Uiso   1.00
C897   C     0.12187   0.21310   0.96315   0.00000  Uiso   1.00
H898   H     0.23992   0.33222   0.89307   0.00000  Uiso   1.00
H899   H     0.86003   0.73762   0.20744   0.00000  Uiso   1.00
H900   H     0.28133   0.26664   0.86730   0.00000  Uiso   1.00
H901   H     0.26331   0.34160   0.93707   0.00000  Uiso   1.00
H902   H     0.77969   0.79245   0.18753   0.00000  Uiso   1.00
H903   H     0.29851   0.16887   0.83986   0.00000  Uiso   1.00
H904   H     0.26051   0.32693   0.98699   0.00000  Uiso   1.00
H905   H     0.01859   0.13904   0.90171   0.00000  Uiso   1.00
H906   H     0.95988   0.20052   0.88322   0.00000  Uiso   1.00
H907   H     0.04785   0.06287   0.87642   0.00000  Uiso   1.00
H908   H     0.02983   0.13782   0.94619   0.00000  Uiso   1.00
H909   H     0.92352   0.29373   0.86160   0.00000  Uiso   1.00
H910   H     0.10901   0.00348   0.84726   0.00000  Uiso   1.00
H911   H     0.07101   0.16154   0.99438   0.00000  Uiso   1.00
O912   O     0.65032   0.75367   0.17891   0.00000  Uiso   1.00
O913   O     0.22701   0.03954   0.82676   0.00000  Uiso   1.00
O914   O     0.17715   0.24692   0.01979   0.00000  Uiso   1.00
N915   N     0.74314   0.74510   0.19182   0.00000  Uiso   1.00
N916   N     0.24990   0.14040   0.84507   0.00000  Uiso   1.00
N917   N     0.21438   0.28816   0.98262   0.00000  Uiso   1.00
N918   N     0.64118   0.65610   0.19579   0.00000  Uiso   1.00
N919   N     0.14793   0.05140   0.84905   0.00000  Uiso   1.00
N920   N     0.11241   0.19917   0.98660   0.00000  Uiso   1.00
C921   C     0.85588   0.62130   0.22838   0.00000  Uiso   1.00
C922   C     0.79989   0.63367   0.21928   0.00000  Uiso   1.00
C923   C     0.47628   0.02698   0.54274   0.00000  Uiso   1.00
C924   C     0.41850   0.02810   0.53549   0.00000  Uiso   1.00
C925   C     0.34147   0.05595   0.52096   0.00000  Uiso   1.00
C926   C     0.84768   0.55888   0.21558   0.00000  Uiso   1.00
C927   C     0.89759   0.55598   0.20260   0.00000  Uiso   1.00
C928   C     0.88004   0.49413   0.19224   0.00000  Uiso   1.00
C929   C     0.87723   0.40586   0.17198   0.00000  Uiso   1.00
C930   C     0.83789   0.59961   0.25349   0.00000  Uiso   1.00
C931   C     0.87957   0.63094   0.27238   0.00000  Uiso   1.00
C932   C     0.85378   0.60338   0.29394   0.00000  Uiso   1.00
C933   C     0.83577   0.57835   0.33254   0.00000  Uiso   1.00
C934   C     0.73597   0.51664   0.23306   0.00000  Uiso   1.00
C935   C     0.73476   0.57682   0.22182   0.00000  Uiso   1.00
C936   C     0.67695   0.57785   0.21458   0.00000  Uiso   1.00
C937   C     0.68658   0.63782   0.20470   0.00000  Uiso   1.00
C938   C     0.78255   0.50204   0.21812   0.00000  Uiso   1.00
C939   C     0.76492   0.44018   0.20778   0.00000  Uiso   1.00
C940   C     0.81479   0.43718   0.19478   0.00000  Uiso   1.00
C941   C     0.77276   0.54277   0.25603   0.00000  Uiso   1.00
C942   C     0.74690   0.51515   0.27756   0.00000  Uiso   1.00
C943   C     0.78854   0.54643   0.29648   0.00000  Uiso   1.00
H944   H     0.90659   0.66555   0.22640   0.00000  Uiso   1.00
H945   H     0.52670   0.07096   0.54077   0.00000  Uiso   1.00
H946   H     0.94799   0.59997   0.20064   0.00000  Uiso   1.00
H947   H     0.92997   0.67493   0.27041   0.00000  Uiso   1.00
H948   H     0.44636   0.12579   0.52087   0.00000  Uiso   1.00
H949   H     0.96518   0.50220   0.17319   0.00000  Uiso   1.00
H950   H     0.92718   0.66026   0.32032   0.00000  Uiso   1.00
H951   H     0.68526   0.47238   0.23504   0.00000  Uiso   1.00
H952   H     0.62655   0.53385   0.21655   0.00000  Uiso   1.00
H953   H     0.71452   0.39620   0.20975   0.00000  Uiso   1.00
H954   H     0.69650   0.47116   0.27952   0.00000  Uiso   1.00
H955   H     0.59019   0.62706   0.19493   0.00000  Uiso   1.00
H956   H     0.77568   0.33681   0.18059   0.00000  Uiso   1.00
H957   H     0.73768   0.49487   0.32772   0.00000  Uiso   1.00
O958   O     0.31698   0.08701   0.51224   0.00000  Uiso   1.00
O959   O     0.89367   0.37288   0.16010   0.00000  Uiso   1.00
O960   O     0.84382   0.58025   0.35312   0.00000  Uiso   1.00
N961   N     0.40981   0.07843   0.52515   0.00000  Uiso   1.00
N962   N     0.91656   0.47373   0.17840   0.00000  Uiso   1.00
N963   N     0.88105   0.62150   0.31596   0.00000  Uiso   1.00
N964   N     0.30784   0.98943   0.52913   0.00000  Uiso   1.00
N965   N     0.81459   0.38474   0.18238   0.00000  Uiso   1.00
N966   N     0.77908   0.53250   0.31994   0.00000  Uiso   1.00
C967   C     0.04537   0.56791   0.56171   0.00000  Uiso   1.00
C968   C     0.03300   0.49955   0.55261   0.00000  Uiso   1.00
C969   C     0.63969   0.78264   0.87607   0.00000  Uiso   1.00
C970   C     0.63857   0.72374   0.86882   0.00000  Uiso   1.00
C971   C     0.61072   0.61886   0.85429   0.00000  Uiso   1.00
C972   C     0.10778   0.62213   0.54891   0.00000  Uiso   1.00
C973   C     0.11069   0.67495   0.53593   0.00000  Uiso   1.00
C974   C     0.17253   0.71924   0.52557   0.00000  Uiso   1.00
C975   C     0.26081   0.80471   0.50531   0.00000  Uiso   1.00
C976   C     0.06705   0.57161   0.58682   0.00000  Uiso   1.00
C977   C     0.03573   0.58197   0.60572   0.00000  Uiso   1.00
C978   C     0.06329   0.58374   0.62727   0.00000  Uiso   1.00
C979   C     0.08832   0.59075   0.66587   0.00000  Uiso   1.00
C980   C     0.15003   0.55266   0.56639   0.00000  Uiso   1.00
C981   C     0.08985   0.49127   0.55515   0.00000  Uiso   1.00
C982   C     0.08882   0.43243   0.54792   0.00000  Uiso   1.00
C983   C     0.02885   0.38210   0.53804   0.00000  Uiso   1.00
C984   C     0.16463   0.61385   0.55145   0.00000  Uiso   1.00
C985   C     0.22648   0.65808   0.54111   0.00000  Uiso   1.00
C986   C     0.22948   0.71094   0.52812   0.00000  Uiso   1.00
C987   C     0.12390   0.56332   0.58936   0.00000  Uiso   1.00
C988   C     0.15152   0.56509   0.61089   0.00000  Uiso   1.00
C989   C     0.12024   0.57544   0.62982   0.00000  Uiso   1.00
H990   H     0.00111   0.57437   0.55973   0.00000  Uiso   1.00
H991   H     0.59571   0.78907   0.87411   0.00000  Uiso   1.00
H992   H     0.06669   0.68135   0.53397   0.00000  Uiso   1.00
H993   H     0.99174   0.58838   0.60374   0.00000  Uiso   1.00
H994   H     0.54088   0.65390   0.85420   0.00000  Uiso   1.00
H995   H     0.16446   0.79631   0.50653   0.00000  Uiso   1.00
H996   H     0.00640   0.60025   0.65365   0.00000  Uiso   1.00
H997   H     0.19429   0.54621   0.56837   0.00000  Uiso   1.00
H998   H     0.13282   0.42603   0.54989   0.00000  Uiso   1.00
H999   H     0.27047   0.65165   0.54308   0.00000  Uiso   1.00
H1000  H     0.19551   0.55867   0.61285   0.00000  Uiso   1.00
H1001  H     0.03961   0.29646   0.52826   0.00000  Uiso   1.00
H1002  H     0.32986   0.77220   0.51392   0.00000  Uiso   1.00
H1003  H     0.17179   0.57614   0.66105   0.00000  Uiso   1.00
O1004  O     0.57966   0.56331   0.84557   0.00000  Uiso   1.00
O1005  O     0.29379   0.85413   0.49343   0.00000  Uiso   1.00
O1006  O     0.08642   0.59690   0.68646   0.00000  Uiso   1.00
N1007  N     0.58824   0.66472   0.85848   0.00000  Uiso   1.00
N1008  N     0.19293   0.77616   0.51174   0.00000  Uiso   1.00
N1009  N     0.04517   0.59288   0.64929   0.00000  Uiso   1.00
N1010  N     0.67723   0.65174   0.86246   0.00000  Uiso   1.00
N1011  N     0.28193   0.76319   0.51572   0.00000  Uiso   1.00
N1012  N     0.13417   0.57991   0.65327   0.00000  Uiso   1.00
C1013  C     0.71204   0.90125   0.89505   0.00000  Uiso   1.00
C1014  C     0.69966   0.83289   0.88595   0.00000  Uiso   1.00
C1015  C     0.30636   0.11597   0.20941   0.00000  Uiso   1.00
C1016  C     0.30524   0.05707   0.20216   0.00000  Uiso   1.00
C1017  C     0.27739   0.95220   0.18763   0.00000  Uiso   1.00
C1018  C     0.77445   0.95547   0.88225   0.00000  Uiso   1.00
C1019  C     0.77736   0.00829   0.86927   0.00000  Uiso   1.00
C1020  C     0.83920   0.05258   0.85890   0.00000  Uiso   1.00
C1021  C     0.92747   0.13804   0.83864   0.00000  Uiso   1.00
C1022  C     0.73372   0.90494   0.92015   0.00000  Uiso   1.00
C1023  C     0.70239   0.91530   0.93905   0.00000  Uiso   1.00
C1024  C     0.72995   0.91707   0.96060   0.00000  Uiso   1.00
C1025  C     0.75498   0.92409   0.99920   0.00000  Uiso   1.00
C1026  C     0.81670   0.88600   0.89973   0.00000  Uiso   1.00
C1027  C     0.75651   0.82460   0.88849   0.00000  Uiso   1.00
C1028  C     0.75548   0.76576   0.88125   0.00000  Uiso   1.00
C1029  C     0.69552   0.71543   0.87137   0.00000  Uiso   1.00
C1030  C     0.83130   0.94718   0.88479   0.00000  Uiso   1.00
C1031  C     0.89315   0.99141   0.87444   0.00000  Uiso   1.00
C1032  C     0.89615   0.04428   0.86145   0.00000  Uiso   1.00
C1033  C     0.79057   0.89666   0.92270   0.00000  Uiso   1.00
C1034  C     0.81818   0.89842   0.94423   0.00000  Uiso   1.00
C1035  C     0.78690   0.90877   0.96315   0.00000  Uiso   1.00
H1036  H     0.66778   0.90770   0.89307   0.00000  Uiso   1.00
H1037  H     0.26238   0.12240   0.20744   0.00000  Uiso   1.00
H1038  H     0.73336   0.01469   0.86730   0.00000  Uiso   1.00
H1039  H     0.65840   0.92171   0.93707   0.00000  Uiso   1.00
H1040  H     0.20755   0.98724   0.18753   0.00000  Uiso   1.00
H1041  H     0.83113   0.12964   0.83986   0.00000  Uiso   1.00
H1042  H     0.67307   0.93358   0.98699   0.00000  Uiso   1.00
H1043  H     0.86096   0.87955   0.90171   0.00000  Uiso   1.00
H1044  H     0.79948   0.75937   0.88322   0.00000  Uiso   1.00
H1045  H     0.93713   0.98498   0.87642   0.00000  Uiso   1.00
H1046  H     0.86218   0.89201   0.94619   0.00000  Uiso   1.00
H1047  H     0.70627   0.62979   0.86160   0.00000  Uiso   1.00
H1048  H     0.99652   0.10554   0.84726   0.00000  Uiso   1.00
H1049  H     0.83846   0.90947   0.99438   0.00000  Uiso   1.00
O1050  O     0.24633   0.89664   0.17891   0.00000  Uiso   1.00
O1051  O     0.96046   0.18746   0.82676   0.00000  Uiso   1.00
O1052  O     0.75308   0.93024   0.01979   0.00000  Uiso   1.00
N1053  N     0.25490   0.99805   0.19182   0.00000  Uiso   1.00
N1054  N     0.85960   0.10950   0.84507   0.00000  Uiso   1.00
N1055  N     0.71184   0.92622   0.98262   0.00000  Uiso   1.00
N1056  N     0.34390   0.98508   0.19579   0.00000  Uiso   1.00
N1057  N     0.94860   0.09652   0.84905   0.00000  Uiso   1.00
N1058  N     0.80083   0.91324   0.98660   0.00000  Uiso   1.00
C1059  C     0.37870   0.23458   0.22838   0.00000  Uiso   1.00
C1060  C     0.36633   0.16622   0.21928   0.00000  Uiso   1.00
C1061  C     0.97302   0.44930   0.54274   0.00000  Uiso   1.00
C1062  C     0.97190   0.39040   0.53549   0.00000  Uiso   1.00
C1063  C     0.94405   0.28553   0.52096   0.00000  Uiso   1.00
C1064  C     0.44112   0.28880   0.21558   0.00000  Uiso   1.00
C1065  C     0.44402   0.34162   0.20260   0.00000  Uiso   1.00
C1066  C     0.50587   0.38591   0.19224   0.00000  Uiso   1.00
C1067  C     0.59414   0.47137   0.17198   0.00000  Uiso   1.00
C1068  C     0.40039   0.23828   0.25349   0.00000  Uiso   1.00
C1069  C     0.36906   0.24863   0.27238   0.00000  Uiso   1.00
C1070  C     0.39662   0.25040   0.29394   0.00000  Uiso   1.00
C1071  C     0.42165   0.25742   0.33254   0.00000  Uiso   1.00
C1072  C     0.48336   0.21933   0.23306   0.00000  Uiso   1.00
C1073  C     0.42318   0.15794   0.22182   0.00000  Uiso   1.00
C1074  C     0.42215   0.09909   0.21458   0.00000  Uiso   1.00
C1075  C     0.36218   0.04877   0.20470   0.00000  Uiso   1.00
C1076  C     0.49796   0.28052   0.21812   0.00000  Uiso   1.00
C1077  C     0.55982   0.32474   0.20778   0.00000  Uiso   1.00
C1078  C     0.56282   0.37761   0.19478   0.00000  Uiso   1.00
C1079  C     0.45723   0.22999   0.25603   0.00000  Uiso   1.00
C1080  C     0.48485   0.23175   0.27756   0.00000  Uiso   1.00
C1081  C     0.45357   0.24211   0.29648   0.00000  Uiso   1.00
H1082  H     0.33445   0.24103   0.22640   0.00000  Uiso   1.00
H1083  H     0.92904   0.45574   0.54077   0.00000  Uiso   1.00
H1084  H     0.40003   0.34802   0.20064   0.00000  Uiso   1.00
H1085  H     0.32507   0.25504   0.27041   0.00000  Uiso   1.00
H1086  H     0.87421   0.32057   0.52087   0.00000  Uiso   1.00
H1087  H     0.49780   0.46297   0.17319   0.00000  Uiso   1.00
H1088  H     0.33974   0.26692   0.32032   0.00000  Uiso   1.00
H1089  H     0.52762   0.21288   0.23504   0.00000  Uiso   1.00
H1090  H     0.46615   0.09270   0.21655   0.00000  Uiso   1.00
H1091  H     0.60380   0.31832   0.20975   0.00000  Uiso   1.00
H1092  H     0.52884   0.22534   0.27952   0.00000  Uiso   1.00
H1093  H     0.37294   0.96313   0.19493   0.00000  Uiso   1.00
H1094  H     0.66319   0.43887   0.18059   0.00000  Uiso   1.00
H1095  H     0.50513   0.24281   0.32772   0.00000  Uiso   1.00
O1096  O     0.91299   0.22997   0.51224   0.00000  Uiso   1.00
O1097  O     0.62712   0.52080   0.16010   0.00000  Uiso   1.00
O1098  O     0.41975   0.26357   0.35312   0.00000  Uiso   1.00
N1099  N     0.92157   0.33138   0.52515   0.00000  Uiso   1.00
N1100  N     0.52627   0.44283   0.17840   0.00000  Uiso   1.00
N1101  N     0.37850   0.25955   0.31596   0.00000  Uiso   1.00
N1102  N     0.01057   0.31841   0.52913   0.00000  Uiso   1.00
N1103  N     0.61526   0.42986   0.18238   0.00000  Uiso   1.00
N1104  N     0.46750   0.24658   0.31994   0.00000  Uiso   1.00
C1105  C     0.43209   0.47746   0.56171   0.00000  Uiso   1.00
C1106  C     0.50045   0.53344   0.55261   0.00000  Uiso   1.00
C1107  C     0.21736   0.85705   0.87607   0.00000  Uiso   1.00
C1108  C     0.27626   0.91483   0.86882   0.00000  Uiso   1.00
C1109  C     0.38114   0.99186   0.85429   0.00000  Uiso   1.00
C1110  C     0.37787   0.48565   0.54891   0.00000  Uiso   1.00
C1111  C     0.32505   0.43574   0.53593   0.00000  Uiso   1.00
C1112  C     0.28076   0.45329   0.52557   0.00000  Uiso   1.00
C1113  C     0.19529   0.45610   0.50531   0.00000  Uiso   1.00
C1114  C     0.42839   0.49544   0.58682   0.00000  Uiso   1.00
C1115  C     0.41803   0.45376   0.60572   0.00000  Uiso   1.00
C1116  C     0.41626   0.47955   0.62727   0.00000  Uiso   1.00
C1117  C     0.40925   0.49756   0.66587   0.00000  Uiso   1.00
C1118  C     0.44734   0.59737   0.56639   0.00000  Uiso   1.00
C1119  C     0.50873   0.59857   0.55515   0.00000  Uiso   1.00
C1120  C     0.56757   0.65639   0.54792   0.00000  Uiso   1.00
C1121  C     0.61790   0.64675   0.53804   0.00000  Uiso   1.00
C1122  C     0.38615   0.55078   0.55145   0.00000  Uiso   1.00
C1123  C     0.34192   0.56841   0.54111   0.00000  Uiso   1.00
C1124  C     0.28906   0.51854   0.52812   0.00000  Uiso   1.00
C1125  C     0.43668   0.56058   0.58936   0.00000  Uiso   1.00
C1126  C     0.43491   0.58643   0.61089   0.00000  Uiso   1.00
C1127  C     0.42456   0.54480   0.62982   0.00000  Uiso   1.00
H1128  H     0.42563   0.42675   0.55973   0.00000  Uiso   1.00
H1129  H     0.21093   0.80664   0.87411   0.00000  Uiso   1.00
H1130  H     0.31865   0.38534   0.53397   0.00000  Uiso   1.00
H1131  H     0.41162   0.40336   0.60374   0.00000  Uiso   1.00
H1132  H     0.34610   0.88698   0.85420   0.00000  Uiso   1.00
H1133  H     0.20369   0.36816   0.50653   0.00000  Uiso   1.00
H1134  H     0.39975   0.40615   0.65365   0.00000  Uiso   1.00
H1135  H     0.45379   0.64808   0.56837   0.00000  Uiso   1.00
H1136  H     0.57397   0.70678   0.54989   0.00000  Uiso   1.00
H1137  H     0.34835   0.61882   0.54308   0.00000  Uiso   1.00
H1138  H     0.44133   0.63684   0.61285   0.00000  Uiso   1.00
H1139  H     0.70354   0.74314   0.52826   0.00000  Uiso   1.00
H1140  H     0.22780   0.55765   0.51392   0.00000  Uiso   1.00
H1141  H     0.42386   0.59565   0.66105   0.00000  Uiso   1.00
O1142  O     0.43669   0.01635   0.84557   0.00000  Uiso   1.00
O1143  O     0.14587   0.43966   0.49343   0.00000  Uiso   1.00
O1144  O     0.40310   0.48951   0.68646   0.00000  Uiso   1.00
N1145  N     0.33528   0.92352   0.85848   0.00000  Uiso   1.00
N1146  N     0.22384   0.41677   0.51174   0.00000  Uiso   1.00
N1147  N     0.40712   0.45229   0.64929   0.00000  Uiso   1.00
N1148  N     0.34826   0.02549   0.86246   0.00000  Uiso   1.00
N1149  N     0.23681   0.51874   0.51572   0.00000  Uiso   1.00
N1150  N     0.42009   0.55426   0.65327   0.00000  Uiso   1.00
C1151  C     0.09875   0.81079   0.89505   0.00000  Uiso   1.00
C1152  C     0.16711   0.86678   0.88595   0.00000  Uiso   1.00
C1153  C     0.88403   0.19039   0.20941   0.00000  Uiso   1.00
C1154  C     0.94293   0.24817   0.20216   0.00000  Uiso   1.00
C1155  C     0.04780   0.32519   0.18763   0.00000  Uiso   1.00
C1156  C     0.04453   0.81899   0.88225   0.00000  Uiso   1.00
C1157  C     0.99171   0.76907   0.86927   0.00000  Uiso   1.00
C1158  C     0.94742   0.78662   0.85890   0.00000  Uiso   1.00
C1159  C     0.86196   0.78944   0.83864   0.00000  Uiso   1.00
C1160  C     0.09506   0.82878   0.92015   0.00000  Uiso   1.00
C1161  C     0.08470   0.78709   0.93905   0.00000  Uiso   1.00
C1162  C     0.08293   0.81288   0.96060   0.00000  Uiso   1.00
C1163  C     0.07591   0.83090   0.99920   0.00000  Uiso   1.00
C1164  C     0.11400   0.93070   0.89973   0.00000  Uiso   1.00
C1165  C     0.17540   0.93191   0.88849   0.00000  Uiso   1.00
C1166  C     0.23424   0.98972   0.88125   0.00000  Uiso   1.00
C1167  C     0.28457   0.98008   0.87137   0.00000  Uiso   1.00
C1168  C     0.05282   0.88411   0.88479   0.00000  Uiso   1.00
C1169  C     0.00859   0.90174   0.87444   0.00000  Uiso   1.00
C1170  C     0.95572   0.85187   0.86145   0.00000  Uiso   1.00
C1171  C     0.10334   0.89391   0.92270   0.00000  Uiso   1.00
C1172  C     0.10158   0.91977   0.94423   0.00000  Uiso   1.00
C1173  C     0.09123   0.87813   0.96315   0.00000  Uiso   1.00
H1174  H     0.09230   0.76008   0.89307   0.00000  Uiso   1.00
H1175  H     0.87760   0.13997   0.20744   0.00000  Uiso   1.00
H1176  H     0.98531   0.71867   0.86730   0.00000  Uiso   1.00
H1177  H     0.07829   0.73669   0.93707   0.00000  Uiso   1.00
H1178  H     0.01276   0.22031   0.18753   0.00000  Uiso   1.00
H1179  H     0.87036   0.70149   0.83986   0.00000  Uiso   1.00
H1180  H     0.06642   0.73949   0.98699   0.00000  Uiso   1.00
H1181  H     0.12045   0.98141   0.90171   0.00000  Uiso   1.00
H1182  H     0.24063   0.04012   0.88322   0.00000  Uiso   1.00
H1183  H     0.01502   0.95215   0.87642   0.00000  Uiso   1.00
H1184  H     0.10799   0.97017   0.94619   0.00000  Uiso   1.00
H1185  H     0.37021   0.07648   0.86160   0.00000  Uiso   1.00
H1186  H     0.89446   0.89099   0.84726   0.00000  Uiso   1.00
H1187  H     0.09053   0.92899   0.99438   0.00000  Uiso   1.00
O1188  O     0.10336   0.34968   0.17891   0.00000  Uiso   1.00
O1189  O     0.81254   0.77299   0.82676   0.00000  Uiso   1.00
O1190  O     0.06976   0.82285   0.01979   0.00000  Uiso   1.00
N1191  N     0.00195   0.25686   0.19182   0.00000  Uiso   1.00
N1192  N     0.89050   0.75010   0.84507   0.00000  Uiso   1.00
N1193  N     0.07378   0.78562   0.98262   0.00000  Uiso   1.00
N1194  N     0.01492   0.35882   0.19579   0.00000  Uiso   1.00
N1195  N     0.90348   0.85207   0.84905   0.00000  Uiso   1.00
N1196  N     0.08676   0.88759   0.98660   0.00000  Uiso   1.00
C1197  C     0.76542   0.14412   0.22838   0.00000  Uiso   1.00
C1198  C     0.83378   0.20011   0.21928   0.00000  Uiso   1.00
C1199  C     0.55070   0.52372   0.54274   0.00000  Uiso   1.00
C1200  C     0.60960   0.58150   0.53549   0.00000  Uiso   1.00
C1201  C     0.71447   0.65853   0.52096   0.00000  Uiso   1.00
C1202  C     0.71120   0.15232   0.21558   0.00000  Uiso   1.00
C1203  C     0.65838   0.10241   0.20260   0.00000  Uiso   1.00
C1204  C     0.61409   0.11996   0.19224   0.00000  Uiso   1.00
C1205  C     0.52863   0.12277   0.17198   0.00000  Uiso   1.00
C1206  C     0.76172   0.16211   0.25349   0.00000  Uiso   1.00
C1207  C     0.75137   0.12043   0.27238   0.00000  Uiso   1.00
C1208  C     0.74960   0.14622   0.29394   0.00000  Uiso   1.00
C1209  C     0.74258   0.16423   0.33254   0.00000  Uiso   1.00
C1210  C     0.78067   0.26403   0.23306   0.00000  Uiso   1.00
C1211  C     0.84206   0.26524   0.22182   0.00000  Uiso   1.00
C1212  C     0.90091   0.32305   0.21458   0.00000  Uiso   1.00
C1213  C     0.95123   0.31342   0.20470   0.00000  Uiso   1.00
C1214  C     0.71948   0.21745   0.21812   0.00000  Uiso   1.00
C1215  C     0.67526   0.23508   0.20778   0.00000  Uiso   1.00
C1216  C     0.62239   0.18521   0.19478   0.00000  Uiso   1.00
C1217  C     0.77001   0.22724   0.25603   0.00000  Uiso   1.00
C1218  C     0.76825   0.25310   0.27756   0.00000  Uiso   1.00
C1219  C     0.75789   0.21146   0.29648   0.00000  Uiso   1.00
H1220  H     0.75897   0.09341   0.22640   0.00000  Uiso   1.00
H1221  H     0.54426   0.47330   0.54077   0.00000  Uiso   1.00
H1222  H     0.65198   0.05201   0.20064   0.00000  Uiso   1.00
H1223  H     0.74496   0.07003   0.27041   0.00000  Uiso   1.00
H1224  H     0.67943   0.55364   0.52087   0.00000  Uiso   1.00
H1225  H     0.53703   0.03482   0.17319   0.00000  Uiso   1.00
H1226  H     0.73308   0.07282   0.32032   0.00000  Uiso   1.00
H1227  H     0.78712   0.31474   0.23504   0.00000  Uiso   1.00
H1228  H     0.90730   0.37345   0.21655   0.00000  Uiso   1.00
H1229  H     0.68168   0.28548   0.20975   0.00000  Uiso   1.00
H1230  H     0.77466   0.30350   0.27952   0.00000  Uiso   1.00
H1231  H     0.03687   0.40981   0.19493   0.00000  Uiso   1.00
H1232  H     0.56113   0.22432   0.18059   0.00000  Uiso   1.00
H1233  H     0.75719   0.26232   0.32772   0.00000  Uiso   1.00
O1234  O     0.77003   0.68302   0.51224   0.00000  Uiso   1.00
O1235  O     0.47920   0.10633   0.16010   0.00000  Uiso   1.00
O1236  O     0.73643   0.15618   0.35312   0.00000  Uiso   1.00
N1237  N     0.66862   0.59019   0.52515   0.00000  Uiso   1.00
N1238  N     0.55717   0.08344   0.17840   0.00000  Uiso   1.00
N1239  N     0.74045   0.11895   0.31596   0.00000  Uiso   1.00
N1240  N     0.68159   0.69216   0.52913   0.00000  Uiso   1.00
N1241  N     0.57014   0.18541   0.18238   0.00000  Uiso   1.00
N1242  N     0.75342   0.22092   0.31994   0.00000  Uiso   1.00
C1243  C     0.95463   0.52254   0.93829   0.00000  Uiso   1.00
C1244  C     0.96700   0.46656   0.94739   0.00000  Uiso   1.00
C1245  C     0.36031   0.14295   0.62393   0.00000  Uiso   1.00
C1246  C     0.36143   0.08517   0.63118   0.00000  Uiso   1.00
C1247  C     0.38928   0.00814   0.64571   0.00000  Uiso   1.00
C1248  C     0.89222   0.51435   0.95109   0.00000  Uiso   1.00
C1249  C     0.88931   0.56426   0.96407   0.00000  Uiso   1.00
C1250  C     0.82747   0.54671   0.97443   0.00000  Uiso   1.00
C1251  C     0.73919   0.54390   0.99469   0.00000  Uiso   1.00
C1252  C     0.93295   0.50456   0.91318   0.00000  Uiso   1.00
C1253  C     0.96427   0.54624   0.89428   0.00000  Uiso   1.00
C1254  C     0.93671   0.52045   0.87273   0.00000  Uiso   1.00
C1255  C     0.91168   0.50244   0.83413   0.00000  Uiso   1.00
C1256  C     0.84997   0.40263   0.93361   0.00000  Uiso   1.00
C1257  C     0.91015   0.40143   0.94485   0.00000  Uiso   1.00
C1258  C     0.91118   0.34361   0.95208   0.00000  Uiso   1.00
C1259  C     0.97115   0.35325   0.96196   0.00000  Uiso   1.00
C1260  C     0.83537   0.44922   0.94855   0.00000  Uiso   1.00
C1261  C     0.77352   0.43159   0.95889   0.00000  Uiso   1.00
C1262  C     0.77052   0.48146   0.97188   0.00000  Uiso   1.00
C1263  C     0.87610   0.43942   0.91064   0.00000  Uiso   1.00
C1264  C     0.84848   0.41357   0.88911   0.00000  Uiso   1.00
C1265  C     0.87976   0.45520   0.87018   0.00000  Uiso   1.00
H1266  H     0.99889   0.57325   0.94027   0.00000  Uiso   1.00
H1267  H     0.40429   0.19336   0.62589   0.00000  Uiso   1.00
H1268  H     0.93331   0.61466   0.96603   0.00000  Uiso   1.00
H1269  H     0.00826   0.59664   0.89626   0.00000  Uiso   1.00
H1270  H     0.45912   0.11302   0.64580   0.00000  Uiso   1.00
H1271  H     0.83554   0.63184   0.99347   0.00000  Uiso   1.00
H1272  H     0.99360   0.59385   0.84635   0.00000  Uiso   1.00
H1273  H     0.80571   0.35192   0.93163   0.00000  Uiso   1.00
H1274  H     0.86718   0.29322   0.95011   0.00000  Uiso   1.00
H1275  H     0.72953   0.38118   0.95692   0.00000  Uiso   1.00
H1276  H     0.80449   0.36316   0.88715   0.00000  Uiso   1.00
H1277  H     0.96039   0.25686   0.97174   0.00000  Uiso   1.00
H1278  H     0.67014   0.44235   0.98608   0.00000  Uiso   1.00
H1279  H     0.82821   0.40435   0.83895   0.00000  Uiso   1.00
O1280  O     0.42034   0.98365   0.65443   0.00000  Uiso   1.00
O1281  O     0.70621   0.56034   0.00657   0.00000  Uiso   1.00
O1282  O     0.91358   0.51049   0.81354   0.00000  Uiso   1.00
N1283  N     0.41176   0.07648   0.64152   0.00000  Uiso   1.00
N1284  N     0.80707   0.58323   0.98826   0.00000  Uiso   1.00
N1285  N     0.95483   0.54771   0.85071   0.00000  Uiso   1.00
N1286  N     0.32277   0.97451   0.63754   0.00000  Uiso   1.00
N1287  N     0.71807   0.48126   0.98428   0.00000  Uiso   1.00
N1288  N     0.86583   0.44574   0.84673   0.00000  Uiso   1.00
C1289  C     0.62130   0.85588   0.27162   0.00000  Uiso   1.00
C1290  C     0.63367   0.79989   0.28072   0.00000  Uiso   1.00
C1291  C     0.02698   0.47628   0.95726   0.00000  Uiso   1.00
C1292  C     0.02810   0.41850   0.96451   0.00000  Uiso   1.00
C1293  C     0.05595   0.34147   0.97904   0.00000  Uiso   1.00
C1294  C     0.55888   0.84768   0.28442   0.00000  Uiso   1.00
C1295  C     0.55598   0.89759   0.29740   0.00000  Uiso   1.00
C1296  C     0.49413   0.88004   0.30776   0.00000  Uiso   1.00
C1297  C     0.40586   0.87723   0.32802   0.00000  Uiso   1.00
C1298  C     0.59961   0.83789   0.24651   0.00000  Uiso   1.00
C1299  C     0.63094   0.87957   0.22762   0.00000  Uiso   1.00
C1300  C     0.60338   0.85378   0.20606   0.00000  Uiso   1.00
C1301  C     0.57835   0.83577   0.16746   0.00000  Uiso   1.00
C1302  C     0.51664   0.73597   0.26694   0.00000  Uiso   1.00
C1303  C     0.57682   0.73476   0.27818   0.00000  Uiso   1.00
C1304  C     0.57785   0.67695   0.28542   0.00000  Uiso   1.00
C1305  C     0.63782   0.68658   0.29530   0.00000  Uiso   1.00
C1306  C     0.50204   0.78255   0.28188   0.00000  Uiso   1.00
C1307  C     0.44018   0.76492   0.29222   0.00000  Uiso   1.00
C1308  C     0.43718   0.81479   0.30522   0.00000  Uiso   1.00
C1309  C     0.54277   0.77276   0.24397   0.00000  Uiso   1.00
C1310  C     0.51515   0.74690   0.22244   0.00000  Uiso   1.00
C1311  C     0.54643   0.78854   0.20352   0.00000  Uiso   1.00
H1312  H     0.66555   0.90659   0.27360   0.00000  Uiso   1.00
H1313  H     0.07096   0.52670   0.95923   0.00000  Uiso   1.00
H1314  H     0.59997   0.94799   0.29936   0.00000  Uiso   1.00
H1315  H     0.67493   0.92997   0.22959   0.00000  Uiso   1.00
H1316  H     0.12579   0.44636   0.97913   0.00000  Uiso   1.00
H1317  H     0.50220   0.96518   0.32681   0.00000  Uiso   1.00
H1318  H     0.66026   0.92718   0.17968   0.00000  Uiso   1.00
H1319  H     0.47238   0.68526   0.26496   0.00000  Uiso   1.00
H1320  H     0.53385   0.62655   0.28345   0.00000  Uiso   1.00
H1321  H     0.39620   0.71452   0.29025   0.00000  Uiso   1.00
H1322  H     0.47116   0.69650   0.22048   0.00000  Uiso   1.00
H1323  H     0.62706   0.59019   0.30507   0.00000  Uiso   1.00
H1324  H     0.33681   0.77568   0.31941   0.00000  Uiso   1.00
H1325  H     0.49487   0.73768   0.17228   0.00000  Uiso   1.00
O1326  O     0.08701   0.31698   0.98776   0.00000  Uiso   1.00
O1327  O     0.37288   0.89367   0.33990   0.00000  Uiso   1.00
O1328  O     0.58025   0.84382   0.14688   0.00000  Uiso   1.00
N1329  N     0.07843   0.40981   0.97485   0.00000  Uiso   1.00
N1330  N     0.47373   0.91656   0.32160   0.00000  Uiso   1.00
N1331  N     0.62150   0.88105   0.18404   0.00000  Uiso   1.00
N1332  N     0.98943   0.30784   0.97087   0.00000  Uiso   1.00
N1333  N     0.38474   0.81459   0.31762   0.00000  Uiso   1.00
N1334  N     0.53250   0.77908   0.18006   0.00000  Uiso   1.00
C1335  C     0.28796   0.18921   0.60495   0.00000  Uiso   1.00
C1336  C     0.30034   0.13322   0.61405   0.00000  Uiso   1.00
C1337  C     0.69364   0.80961   0.29059   0.00000  Uiso   1.00
C1338  C     0.69476   0.75183   0.29784   0.00000  Uiso   1.00
C1339  C     0.72261   0.67481   0.31237   0.00000  Uiso   1.00
C1340  C     0.22555   0.18101   0.61775   0.00000  Uiso   1.00
C1341  C     0.22264   0.23093   0.63073   0.00000  Uiso   1.00
C1342  C     0.16080   0.21338   0.64110   0.00000  Uiso   1.00
C1343  C     0.07253   0.21056   0.66136   0.00000  Uiso   1.00
C1344  C     0.26628   0.17122   0.57985   0.00000  Uiso   1.00
C1345  C     0.29761   0.21291   0.56095   0.00000  Uiso   1.00
C1346  C     0.27005   0.18712   0.53940   0.00000  Uiso   1.00
C1347  C     0.24502   0.16910   0.50080   0.00000  Uiso   1.00
C1348  C     0.18330   0.06930   0.60027   0.00000  Uiso   1.00
C1349  C     0.24349   0.06809   0.61151   0.00000  Uiso   1.00
C1350  C     0.24452   0.01028   0.61875   0.00000  Uiso   1.00
C1351  C     0.30448   0.01992   0.62863   0.00000  Uiso   1.00
C1352  C     0.16870   0.11589   0.61521   0.00000  Uiso   1.00
C1353  C     0.10685   0.09826   0.62556   0.00000  Uiso   1.00
C1354  C     0.10385   0.14813   0.63855   0.00000  Uiso   1.00
C1355  C     0.20943   0.10609   0.57730   0.00000  Uiso   1.00
C1356  C     0.18182   0.08023   0.55577   0.00000  Uiso   1.00
C1357  C     0.21310   0.12187   0.53685   0.00000  Uiso   1.00
H1358  H     0.33222   0.23992   0.60693   0.00000  Uiso   1.00
H1359  H     0.73762   0.86003   0.29256   0.00000  Uiso   1.00
H1360  H     0.26664   0.28133   0.63270   0.00000  Uiso   1.00
H1361  H     0.34160   0.26331   0.56293   0.00000  Uiso   1.00
H1362  H     0.79245   0.77969   0.31247   0.00000  Uiso   1.00
H1363  H     0.16887   0.29851   0.66014   0.00000  Uiso   1.00
H1364  H     0.32693   0.26051   0.51301   0.00000  Uiso   1.00
H1365  H     0.13904   0.01859   0.59829   0.00000  Uiso   1.00
H1366  H     0.20052   0.95988   0.61678   0.00000  Uiso   1.00
H1367  H     0.06287   0.04785   0.62358   0.00000  Uiso   1.00
H1368  H     0.13782   0.02983   0.55381   0.00000  Uiso   1.00
H1369  H     0.29373   0.92352   0.63840   0.00000  Uiso   1.00
H1370  H     0.00348   0.10901   0.65274   0.00000  Uiso   1.00
H1371  H     0.16154   0.07101   0.50562   0.00000  Uiso   1.00
O1372  O     0.75367   0.65032   0.32109   0.00000  Uiso   1.00
O1373  O     0.03954   0.22701   0.67324   0.00000  Uiso   1.00
O1374  O     0.24692   0.17715   0.48021   0.00000  Uiso   1.00
N1375  N     0.74510   0.74314   0.30818   0.00000  Uiso   1.00
N1376  N     0.14040   0.24990   0.65493   0.00000  Uiso   1.00
N1377  N     0.28816   0.21438   0.51738   0.00000  Uiso   1.00
N1378  N     0.65610   0.64118   0.30421   0.00000  Uiso   1.00
N1379  N     0.05140   0.14793   0.65095   0.00000  Uiso   1.00
N1380  N     0.19917   0.11241   0.51340   0.00000  Uiso   1.00
C1381  C     0.56791   0.04537   0.93829   0.00000  Uiso   1.00
C1382  C     0.49955   0.03300   0.94739   0.00000  Uiso   1.00
C1383  C     0.78264   0.63969   0.62393   0.00000  Uiso   1.00
C1384  C     0.72374   0.63857   0.63118   0.00000  Uiso   1.00
C1385  C     0.61886   0.61072   0.64571   0.00000  Uiso   1.00
C1386  C     0.62213   0.10778   0.95109   0.00000  Uiso   1.00
C1387  C     0.67495   0.11069   0.96407   0.00000  Uiso   1.00
C1388  C     0.71924   0.17253   0.97443   0.00000  Uiso   1.00
C1389  C     0.80471   0.26081   0.99469   0.00000  Uiso   1.00
C1390  C     0.57161   0.06705   0.91318   0.00000  Uiso   1.00
C1391  C     0.58197   0.03573   0.89428   0.00000  Uiso   1.00
C1392  C     0.58374   0.06329   0.87273   0.00000  Uiso   1.00
C1393  C     0.59075   0.08832   0.83413   0.00000  Uiso   1.00
C1394  C     0.55266   0.15003   0.93361   0.00000  Uiso   1.00
C1395  C     0.49127   0.08985   0.94485   0.00000  Uiso   1.00
C1396  C     0.43243   0.08882   0.95208   0.00000  Uiso   1.00
C1397  C     0.38210   0.02885   0.96196   0.00000  Uiso   1.00
C1398  C     0.61385   0.16463   0.94855   0.00000  Uiso   1.00
C1399  C     0.65808   0.22648   0.95889   0.00000  Uiso   1.00
C1400  C     0.71094   0.22948   0.97188   0.00000  Uiso   1.00
C1401  C     0.56332   0.12390   0.91064   0.00000  Uiso   1.00
C1402  C     0.56509   0.15152   0.88911   0.00000  Uiso   1.00
C1403  C     0.57544   0.12024   0.87018   0.00000  Uiso   1.00
H1404  H     0.57437   0.00111   0.94027   0.00000  Uiso   1.00
H1405  H     0.78907   0.59571   0.62589   0.00000  Uiso   1.00
H1406  H     0.68135   0.06669   0.96603   0.00000  Uiso   1.00
H1407  H     0.58838   0.99174   0.89626   0.00000  Uiso   1.00
H1408  H     0.65390   0.54088   0.64580   0.00000  Uiso   1.00
H1409  H     0.79631   0.16446   0.99347   0.00000  Uiso   1.00
H1410  H     0.60025   0.00640   0.84635   0.00000  Uiso   1.00
H1411  H     0.54621   0.19429   0.93163   0.00000  Uiso   1.00
H1412  H     0.42603   0.13282   0.95011   0.00000  Uiso   1.00
H1413  H     0.65165   0.27047   0.95692   0.00000  Uiso   1.00
H1414  H     0.55867   0.19551   0.88715   0.00000  Uiso   1.00
H1415  H     0.29646   0.03961   0.97174   0.00000  Uiso   1.00
H1416  H     0.77220   0.32986   0.98608   0.00000  Uiso   1.00
H1417  H     0.57614   0.17179   0.83895   0.00000  Uiso   1.00
O1418  O     0.56331   0.57966   0.65443   0.00000  Uiso   1.00
O1419  O     0.85413   0.29379   0.00657   0.00000  Uiso   1.00
O1420  O     0.59690   0.08642   0.81354   0.00000  Uiso   1.00
N1421  N     0.66472   0.58824   0.64152   0.00000  Uiso   1.00
N1422  N     0.77616   0.19293   0.98826   0.00000  Uiso   1.00
N1423  N     0.59288   0.04517   0.85071   0.00000  Uiso   1.00
N1424  N     0.65174   0.67723   0.63754   0.00000  Uiso   1.00
N1425  N     0.76319   0.28193   0.98428   0.00000  Uiso   1.00
N1426  N     0.57991   0.13417   0.84673   0.00000  Uiso   1.00
C1427  C     0.23458   0.37870   0.27162   0.00000  Uiso   1.00
C1428  C     0.16622   0.36633   0.28072   0.00000  Uiso   1.00
C1429  C     0.44930   0.97302   0.95726   0.00000  Uiso   1.00
C1430  C     0.39040   0.97190   0.96451   0.00000  Uiso   1.00
C1431  C     0.28553   0.94405   0.97904   0.00000  Uiso   1.00
C1432  C     0.28880   0.44112   0.28442   0.00000  Uiso   1.00
C1433  C     0.34162   0.44402   0.29740   0.00000  Uiso   1.00
C1434  C     0.38591   0.50587   0.30776   0.00000  Uiso   1.00
C1435  C     0.47137   0.59414   0.32802   0.00000  Uiso   1.00
C1436  C     0.23828   0.40039   0.24651   0.00000  Uiso   1.00
C1437  C     0.24863   0.36906   0.22762   0.00000  Uiso   1.00
C1438  C     0.25040   0.39662   0.20606   0.00000  Uiso   1.00
C1439  C     0.25742   0.42165   0.16746   0.00000  Uiso   1.00
C1440  C     0.21933   0.48336   0.26694   0.00000  Uiso   1.00
C1441  C     0.15794   0.42318   0.27818   0.00000  Uiso   1.00
C1442  C     0.09909   0.42215   0.28542   0.00000  Uiso   1.00
C1443  C     0.04877   0.36218   0.29530   0.00000  Uiso   1.00
C1444  C     0.28052   0.49796   0.28188   0.00000  Uiso   1.00
C1445  C     0.32474   0.55982   0.29222   0.00000  Uiso   1.00
C1446  C     0.37761   0.56282   0.30522   0.00000  Uiso   1.00
C1447  C     0.22999   0.45723   0.24397   0.00000  Uiso   1.00
C1448  C     0.23175   0.48485   0.22244   0.00000  Uiso   1.00
C1449  C     0.24211   0.45357   0.20352   0.00000  Uiso   1.00
H1450  H     0.24103   0.33445   0.27360   0.00000  Uiso   1.00
H1451  H     0.45574   0.92904   0.95923   0.00000  Uiso   1.00
H1452  H     0.34802   0.40003   0.29936   0.00000  Uiso   1.00
H1453  H     0.25504   0.32507   0.22959   0.00000  Uiso   1.00
H1454  H     0.32057   0.87421   0.97913   0.00000  Uiso   1.00
H1455  H     0.46297   0.49780   0.32681   0.00000  Uiso   1.00
H1456  H     0.26692   0.33974   0.17968   0.00000  Uiso   1.00
H1457  H     0.21288   0.52762   0.26496   0.00000  Uiso   1.00
H1458  H     0.09270   0.46615   0.28345   0.00000  Uiso   1.00
H1459  H     0.31832   0.60380   0.29025   0.00000  Uiso   1.00
H1460  H     0.22534   0.52884   0.22048   0.00000  Uiso   1.00
H1461  H     0.96313   0.37294   0.30507   0.00000  Uiso   1.00
H1462  H     0.43887   0.66319   0.31941   0.00000  Uiso   1.00
H1463  H     0.24281   0.50513   0.17228   0.00000  Uiso   1.00
O1464  O     0.22997   0.91299   0.98776   0.00000  Uiso   1.00
O1465  O     0.52080   0.62712   0.33990   0.00000  Uiso   1.00
O1466  O     0.26357   0.41975   0.14688   0.00000  Uiso   1.00
N1467  N     0.33138   0.92157   0.97485   0.00000  Uiso   1.00
N1468  N     0.44283   0.52627   0.32160   0.00000  Uiso   1.00
N1469  N     0.25955   0.37850   0.18404   0.00000  Uiso   1.00
N1470  N     0.31841   0.01057   0.97087   0.00000  Uiso   1.00
N1471  N     0.42986   0.61526   0.31762   0.00000  Uiso   1.00
N1472  N     0.24658   0.46750   0.18006   0.00000  Uiso   1.00
C1473  C     0.90125   0.71204   0.60495   0.00000  Uiso   1.00
C1474  C     0.83289   0.69966   0.61405   0.00000  Uiso   1.00
C1475  C     0.11597   0.30636   0.29059   0.00000  Uiso   1.00
C1476  C     0.05707   0.30524   0.29784   0.00000  Uiso   1.00
C1477  C     0.95220   0.27739   0.31237   0.00000  Uiso   1.00
C1478  C     0.95547   0.77445   0.61775   0.00000  Uiso   1.00
C1479  C     0.00829   0.77736   0.63073   0.00000  Uiso   1.00
C1480  C     0.05258   0.83920   0.64110   0.00000  Uiso   1.00
C1481  C     0.13804   0.92747   0.66136   0.00000  Uiso   1.00
C1482  C     0.90494   0.73372   0.57985   0.00000  Uiso   1.00
C1483  C     0.91530   0.70239   0.56095   0.00000  Uiso   1.00
C1484  C     0.91707   0.72995   0.53940   0.00000  Uiso   1.00
C1485  C     0.92409   0.75498   0.50080   0.00000  Uiso   1.00
C1486  C     0.88600   0.81670   0.60027   0.00000  Uiso   1.00
C1487  C     0.82460   0.75651   0.61151   0.00000  Uiso   1.00
C1488  C     0.76576   0.75548   0.61875   0.00000  Uiso   1.00
C1489  C     0.71543   0.69552   0.62863   0.00000  Uiso   1.00
C1490  C     0.94718   0.83130   0.61521   0.00000  Uiso   1.00
C1491  C     0.99141   0.89315   0.62556   0.00000  Uiso   1.00
C1492  C     0.04428   0.89615   0.63855   0.00000  Uiso   1.00
C1493  C     0.89666   0.79057   0.57730   0.00000  Uiso   1.00
C1494  C     0.89842   0.81818   0.55577   0.00000  Uiso   1.00
C1495  C     0.90877   0.78690   0.53685   0.00000  Uiso   1.00
H1496  H     0.90770   0.66778   0.60693   0.00000  Uiso   1.00
H1497  H     0.12240   0.26238   0.29256   0.00000  Uiso   1.00
H1498  H     0.01469   0.73336   0.63270   0.00000  Uiso   1.00
H1499  H     0.92171   0.65840   0.56293   0.00000  Uiso   1.00
H1500  H     0.98724   0.20755   0.31247   0.00000  Uiso   1.00
H1501  H     0.12964   0.83113   0.66014   0.00000  Uiso   1.00
H1502  H     0.93358   0.67307   0.51301   0.00000  Uiso   1.00
H1503  H     0.87955   0.86096   0.59829   0.00000  Uiso   1.00
H1504  H     0.75937   0.79948   0.61678   0.00000  Uiso   1.00
H1505  H     0.98498   0.93713   0.62358   0.00000  Uiso   1.00
H1506  H     0.89201   0.86218   0.55381   0.00000  Uiso   1.00
H1507  H     0.62979   0.70627   0.63840   0.00000  Uiso   1.00
H1508  H     0.10554   0.99652   0.65274   0.00000  Uiso   1.00
H1509  H     0.90947   0.83846   0.50562   0.00000  Uiso   1.00
O1510  O     0.89664   0.24633   0.32109   0.00000  Uiso   1.00
O1511  O     0.18746   0.96046   0.67324   0.00000  Uiso   1.00
O1512  O     0.93024   0.75308   0.48021   0.00000  Uiso   1.00
N1513  N     0.99805   0.25490   0.30818   0.00000  Uiso   1.00
N1514  N     0.10950   0.85960   0.65493   0.00000  Uiso   1.00
N1515  N     0.92622   0.71184   0.51738   0.00000  Uiso   1.00
N1516  N     0.98508   0.34390   0.30421   0.00000  Uiso   1.00
N1517  N     0.09652   0.94860   0.65095   0.00000  Uiso   1.00
N1518  N     0.91324   0.80083   0.51340   0.00000  Uiso   1.00
C1519  C     0.47746   0.43209   0.93829   0.00000  Uiso   1.00
C1520  C     0.53344   0.50045   0.94739   0.00000  Uiso   1.00
C1521  C     0.85705   0.21736   0.62393   0.00000  Uiso   1.00
C1522  C     0.91483   0.27626   0.63118   0.00000  Uiso   1.00
C1523  C     0.99186   0.38114   0.64571   0.00000  Uiso   1.00
C1524  C     0.48565   0.37787   0.95109   0.00000  Uiso   1.00
C1525  C     0.43574   0.32505   0.96407   0.00000  Uiso   1.00
C1526  C     0.45329   0.28076   0.97443   0.00000  Uiso   1.00
C1527  C     0.45610   0.19529   0.99469   0.00000  Uiso   1.00
C1528  C     0.49544   0.42839   0.91318   0.00000  Uiso   1.00
C1529  C     0.45376   0.41803   0.89428   0.00000  Uiso   1.00
C1530  C     0.47955   0.41626   0.87273   0.00000  Uiso   1.00
C1531  C     0.49756   0.40925   0.83413   0.00000  Uiso   1.00
C1532  C     0.59737   0.44734   0.93361   0.00000  Uiso   1.00
C1533  C     0.59857   0.50873   0.94485   0.00000  Uiso   1.00
C1534  C     0.65639   0.56757   0.95208   0.00000  Uiso   1.00
C1535  C     0.64675   0.61790   0.96196   0.00000  Uiso   1.00
C1536  C     0.55078   0.38615   0.94855   0.00000  Uiso   1.00
C1537  C     0.56841   0.34192   0.95889   0.00000  Uiso   1.00
C1538  C     0.51854   0.28906   0.97188   0.00000  Uiso   1.00
C1539  C     0.56058   0.43668   0.91064   0.00000  Uiso   1.00
C1540  C     0.58643   0.43491   0.88911   0.00000  Uiso   1.00
C1541  C     0.54480   0.42456   0.87018   0.00000  Uiso   1.00
H1542  H     0.42675   0.42563   0.94027   0.00000  Uiso   1.00
H1543  H     0.80664   0.21093   0.62589   0.00000  Uiso   1.00
H1544  H     0.38534   0.31865   0.96603   0.00000  Uiso   1.00
H1545  H     0.40336   0.41162   0.89626   0.00000  Uiso   1.00
H1546  H     0.88698   0.34610   0.64580   0.00000  Uiso   1.00
H1547  H     0.36816   0.20369   0.99347   0.00000  Uiso   1.00
H1548  H     0.40615   0.39975   0.84635   0.00000  Uiso   1.00
H1549  H     0.64808   0.45379   0.93163   0.00000  Uiso   1.00
H1550  H     0.70678   0.57397   0.95011   0.00000  Uiso   1.00
H1551  H     0.61882   0.34835   0.95692   0.00000  Uiso   1.00
H1552  H     0.63684   0.44133   0.88715   0.00000  Uiso   1.00
H1553  H     0.74314   0.70354   0.97174   0.00000  Uiso   1.00
H1554  H     0.55765   0.22780   0.98608   0.00000  Uiso   1.00
H1555  H     0.59565   0.42386   0.83895   0.00000  Uiso   1.00
O1556  O     0.01635   0.43669   0.65443   0.00000  Uiso   1.00
O1557  O     0.43966   0.14587   0.00657   0.00000  Uiso   1.00
O1558  O     0.48951   0.40310   0.81354   0.00000  Uiso   1.00
N1559  N     0.92352   0.33528   0.64152   0.00000  Uiso   1.00
N1560  N     0.41677   0.22384   0.98826   0.00000  Uiso   1.00
N1561  N     0.45229   0.40712   0.85071   0.00000  Uiso   1.00
N1562  N     0.02549   0.34826   0.63754   0.00000  Uiso   1.00
N1563  N     0.51874   0.23681   0.98428   0.00000  Uiso   1.00
N1564  N     0.55426   0.42009   0.84673   0.00000  Uiso   1.00
C1565  C     0.14412   0.76542   0.27162   0.00000  Uiso   1.00
C1566  C     0.20011   0.83378   0.28072   0.00000  Uiso   1.00
C1567  C     0.52372   0.55070   0.95726   0.00000  Uiso   1.00
C1568  C     0.58150   0.60960   0.96451   0.00000  Uiso   1.00
C1569  C     0.65853   0.71447   0.97904   0.00000  Uiso   1.00
C1570  C     0.15232   0.71120   0.28442   0.00000  Uiso   1.00
C1571  C     0.10241   0.65838   0.29740   0.00000  Uiso   1.00
C1572  C     0.11996   0.61409   0.30776   0.00000  Uiso   1.00
C1573  C     0.12277   0.52863   0.32802   0.00000  Uiso   1.00
C1574  C     0.16211   0.76172   0.24651   0.00000  Uiso   1.00
C1575  C     0.12043   0.75137   0.22762   0.00000  Uiso   1.00
C1576  C     0.14622   0.74960   0.20606   0.00000  Uiso   1.00
C1577  C     0.16423   0.74258   0.16746   0.00000  Uiso   1.00
C1578  C     0.26403   0.78067   0.26694   0.00000  Uiso   1.00
C1579  C     0.26524   0.84206   0.27818   0.00000  Uiso   1.00
C1580  C     0.32305   0.90091   0.28542   0.00000  Uiso   1.00
C1581  C     0.31342   0.95123   0.29530   0.00000  Uiso   1.00
C1582  C     0.21745   0.71948   0.28188   0.00000  Uiso   1.00
C1583  C     0.23508   0.67526   0.29222   0.00000  Uiso   1.00
C1584  C     0.18521   0.62239   0.30522   0.00000  Uiso   1.00
C1585  C     0.22724   0.77001   0.24397   0.00000  Uiso   1.00
C1586  C     0.25310   0.76825   0.22244   0.00000  Uiso   1.00
C1587  C     0.21146   0.75789   0.20352   0.00000  Uiso   1.00
H1588  H     0.09341   0.75897   0.27360   0.00000  Uiso   1.00
H1589  H     0.47330   0.54426   0.95923   0.00000  Uiso   1.00
H1590  H     0.05201   0.65198   0.29936   0.00000  Uiso   1.00
H1591  H     0.07003   0.74496   0.22959   0.00000  Uiso   1.00
H1592  H     0.55364   0.67943   0.97913   0.00000  Uiso   1.00
H1593  H     0.03482   0.53703   0.32681   0.00000  Uiso   1.00
H1594  H     0.07282   0.73308   0.17968   0.00000  Uiso   1.00
H1595  H     0.31474   0.78712   0.26496   0.00000  Uiso   1.00
H1596  H     0.37345   0.90730   0.28345   0.00000  Uiso   1.00
H1597  H     0.28548   0.68168   0.29025   0.00000  Uiso   1.00
H1598  H     0.30350   0.77466   0.22048   0.00000  Uiso   1.00
H1599  H     0.40981   0.03687   0.30507   0.00000  Uiso   1.00
H1600  H     0.22432   0.56113   0.31941   0.00000  Uiso   1.00
H1601  H     0.26232   0.75719   0.17228   0.00000  Uiso   1.00
O1602  O     0.68302   0.77003   0.98776   0.00000  Uiso   1.00
O1603  O     0.10633   0.47920   0.33990   0.00000  Uiso   1.00
O1604  O     0.15618   0.73643   0.14688   0.00000  Uiso   1.00
N1605  N     0.59019   0.66862   0.97485   0.00000  Uiso   1.00
N1606  N     0.08344   0.55717   0.32160   0.00000  Uiso   1.00
N1607  N     0.11895   0.74045   0.18404   0.00000  Uiso   1.00
N1608  N     0.69216   0.68159   0.97087   0.00000  Uiso   1.00
N1609  N     0.18541   0.57014   0.31762   0.00000  Uiso   1.00
N1610  N     0.22092   0.75342   0.18006   0.00000  Uiso   1.00
C1611  C     0.81079   0.09875   0.60495   0.00000  Uiso   1.00
C1612  C     0.86678   0.16711   0.61405   0.00000  Uiso   1.00
C1613  C     0.19039   0.88403   0.29059   0.00000  Uiso   1.00
C1614  C     0.24817   0.94293   0.29784   0.00000  Uiso   1.00
C1615  C     0.32519   0.04780   0.31237   0.00000  Uiso   1.00
C1616  C     0.81899   0.04453   0.61775   0.00000  Uiso   1.00
C1617  C     0.76907   0.99171   0.63073   0.00000  Uiso   1.00
C1618  C     0.78662   0.94742   0.64110   0.00000  Uiso   1.00
C1619  C     0.78944   0.86196   0.66136   0.00000  Uiso   1.00
C1620  C     0.82878   0.09506   0.57985   0.00000  Uiso   1.00
C1621  C     0.78709   0.08470   0.56095   0.00000  Uiso   1.00
C1622  C     0.81288   0.08293   0.53940   0.00000  Uiso   1.00
C1623  C     0.83090   0.07591   0.50080   0.00000  Uiso   1.00
C1624  C     0.93070   0.11400   0.60027   0.00000  Uiso   1.00
C1625  C     0.93191   0.17540   0.61151   0.00000  Uiso   1.00
C1626  C     0.98972   0.23424   0.61875   0.00000  Uiso   1.00
C1627  C     0.98008   0.28457   0.62863   0.00000  Uiso   1.00
C1628  C     0.88411   0.05282   0.61521   0.00000  Uiso   1.00
C1629  C     0.90174   0.00859   0.62556   0.00000  Uiso   1.00
C1630  C     0.85187   0.95572   0.63855   0.00000  Uiso   1.00
C1631  C     0.89391   0.10334   0.57730   0.00000  Uiso   1.00
C1632  C     0.91977   0.10158   0.55577   0.00000  Uiso   1.00
C1633  C     0.87813   0.09123   0.53685   0.00000  Uiso   1.00
H1634  H     0.76008   0.09230   0.60693   0.00000  Uiso   1.00
H1635  H     0.13997   0.87760   0.29256   0.00000  Uiso   1.00
H1636  H     0.71867   0.98531   0.63270   0.00000  Uiso   1.00
H1637  H     0.73669   0.07829   0.56293   0.00000  Uiso   1.00
H1638  H     0.22031   0.01276   0.31247   0.00000  Uiso   1.00
H1639  H     0.70149   0.87036   0.66014   0.00000  Uiso   1.00
H1640  H     0.73949   0.06642   0.51301   0.00000  Uiso   1.00
H1641  H     0.98141   0.12045   0.59829   0.00000  Uiso   1.00
H1642  H     0.04012   0.24063   0.61678   0.00000  Uiso   1.00
H1643  H     0.95215   0.01502   0.62358   0.00000  Uiso   1.00
H1644  H     0.97017   0.10799   0.55381   0.00000  Uiso   1.00
H1645  H     0.07648   0.37021   0.63840   0.00000  Uiso   1.00
H1646  H     0.89099   0.89446   0.65274   0.00000  Uiso   1.00
H1647  H     0.92899   0.09053   0.50562   0.00000  Uiso   1.00
O1648  O     0.34968   0.10336   0.32109   0.00000  Uiso   1.00
O1649  O     0.77299   0.81254   0.67324   0.00000  Uiso   1.00
O1650  O     0.82285   0.06976   0.48021   0.00000  Uiso   1.00
N1651  N     0.25686   0.00195   0.30818   0.00000  Uiso   1.00
N1652  N     0.75010   0.89050   0.65493   0.00000  Uiso   1.00
N1653  N     0.78562   0.07378   0.51738   0.00000  Uiso   1.00
N1654  N     0.35882   0.01492   0.30421   0.00000  Uiso   1.00
N1655  N     0.85207   0.90348   0.65095   0.00000  Uiso   1.00
N1656  N     0.88759   0.08676   0.51340   0.00000  Uiso   1.00
