data_job_03084
_audit_creation_date              2018-12-19
_audit_creation_method            'Materials Studio'
_symmetry_space_group_name_H-M    'P1'
_symmetry_Int_Tables_number       1
_symmetry_cell_setting            triclinic
loop_
_symmetry_equiv_pos_as_xyz
  x,y,z
_cell_length_a                    19.3287
_cell_length_b                    19.3287
_cell_length_c                    38.7056
_cell_angle_alpha                 90.0000
_cell_angle_beta                  90.0000
_cell_angle_gamma                 90.0000
loop_
_atom_site_label
_atom_site_type_symbol
_atom_site_fract_x
_atom_site_fract_y
_atom_site_fract_z
_atom_site_U_iso_or_equiv
_atom_site_adp_type
_atom_site_occupancy
C1     C     0.27625   0.77206   0.72450   0.00000  Uiso   1.00
C2     C     0.24984   0.81465   0.75493   0.00000  Uiso   1.00
C3     C     0.18586   0.80726   0.77078   0.00000  Uiso   1.00
C4     C     0.17146   0.85122   0.79822   0.00000  Uiso   1.00
C5     C     0.12315   0.90984   0.84376   0.00000  Uiso   1.00
C6     C     0.29495   0.82398   0.69634   0.00000  Uiso   1.00
C7     C     0.26891   0.82440   0.66293   0.00000  Uiso   1.00
C8     C     0.29249   0.87621   0.64105   0.00000  Uiso   1.00
C9     C     0.31426   0.94927   0.59562   0.00000  Uiso   1.00
C10    C     0.34438   0.74009   0.73631   0.00000  Uiso   1.00
C11    C     0.35991   0.66999   0.73650   0.00000  Uiso   1.00
C12    C     0.42512   0.65117   0.74826   0.00000  Uiso   1.00
C13    C     0.52363   0.59399   0.76489   0.00000  Uiso   1.00
C14    C     0.36443   0.86330   0.74505   0.00000  Uiso   1.00
C15    C     0.29774   0.86421   0.76609   0.00000  Uiso   1.00
C16    C     0.28343   0.90820   0.79352   0.00000  Uiso   1.00
C17    C     0.21944   0.90086   0.80940   0.00000  Uiso   1.00
C18    C     0.34285   0.87353   0.70750   0.00000  Uiso   1.00
C19    C     0.36647   0.92534   0.68566   0.00000  Uiso   1.00
C20    C     0.34047   0.92586   0.65223   0.00000  Uiso   1.00
C21    C     0.39228   0.78965   0.74748   0.00000  Uiso   1.00
C22    C     0.45748   0.77093   0.75924   0.00000  Uiso   1.00
C23    C     0.47310   0.70082   0.75944   0.00000  Uiso   1.00
H24    H     0.23896   0.73349   0.71581   0.00000  Uiso   1.00
H25    H     0.14881   0.76890   0.76213   0.00000  Uiso   1.00
H26    H     0.23185   0.78605   0.65430   0.00000  Uiso   1.00
H27    H     0.32283   0.63166   0.72786   0.00000  Uiso   1.00
H28    H     0.06997   0.83004   0.81840   0.00000  Uiso   1.00
H29    H     0.24508   0.86617   0.59102   0.00000  Uiso   1.00
H30    H     0.43695   0.54061   0.74614   0.00000  Uiso   1.00
H31    H     0.40173   0.90188   0.75374   0.00000  Uiso   1.00
H32    H     0.32050   0.94654   0.80215   0.00000  Uiso   1.00
H33    H     0.40354   0.96368   0.69431   0.00000  Uiso   1.00
H34    H     0.49453   0.80929   0.76787   0.00000  Uiso   1.00
H35    H     0.20932   0.97422   0.85088   0.00000  Uiso   1.00
H36    H     0.38444   0.01035   0.62350   0.00000  Uiso   1.00
H37    H     0.57630   0.68479   0.77861   0.00000  Uiso   1.00
O38    O     0.08327   0.92849   0.86579   0.00000  Uiso   1.00
O39    O     0.31302   0.97588   0.56748   0.00000  Uiso   1.00
O40    O     0.56474   0.54875   0.77099   0.00000  Uiso   1.00
N41    N     0.11392   0.85784   0.81941   0.00000  Uiso   1.00
N42    N     0.27763   0.89162   0.60682   0.00000  Uiso   1.00
N43    N     0.45701   0.58725   0.75183   0.00000  Uiso   1.00
N44    N     0.18891   0.93542   0.83688   0.00000  Uiso   1.00
N45    N     0.35262   0.96920   0.62430   0.00000  Uiso   1.00
N46    N     0.53200   0.66483   0.76931   0.00000  Uiso   1.00
C47    C     0.77625   0.27206   0.22450   0.00000  Uiso   1.00
C48    C     0.74984   0.31465   0.25493   0.00000  Uiso   1.00
C49    C     0.68586   0.30726   0.27078   0.00000  Uiso   1.00
C50    C     0.67146   0.35122   0.29822   0.00000  Uiso   1.00
C51    C     0.62315   0.40984   0.34376   0.00000  Uiso   1.00
C52    C     0.79495   0.32398   0.19634   0.00000  Uiso   1.00
C53    C     0.76891   0.32440   0.16293   0.00000  Uiso   1.00
C54    C     0.79249   0.37621   0.14105   0.00000  Uiso   1.00
C55    C     0.81426   0.44927   0.09562   0.00000  Uiso   1.00
C56    C     0.84438   0.24009   0.23631   0.00000  Uiso   1.00
C57    C     0.85991   0.16999   0.23650   0.00000  Uiso   1.00
C58    C     0.92512   0.15117   0.24826   0.00000  Uiso   1.00
C59    C     0.02363   0.09399   0.26489   0.00000  Uiso   1.00
C60    C     0.86443   0.36330   0.24505   0.00000  Uiso   1.00
C61    C     0.79774   0.36421   0.26609   0.00000  Uiso   1.00
C62    C     0.78343   0.40820   0.29352   0.00000  Uiso   1.00
C63    C     0.71944   0.40086   0.30940   0.00000  Uiso   1.00
C64    C     0.84285   0.37353   0.20750   0.00000  Uiso   1.00
C65    C     0.86647   0.42534   0.18566   0.00000  Uiso   1.00
C66    C     0.84047   0.42586   0.15223   0.00000  Uiso   1.00
C67    C     0.89228   0.28965   0.24748   0.00000  Uiso   1.00
C68    C     0.95748   0.27093   0.25924   0.00000  Uiso   1.00
C69    C     0.97310   0.20082   0.25944   0.00000  Uiso   1.00
H70    H     0.73896   0.23349   0.21581   0.00000  Uiso   1.00
H71    H     0.64881   0.26890   0.26213   0.00000  Uiso   1.00
H72    H     0.73185   0.28605   0.15430   0.00000  Uiso   1.00
H73    H     0.82283   0.13166   0.22786   0.00000  Uiso   1.00
H74    H     0.56997   0.33004   0.31840   0.00000  Uiso   1.00
H75    H     0.74508   0.36617   0.09102   0.00000  Uiso   1.00
H76    H     0.93695   0.04061   0.24614   0.00000  Uiso   1.00
H77    H     0.90173   0.40188   0.25374   0.00000  Uiso   1.00
H78    H     0.82050   0.44654   0.30215   0.00000  Uiso   1.00
H79    H     0.90354   0.46368   0.19431   0.00000  Uiso   1.00
H80    H     0.99453   0.30929   0.26787   0.00000  Uiso   1.00
H81    H     0.70932   0.47422   0.35088   0.00000  Uiso   1.00
H82    H     0.88444   0.51035   0.12350   0.00000  Uiso   1.00
H83    H     0.07630   0.18479   0.27861   0.00000  Uiso   1.00
O84    O     0.58327   0.42849   0.36579   0.00000  Uiso   1.00
O85    O     0.81302   0.47588   0.06748   0.00000  Uiso   1.00
O86    O     0.06474   0.04875   0.27099   0.00000  Uiso   1.00
N87    N     0.61392   0.35784   0.31941   0.00000  Uiso   1.00
N88    N     0.77763   0.39162   0.10682   0.00000  Uiso   1.00
N89    N     0.95701   0.08725   0.25183   0.00000  Uiso   1.00
N90    N     0.68891   0.43542   0.33688   0.00000  Uiso   1.00
N91    N     0.85262   0.46920   0.12430   0.00000  Uiso   1.00
N92    N     0.03200   0.16483   0.26931   0.00000  Uiso   1.00
C93    C     0.72375   0.22794   0.72450   0.00000  Uiso   1.00
C94    C     0.75016   0.18535   0.75493   0.00000  Uiso   1.00
C95    C     0.81414   0.19274   0.77078   0.00000  Uiso   1.00
C96    C     0.82854   0.14878   0.79822   0.00000  Uiso   1.00
C97    C     0.87685   0.09016   0.84376   0.00000  Uiso   1.00
C98    C     0.70505   0.17602   0.69634   0.00000  Uiso   1.00
C99    C     0.73109   0.17560   0.66293   0.00000  Uiso   1.00
C100   C     0.70751   0.12379   0.64105   0.00000  Uiso   1.00
C101   C     0.68574   0.05073   0.59562   0.00000  Uiso   1.00
C102   C     0.65562   0.25991   0.73631   0.00000  Uiso   1.00
C103   C     0.64009   0.33001   0.73650   0.00000  Uiso   1.00
C104   C     0.57488   0.34883   0.74826   0.00000  Uiso   1.00
C105   C     0.47637   0.40601   0.76489   0.00000  Uiso   1.00
C106   C     0.63557   0.13670   0.74505   0.00000  Uiso   1.00
C107   C     0.70226   0.13579   0.76609   0.00000  Uiso   1.00
C108   C     0.71657   0.09180   0.79352   0.00000  Uiso   1.00
C109   C     0.78056   0.09914   0.80940   0.00000  Uiso   1.00
C110   C     0.65715   0.12647   0.70750   0.00000  Uiso   1.00
C111   C     0.63353   0.07466   0.68566   0.00000  Uiso   1.00
C112   C     0.65953   0.07414   0.65223   0.00000  Uiso   1.00
C113   C     0.60772   0.21035   0.74748   0.00000  Uiso   1.00
C114   C     0.54252   0.22907   0.75924   0.00000  Uiso   1.00
C115   C     0.52690   0.29918   0.75944   0.00000  Uiso   1.00
H116   H     0.76104   0.26651   0.71581   0.00000  Uiso   1.00
H117   H     0.85119   0.23110   0.76213   0.00000  Uiso   1.00
H118   H     0.76815   0.21395   0.65430   0.00000  Uiso   1.00
H119   H     0.67717   0.36834   0.72786   0.00000  Uiso   1.00
H120   H     0.93003   0.16996   0.81840   0.00000  Uiso   1.00
H121   H     0.75492   0.13383   0.59102   0.00000  Uiso   1.00
H122   H     0.56305   0.45939   0.74614   0.00000  Uiso   1.00
H123   H     0.59827   0.09812   0.75374   0.00000  Uiso   1.00
H124   H     0.67950   0.05346   0.80215   0.00000  Uiso   1.00
H125   H     0.59646   0.03632   0.69431   0.00000  Uiso   1.00
H126   H     0.50547   0.19071   0.76787   0.00000  Uiso   1.00
H127   H     0.79068   0.02578   0.85088   0.00000  Uiso   1.00
H128   H     0.61556   0.98965   0.62350   0.00000  Uiso   1.00
H129   H     0.42370   0.31521   0.77861   0.00000  Uiso   1.00
O130   O     0.91673   0.07151   0.86579   0.00000  Uiso   1.00
O131   O     0.68698   0.02412   0.56748   0.00000  Uiso   1.00
O132   O     0.43526   0.45125   0.77099   0.00000  Uiso   1.00
N133   N     0.88608   0.14216   0.81941   0.00000  Uiso   1.00
N134   N     0.72237   0.10838   0.60682   0.00000  Uiso   1.00
N135   N     0.54299   0.41275   0.75183   0.00000  Uiso   1.00
N136   N     0.81109   0.06458   0.83688   0.00000  Uiso   1.00
N137   N     0.64738   0.03080   0.62430   0.00000  Uiso   1.00
N138   N     0.46800   0.33517   0.76931   0.00000  Uiso   1.00
C139   C     0.22375   0.72794   0.22450   0.00000  Uiso   1.00
C140   C     0.25016   0.68535   0.25493   0.00000  Uiso   1.00
C141   C     0.31414   0.69274   0.27078   0.00000  Uiso   1.00
C142   C     0.32854   0.64878   0.29822   0.00000  Uiso   1.00
C143   C     0.37685   0.59016   0.34376   0.00000  Uiso   1.00
C144   C     0.20505   0.67602   0.19634   0.00000  Uiso   1.00
C145   C     0.23109   0.67560   0.16293   0.00000  Uiso   1.00
C146   C     0.20751   0.62379   0.14105   0.00000  Uiso   1.00
C147   C     0.18574   0.55073   0.09562   0.00000  Uiso   1.00
C148   C     0.15562   0.75991   0.23631   0.00000  Uiso   1.00
C149   C     0.14009   0.83001   0.23650   0.00000  Uiso   1.00
C150   C     0.07488   0.84883   0.24826   0.00000  Uiso   1.00
C151   C     0.97637   0.90601   0.26489   0.00000  Uiso   1.00
C152   C     0.13557   0.63670   0.24505   0.00000  Uiso   1.00
C153   C     0.20226   0.63579   0.26609   0.00000  Uiso   1.00
C154   C     0.21657   0.59180   0.29352   0.00000  Uiso   1.00
C155   C     0.28056   0.59914   0.30940   0.00000  Uiso   1.00
C156   C     0.15715   0.62647   0.20750   0.00000  Uiso   1.00
C157   C     0.13353   0.57466   0.18566   0.00000  Uiso   1.00
C158   C     0.15953   0.57414   0.15223   0.00000  Uiso   1.00
C159   C     0.10772   0.71035   0.24748   0.00000  Uiso   1.00
C160   C     0.04252   0.72907   0.25924   0.00000  Uiso   1.00
C161   C     0.02690   0.79918   0.25944   0.00000  Uiso   1.00
H162   H     0.26104   0.76651   0.21581   0.00000  Uiso   1.00
H163   H     0.35119   0.73110   0.26213   0.00000  Uiso   1.00
H164   H     0.26815   0.71395   0.15430   0.00000  Uiso   1.00
H165   H     0.17717   0.86834   0.22786   0.00000  Uiso   1.00
H166   H     0.43003   0.66996   0.31840   0.00000  Uiso   1.00
H167   H     0.25492   0.63383   0.09102   0.00000  Uiso   1.00
H168   H     0.06305   0.95939   0.24614   0.00000  Uiso   1.00
H169   H     0.09827   0.59812   0.25374   0.00000  Uiso   1.00
H170   H     0.17950   0.55346   0.30215   0.00000  Uiso   1.00
H171   H     0.09646   0.53632   0.19431   0.00000  Uiso   1.00
H172   H     0.00547   0.69071   0.26787   0.00000  Uiso   1.00
H173   H     0.29068   0.52578   0.35088   0.00000  Uiso   1.00
H174   H     0.11556   0.48965   0.12350   0.00000  Uiso   1.00
H175   H     0.92370   0.81521   0.27861   0.00000  Uiso   1.00
O176   O     0.41673   0.57151   0.36579   0.00000  Uiso   1.00
O177   O     0.18698   0.52412   0.06748   0.00000  Uiso   1.00
O178   O     0.93526   0.95125   0.27099   0.00000  Uiso   1.00
N179   N     0.38608   0.64216   0.31941   0.00000  Uiso   1.00
N180   N     0.22237   0.60838   0.10682   0.00000  Uiso   1.00
N181   N     0.04299   0.91275   0.25183   0.00000  Uiso   1.00
N182   N     0.31109   0.56458   0.33688   0.00000  Uiso   1.00
N183   N     0.14738   0.53080   0.12430   0.00000  Uiso   1.00
N184   N     0.96800   0.83517   0.26931   0.00000  Uiso   1.00
C185   C     0.77206   0.72375   0.27550   0.00000  Uiso   1.00
C186   C     0.81465   0.75016   0.24507   0.00000  Uiso   1.00
C187   C     0.80726   0.81414   0.22922   0.00000  Uiso   1.00
C188   C     0.85122   0.82854   0.20178   0.00000  Uiso   1.00
C189   C     0.90984   0.87685   0.15624   0.00000  Uiso   1.00
C190   C     0.82398   0.70505   0.30366   0.00000  Uiso   1.00
C191   C     0.82440   0.73109   0.33707   0.00000  Uiso   1.00
C192   C     0.87621   0.70751   0.35895   0.00000  Uiso   1.00
C193   C     0.94927   0.68574   0.40438   0.00000  Uiso   1.00
C194   C     0.74009   0.65562   0.26369   0.00000  Uiso   1.00
C195   C     0.66999   0.64009   0.26350   0.00000  Uiso   1.00
C196   C     0.65117   0.57488   0.25174   0.00000  Uiso   1.00
C197   C     0.59399   0.47637   0.23511   0.00000  Uiso   1.00
C198   C     0.86330   0.63557   0.25495   0.00000  Uiso   1.00
C199   C     0.86421   0.70226   0.23391   0.00000  Uiso   1.00
C200   C     0.90820   0.71657   0.20648   0.00000  Uiso   1.00
C201   C     0.90086   0.78056   0.19060   0.00000  Uiso   1.00
C202   C     0.87353   0.65715   0.29250   0.00000  Uiso   1.00
C203   C     0.92534   0.63353   0.31434   0.00000  Uiso   1.00
C204   C     0.92586   0.65953   0.34777   0.00000  Uiso   1.00
C205   C     0.78965   0.60772   0.25252   0.00000  Uiso   1.00
C206   C     0.77093   0.54252   0.24076   0.00000  Uiso   1.00
C207   C     0.70082   0.52690   0.24056   0.00000  Uiso   1.00
H208   H     0.73349   0.76104   0.28419   0.00000  Uiso   1.00
H209   H     0.76890   0.85119   0.23787   0.00000  Uiso   1.00
H210   H     0.78605   0.76815   0.34570   0.00000  Uiso   1.00
H211   H     0.63166   0.67717   0.27214   0.00000  Uiso   1.00
H212   H     0.83004   0.93003   0.18160   0.00000  Uiso   1.00
H213   H     0.86617   0.75492   0.40898   0.00000  Uiso   1.00
H214   H     0.54061   0.56305   0.25386   0.00000  Uiso   1.00
H215   H     0.90188   0.59827   0.24626   0.00000  Uiso   1.00
H216   H     0.94654   0.67950   0.19785   0.00000  Uiso   1.00
H217   H     0.96368   0.59646   0.30569   0.00000  Uiso   1.00
H218   H     0.80929   0.50547   0.23213   0.00000  Uiso   1.00
H219   H     0.97422   0.79068   0.14912   0.00000  Uiso   1.00
H220   H     0.01035   0.61556   0.37650   0.00000  Uiso   1.00
H221   H     0.68479   0.42370   0.22139   0.00000  Uiso   1.00
O222   O     0.92849   0.91673   0.13421   0.00000  Uiso   1.00
O223   O     0.97588   0.68698   0.43252   0.00000  Uiso   1.00
O224   O     0.54875   0.43526   0.22901   0.00000  Uiso   1.00
N225   N     0.85784   0.88608   0.18059   0.00000  Uiso   1.00
N226   N     0.89162   0.72237   0.39318   0.00000  Uiso   1.00
N227   N     0.58725   0.54299   0.24817   0.00000  Uiso   1.00
N228   N     0.93542   0.81109   0.16312   0.00000  Uiso   1.00
N229   N     0.96920   0.64738   0.37570   0.00000  Uiso   1.00
N230   N     0.66483   0.46800   0.23069   0.00000  Uiso   1.00
C231   C     0.27206   0.22375   0.77550   0.00000  Uiso   1.00
C232   C     0.31465   0.25016   0.74507   0.00000  Uiso   1.00
C233   C     0.30726   0.31414   0.72922   0.00000  Uiso   1.00
C234   C     0.35122   0.32854   0.70178   0.00000  Uiso   1.00
C235   C     0.40984   0.37685   0.65624   0.00000  Uiso   1.00
C236   C     0.32398   0.20505   0.80366   0.00000  Uiso   1.00
C237   C     0.32440   0.23109   0.83707   0.00000  Uiso   1.00
C238   C     0.37621   0.20751   0.85895   0.00000  Uiso   1.00
C239   C     0.44927   0.18574   0.90438   0.00000  Uiso   1.00
C240   C     0.24009   0.15562   0.76369   0.00000  Uiso   1.00
C241   C     0.16999   0.14009   0.76350   0.00000  Uiso   1.00
C242   C     0.15117   0.07488   0.75174   0.00000  Uiso   1.00
C243   C     0.09399   0.97637   0.73511   0.00000  Uiso   1.00
C244   C     0.36330   0.13557   0.75495   0.00000  Uiso   1.00
C245   C     0.36421   0.20226   0.73391   0.00000  Uiso   1.00
C246   C     0.40820   0.21657   0.70648   0.00000  Uiso   1.00
C247   C     0.40086   0.28056   0.69060   0.00000  Uiso   1.00
C248   C     0.37353   0.15715   0.79250   0.00000  Uiso   1.00
C249   C     0.42534   0.13353   0.81434   0.00000  Uiso   1.00
C250   C     0.42586   0.15953   0.84777   0.00000  Uiso   1.00
C251   C     0.28965   0.10772   0.75252   0.00000  Uiso   1.00
C252   C     0.27093   0.04252   0.74076   0.00000  Uiso   1.00
C253   C     0.20082   0.02690   0.74056   0.00000  Uiso   1.00
H254   H     0.23349   0.26104   0.78419   0.00000  Uiso   1.00
H255   H     0.26890   0.35119   0.73787   0.00000  Uiso   1.00
H256   H     0.28605   0.26815   0.84570   0.00000  Uiso   1.00
H257   H     0.13166   0.17717   0.77214   0.00000  Uiso   1.00
H258   H     0.33004   0.43003   0.68160   0.00000  Uiso   1.00
H259   H     0.36617   0.25492   0.90898   0.00000  Uiso   1.00
H260   H     0.04061   0.06305   0.75386   0.00000  Uiso   1.00
H261   H     0.40188   0.09827   0.74626   0.00000  Uiso   1.00
H262   H     0.44654   0.17950   0.69785   0.00000  Uiso   1.00
H263   H     0.46368   0.09646   0.80569   0.00000  Uiso   1.00
H264   H     0.30929   0.00547   0.73213   0.00000  Uiso   1.00
H265   H     0.47422   0.29068   0.64912   0.00000  Uiso   1.00
H266   H     0.51035   0.11556   0.87650   0.00000  Uiso   1.00
H267   H     0.18479   0.92370   0.72139   0.00000  Uiso   1.00
O268   O     0.42849   0.41673   0.63421   0.00000  Uiso   1.00
O269   O     0.47588   0.18698   0.93252   0.00000  Uiso   1.00
O270   O     0.04875   0.93526   0.72901   0.00000  Uiso   1.00
N271   N     0.35784   0.38608   0.68059   0.00000  Uiso   1.00
N272   N     0.39162   0.22237   0.89318   0.00000  Uiso   1.00
N273   N     0.08725   0.04299   0.74817   0.00000  Uiso   1.00
N274   N     0.43542   0.31109   0.66312   0.00000  Uiso   1.00
N275   N     0.46920   0.14738   0.87570   0.00000  Uiso   1.00
N276   N     0.16483   0.96800   0.73069   0.00000  Uiso   1.00
C277   C     0.22794   0.27625   0.27550   0.00000  Uiso   1.00
C278   C     0.18535   0.24984   0.24507   0.00000  Uiso   1.00
C279   C     0.19274   0.18586   0.22922   0.00000  Uiso   1.00
C280   C     0.14878   0.17146   0.20178   0.00000  Uiso   1.00
C281   C     0.09016   0.12315   0.15624   0.00000  Uiso   1.00
C282   C     0.17602   0.29495   0.30366   0.00000  Uiso   1.00
C283   C     0.17560   0.26891   0.33707   0.00000  Uiso   1.00
C284   C     0.12379   0.29249   0.35895   0.00000  Uiso   1.00
C285   C     0.05073   0.31426   0.40438   0.00000  Uiso   1.00
C286   C     0.25991   0.34438   0.26369   0.00000  Uiso   1.00
C287   C     0.33001   0.35991   0.26350   0.00000  Uiso   1.00
C288   C     0.34883   0.42512   0.25174   0.00000  Uiso   1.00
C289   C     0.40601   0.52363   0.23511   0.00000  Uiso   1.00
C290   C     0.13670   0.36443   0.25495   0.00000  Uiso   1.00
C291   C     0.13579   0.29774   0.23391   0.00000  Uiso   1.00
C292   C     0.09180   0.28343   0.20648   0.00000  Uiso   1.00
C293   C     0.09914   0.21944   0.19060   0.00000  Uiso   1.00
C294   C     0.12647   0.34285   0.29250   0.00000  Uiso   1.00
C295   C     0.07466   0.36647   0.31434   0.00000  Uiso   1.00
C296   C     0.07414   0.34047   0.34777   0.00000  Uiso   1.00
C297   C     0.21035   0.39228   0.25252   0.00000  Uiso   1.00
C298   C     0.22907   0.45748   0.24076   0.00000  Uiso   1.00
C299   C     0.29918   0.47310   0.24056   0.00000  Uiso   1.00
H300   H     0.26651   0.23896   0.28419   0.00000  Uiso   1.00
H301   H     0.23110   0.14881   0.23787   0.00000  Uiso   1.00
H302   H     0.21395   0.23185   0.34570   0.00000  Uiso   1.00
H303   H     0.36834   0.32283   0.27214   0.00000  Uiso   1.00
H304   H     0.16996   0.06997   0.18160   0.00000  Uiso   1.00
H305   H     0.13383   0.24508   0.40898   0.00000  Uiso   1.00
H306   H     0.45939   0.43695   0.25386   0.00000  Uiso   1.00
H307   H     0.09812   0.40173   0.24626   0.00000  Uiso   1.00
H308   H     0.05346   0.32050   0.19785   0.00000  Uiso   1.00
H309   H     0.03632   0.40354   0.30569   0.00000  Uiso   1.00
H310   H     0.19071   0.49453   0.23213   0.00000  Uiso   1.00
H311   H     0.02578   0.20932   0.14912   0.00000  Uiso   1.00
H312   H     0.98965   0.38444   0.37650   0.00000  Uiso   1.00
H313   H     0.31521   0.57630   0.22139   0.00000  Uiso   1.00
O314   O     0.07151   0.08327   0.13421   0.00000  Uiso   1.00
O315   O     0.02412   0.31302   0.43252   0.00000  Uiso   1.00
O316   O     0.45125   0.56474   0.22901   0.00000  Uiso   1.00
N317   N     0.14216   0.11392   0.18059   0.00000  Uiso   1.00
N318   N     0.10838   0.27763   0.39318   0.00000  Uiso   1.00
N319   N     0.41275   0.45701   0.24817   0.00000  Uiso   1.00
N320   N     0.06458   0.18891   0.16312   0.00000  Uiso   1.00
N321   N     0.03080   0.35262   0.37570   0.00000  Uiso   1.00
N322   N     0.33517   0.53200   0.23069   0.00000  Uiso   1.00
C323   C     0.72794   0.77625   0.77550   0.00000  Uiso   1.00
C324   C     0.68535   0.74984   0.74507   0.00000  Uiso   1.00
C325   C     0.69274   0.68586   0.72922   0.00000  Uiso   1.00
C326   C     0.64878   0.67146   0.70178   0.00000  Uiso   1.00
C327   C     0.59016   0.62315   0.65624   0.00000  Uiso   1.00
C328   C     0.67602   0.79495   0.80366   0.00000  Uiso   1.00
C329   C     0.67560   0.76891   0.83707   0.00000  Uiso   1.00
C330   C     0.62379   0.79249   0.85895   0.00000  Uiso   1.00
C331   C     0.55073   0.81426   0.90438   0.00000  Uiso   1.00
C332   C     0.75991   0.84438   0.76369   0.00000  Uiso   1.00
C333   C     0.83001   0.85991   0.76350   0.00000  Uiso   1.00
C334   C     0.84883   0.92512   0.75174   0.00000  Uiso   1.00
C335   C     0.90601   0.02363   0.73511   0.00000  Uiso   1.00
C336   C     0.63670   0.86443   0.75495   0.00000  Uiso   1.00
C337   C     0.63579   0.79774   0.73391   0.00000  Uiso   1.00
C338   C     0.59180   0.78343   0.70648   0.00000  Uiso   1.00
C339   C     0.59914   0.71944   0.69060   0.00000  Uiso   1.00
C340   C     0.62647   0.84285   0.79250   0.00000  Uiso   1.00
C341   C     0.57466   0.86647   0.81434   0.00000  Uiso   1.00
C342   C     0.57414   0.84047   0.84777   0.00000  Uiso   1.00
C343   C     0.71035   0.89228   0.75252   0.00000  Uiso   1.00
C344   C     0.72907   0.95748   0.74076   0.00000  Uiso   1.00
C345   C     0.79918   0.97310   0.74056   0.00000  Uiso   1.00
H346   H     0.76651   0.73896   0.78419   0.00000  Uiso   1.00
H347   H     0.73110   0.64881   0.73787   0.00000  Uiso   1.00
H348   H     0.71395   0.73185   0.84570   0.00000  Uiso   1.00
H349   H     0.86834   0.82283   0.77214   0.00000  Uiso   1.00
H350   H     0.66996   0.56997   0.68160   0.00000  Uiso   1.00
H351   H     0.63383   0.74508   0.90898   0.00000  Uiso   1.00
H352   H     0.95939   0.93695   0.75386   0.00000  Uiso   1.00
H353   H     0.59812   0.90173   0.74626   0.00000  Uiso   1.00
H354   H     0.55346   0.82050   0.69785   0.00000  Uiso   1.00
H355   H     0.53632   0.90354   0.80569   0.00000  Uiso   1.00
H356   H     0.69071   0.99453   0.73213   0.00000  Uiso   1.00
H357   H     0.52578   0.70932   0.64912   0.00000  Uiso   1.00
H358   H     0.48965   0.88444   0.87650   0.00000  Uiso   1.00
H359   H     0.81521   0.07630   0.72139   0.00000  Uiso   1.00
O360   O     0.57151   0.58327   0.63421   0.00000  Uiso   1.00
O361   O     0.52412   0.81302   0.93252   0.00000  Uiso   1.00
O362   O     0.95125   0.06474   0.72901   0.00000  Uiso   1.00
N363   N     0.64216   0.61392   0.68059   0.00000  Uiso   1.00
N364   N     0.60838   0.77763   0.89318   0.00000  Uiso   1.00
N365   N     0.91275   0.95701   0.74817   0.00000  Uiso   1.00
N366   N     0.56458   0.68891   0.66312   0.00000  Uiso   1.00
N367   N     0.53080   0.85262   0.87570   0.00000  Uiso   1.00
N368   N     0.83517   0.03200   0.73069   0.00000  Uiso   1.00
C369   C     0.22375   0.77206   0.02550   0.00000  Uiso   1.00
C370   C     0.25016   0.81465   0.99507   0.00000  Uiso   1.00
C371   C     0.31414   0.80726   0.97922   0.00000  Uiso   1.00
C372   C     0.32854   0.85122   0.95178   0.00000  Uiso   1.00
C373   C     0.37685   0.90984   0.90624   0.00000  Uiso   1.00
C374   C     0.20505   0.82398   0.05366   0.00000  Uiso   1.00
C375   C     0.23109   0.82440   0.08707   0.00000  Uiso   1.00
C376   C     0.20751   0.87621   0.10895   0.00000  Uiso   1.00
C377   C     0.18574   0.94927   0.15438   0.00000  Uiso   1.00
C378   C     0.15562   0.74009   0.01369   0.00000  Uiso   1.00
C379   C     0.14009   0.66999   0.01350   0.00000  Uiso   1.00
C380   C     0.07488   0.65117   0.00174   0.00000  Uiso   1.00
C381   C     0.97637   0.59399   0.98511   0.00000  Uiso   1.00
C382   C     0.13557   0.86330   0.00495   0.00000  Uiso   1.00
C383   C     0.20226   0.86421   0.98391   0.00000  Uiso   1.00
C384   C     0.21657   0.90820   0.95648   0.00000  Uiso   1.00
C385   C     0.28056   0.90086   0.94060   0.00000  Uiso   1.00
C386   C     0.15715   0.87353   0.04250   0.00000  Uiso   1.00
C387   C     0.13353   0.92534   0.06434   0.00000  Uiso   1.00
C388   C     0.15953   0.92586   0.09777   0.00000  Uiso   1.00
C389   C     0.10772   0.78965   0.00252   0.00000  Uiso   1.00
C390   C     0.04252   0.77093   0.99076   0.00000  Uiso   1.00
C391   C     0.02690   0.70082   0.99056   0.00000  Uiso   1.00
H392   H     0.26104   0.73349   0.03419   0.00000  Uiso   1.00
H393   H     0.35119   0.76890   0.98787   0.00000  Uiso   1.00
H394   H     0.26815   0.78605   0.09570   0.00000  Uiso   1.00
H395   H     0.17717   0.63166   0.02214   0.00000  Uiso   1.00
H396   H     0.43003   0.83004   0.93160   0.00000  Uiso   1.00
H397   H     0.25492   0.86617   0.15898   0.00000  Uiso   1.00
H398   H     0.06305   0.54061   0.00386   0.00000  Uiso   1.00
H399   H     0.09827   0.90188   0.99626   0.00000  Uiso   1.00
H400   H     0.17950   0.94654   0.94785   0.00000  Uiso   1.00
H401   H     0.09646   0.96368   0.05569   0.00000  Uiso   1.00
H402   H     0.00547   0.80929   0.98213   0.00000  Uiso   1.00
H403   H     0.29068   0.97422   0.89912   0.00000  Uiso   1.00
H404   H     0.11556   0.01035   0.12650   0.00000  Uiso   1.00
H405   H     0.92370   0.68479   0.97139   0.00000  Uiso   1.00
O406   O     0.41673   0.92849   0.88421   0.00000  Uiso   1.00
O407   O     0.18698   0.97588   0.18252   0.00000  Uiso   1.00
O408   O     0.93526   0.54875   0.97901   0.00000  Uiso   1.00
N409   N     0.38608   0.85784   0.93059   0.00000  Uiso   1.00
N410   N     0.22237   0.89162   0.14318   0.00000  Uiso   1.00
N411   N     0.04299   0.58725   0.99817   0.00000  Uiso   1.00
N412   N     0.31109   0.93542   0.91312   0.00000  Uiso   1.00
N413   N     0.14738   0.96920   0.12570   0.00000  Uiso   1.00
N414   N     0.96800   0.66483   0.98069   0.00000  Uiso   1.00
C415   C     0.72375   0.27206   0.52550   0.00000  Uiso   1.00
C416   C     0.75016   0.31465   0.49507   0.00000  Uiso   1.00
C417   C     0.81414   0.30726   0.47922   0.00000  Uiso   1.00
C418   C     0.82854   0.35122   0.45178   0.00000  Uiso   1.00
C419   C     0.87685   0.40984   0.40624   0.00000  Uiso   1.00
C420   C     0.70505   0.32398   0.55366   0.00000  Uiso   1.00
C421   C     0.73109   0.32440   0.58707   0.00000  Uiso   1.00
C422   C     0.70751   0.37621   0.60895   0.00000  Uiso   1.00
C423   C     0.68574   0.44927   0.65438   0.00000  Uiso   1.00
C424   C     0.65562   0.24009   0.51369   0.00000  Uiso   1.00
C425   C     0.64009   0.16999   0.51350   0.00000  Uiso   1.00
C426   C     0.57488   0.15117   0.50174   0.00000  Uiso   1.00
C427   C     0.47637   0.09399   0.48511   0.00000  Uiso   1.00
C428   C     0.63557   0.36330   0.50495   0.00000  Uiso   1.00
C429   C     0.70226   0.36421   0.48391   0.00000  Uiso   1.00
C430   C     0.71657   0.40820   0.45648   0.00000  Uiso   1.00
C431   C     0.78056   0.40086   0.44060   0.00000  Uiso   1.00
C432   C     0.65715   0.37353   0.54250   0.00000  Uiso   1.00
C433   C     0.63353   0.42534   0.56434   0.00000  Uiso   1.00
C434   C     0.65953   0.42586   0.59777   0.00000  Uiso   1.00
C435   C     0.60772   0.28965   0.50252   0.00000  Uiso   1.00
C436   C     0.54252   0.27093   0.49076   0.00000  Uiso   1.00
C437   C     0.52690   0.20082   0.49056   0.00000  Uiso   1.00
H438   H     0.76104   0.23349   0.53419   0.00000  Uiso   1.00
H439   H     0.85119   0.26890   0.48787   0.00000  Uiso   1.00
H440   H     0.76815   0.28605   0.59570   0.00000  Uiso   1.00
H441   H     0.67717   0.13166   0.52214   0.00000  Uiso   1.00
H442   H     0.93003   0.33004   0.43160   0.00000  Uiso   1.00
H443   H     0.75492   0.36617   0.65898   0.00000  Uiso   1.00
H444   H     0.56305   0.04061   0.50386   0.00000  Uiso   1.00
H445   H     0.59827   0.40188   0.49626   0.00000  Uiso   1.00
H446   H     0.67950   0.44654   0.44785   0.00000  Uiso   1.00
H447   H     0.59646   0.46368   0.55569   0.00000  Uiso   1.00
H448   H     0.50547   0.30929   0.48213   0.00000  Uiso   1.00
H449   H     0.79068   0.47422   0.39912   0.00000  Uiso   1.00
H450   H     0.61556   0.51035   0.62650   0.00000  Uiso   1.00
H451   H     0.42370   0.18479   0.47139   0.00000  Uiso   1.00
O452   O     0.91673   0.42849   0.38421   0.00000  Uiso   1.00
O453   O     0.68698   0.47588   0.68252   0.00000  Uiso   1.00
O454   O     0.43526   0.04875   0.47901   0.00000  Uiso   1.00
N455   N     0.88608   0.35784   0.43059   0.00000  Uiso   1.00
N456   N     0.72237   0.39162   0.64318   0.00000  Uiso   1.00
N457   N     0.54299   0.08725   0.49817   0.00000  Uiso   1.00
N458   N     0.81109   0.43542   0.41312   0.00000  Uiso   1.00
N459   N     0.64738   0.46920   0.62570   0.00000  Uiso   1.00
N460   N     0.46800   0.16483   0.48069   0.00000  Uiso   1.00
C461   C     0.77625   0.22794   0.02550   0.00000  Uiso   1.00
C462   C     0.74984   0.18535   0.99507   0.00000  Uiso   1.00
C463   C     0.68586   0.19274   0.97922   0.00000  Uiso   1.00
C464   C     0.67146   0.14878   0.95178   0.00000  Uiso   1.00
C465   C     0.62315   0.09016   0.90624   0.00000  Uiso   1.00
C466   C     0.79495   0.17602   0.05366   0.00000  Uiso   1.00
C467   C     0.76891   0.17560   0.08707   0.00000  Uiso   1.00
C468   C     0.79249   0.12379   0.10895   0.00000  Uiso   1.00
C469   C     0.81426   0.05073   0.15438   0.00000  Uiso   1.00
C470   C     0.84438   0.25991   0.01369   0.00000  Uiso   1.00
C471   C     0.85991   0.33001   0.01350   0.00000  Uiso   1.00
C472   C     0.92512   0.34883   0.00174   0.00000  Uiso   1.00
C473   C     0.02363   0.40601   0.98511   0.00000  Uiso   1.00
C474   C     0.86443   0.13670   0.00495   0.00000  Uiso   1.00
C475   C     0.79774   0.13579   0.98391   0.00000  Uiso   1.00
C476   C     0.78343   0.09180   0.95648   0.00000  Uiso   1.00
C477   C     0.71944   0.09914   0.94060   0.00000  Uiso   1.00
C478   C     0.84285   0.12647   0.04250   0.00000  Uiso   1.00
C479   C     0.86647   0.07466   0.06434   0.00000  Uiso   1.00
C480   C     0.84047   0.07414   0.09777   0.00000  Uiso   1.00
C481   C     0.89228   0.21035   0.00252   0.00000  Uiso   1.00
C482   C     0.95748   0.22907   0.99076   0.00000  Uiso   1.00
C483   C     0.97310   0.29918   0.99056   0.00000  Uiso   1.00
H484   H     0.73896   0.26651   0.03419   0.00000  Uiso   1.00
H485   H     0.64881   0.23110   0.98787   0.00000  Uiso   1.00
H486   H     0.73185   0.21395   0.09570   0.00000  Uiso   1.00
H487   H     0.82283   0.36834   0.02214   0.00000  Uiso   1.00
H488   H     0.56997   0.16996   0.93160   0.00000  Uiso   1.00
H489   H     0.74508   0.13383   0.15898   0.00000  Uiso   1.00
H490   H     0.93695   0.45939   0.00386   0.00000  Uiso   1.00
H491   H     0.90173   0.09812   0.99626   0.00000  Uiso   1.00
H492   H     0.82050   0.05346   0.94785   0.00000  Uiso   1.00
H493   H     0.90354   0.03632   0.05569   0.00000  Uiso   1.00
H494   H     0.99453   0.19071   0.98213   0.00000  Uiso   1.00
H495   H     0.70932   0.02578   0.89912   0.00000  Uiso   1.00
H496   H     0.88444   0.98965   0.12650   0.00000  Uiso   1.00
H497   H     0.07630   0.31521   0.97139   0.00000  Uiso   1.00
O498   O     0.58327   0.07151   0.88421   0.00000  Uiso   1.00
O499   O     0.81302   0.02412   0.18252   0.00000  Uiso   1.00
O500   O     0.06474   0.45125   0.97901   0.00000  Uiso   1.00
N501   N     0.61392   0.14216   0.93059   0.00000  Uiso   1.00
N502   N     0.77763   0.10838   0.14318   0.00000  Uiso   1.00
N503   N     0.95701   0.41275   0.99817   0.00000  Uiso   1.00
N504   N     0.68891   0.06458   0.91312   0.00000  Uiso   1.00
N505   N     0.85262   0.03080   0.12570   0.00000  Uiso   1.00
N506   N     0.03200   0.33517   0.98069   0.00000  Uiso   1.00
C507   C     0.27625   0.72794   0.52550   0.00000  Uiso   1.00
C508   C     0.24984   0.68535   0.49507   0.00000  Uiso   1.00
C509   C     0.18586   0.69274   0.47922   0.00000  Uiso   1.00
C510   C     0.17146   0.64878   0.45178   0.00000  Uiso   1.00
C511   C     0.12315   0.59016   0.40624   0.00000  Uiso   1.00
C512   C     0.29495   0.67602   0.55366   0.00000  Uiso   1.00
C513   C     0.26891   0.67560   0.58707   0.00000  Uiso   1.00
C514   C     0.29249   0.62379   0.60895   0.00000  Uiso   1.00
C515   C     0.31426   0.55073   0.65438   0.00000  Uiso   1.00
C516   C     0.34438   0.75991   0.51369   0.00000  Uiso   1.00
C517   C     0.35991   0.83001   0.51350   0.00000  Uiso   1.00
C518   C     0.42512   0.84883   0.50174   0.00000  Uiso   1.00
C519   C     0.52363   0.90601   0.48511   0.00000  Uiso   1.00
C520   C     0.36443   0.63670   0.50495   0.00000  Uiso   1.00
C521   C     0.29774   0.63579   0.48391   0.00000  Uiso   1.00
C522   C     0.28343   0.59180   0.45648   0.00000  Uiso   1.00
C523   C     0.21944   0.59914   0.44060   0.00000  Uiso   1.00
C524   C     0.34285   0.62647   0.54250   0.00000  Uiso   1.00
C525   C     0.36647   0.57466   0.56434   0.00000  Uiso   1.00
C526   C     0.34047   0.57414   0.59777   0.00000  Uiso   1.00
C527   C     0.39228   0.71035   0.50252   0.00000  Uiso   1.00
C528   C     0.45748   0.72907   0.49076   0.00000  Uiso   1.00
C529   C     0.47310   0.79918   0.49056   0.00000  Uiso   1.00
H530   H     0.23896   0.76651   0.53419   0.00000  Uiso   1.00
H531   H     0.14881   0.73110   0.48787   0.00000  Uiso   1.00
H532   H     0.23185   0.71395   0.59570   0.00000  Uiso   1.00
H533   H     0.32283   0.86834   0.52214   0.00000  Uiso   1.00
H534   H     0.06997   0.66996   0.43160   0.00000  Uiso   1.00
H535   H     0.24508   0.63383   0.65898   0.00000  Uiso   1.00
H536   H     0.43695   0.95939   0.50386   0.00000  Uiso   1.00
H537   H     0.40173   0.59812   0.49626   0.00000  Uiso   1.00
H538   H     0.32050   0.55346   0.44785   0.00000  Uiso   1.00
H539   H     0.40354   0.53632   0.55569   0.00000  Uiso   1.00
H540   H     0.49453   0.69071   0.48213   0.00000  Uiso   1.00
H541   H     0.20932   0.52578   0.39912   0.00000  Uiso   1.00
H542   H     0.38444   0.48965   0.62650   0.00000  Uiso   1.00
H543   H     0.57630   0.81521   0.47139   0.00000  Uiso   1.00
O544   O     0.08327   0.57151   0.38421   0.00000  Uiso   1.00
O545   O     0.31302   0.52412   0.68252   0.00000  Uiso   1.00
O546   O     0.56474   0.95125   0.47901   0.00000  Uiso   1.00
N547   N     0.11392   0.64216   0.43059   0.00000  Uiso   1.00
N548   N     0.27763   0.60838   0.64318   0.00000  Uiso   1.00
N549   N     0.45701   0.91275   0.49817   0.00000  Uiso   1.00
N550   N     0.18891   0.56458   0.41312   0.00000  Uiso   1.00
N551   N     0.35262   0.53080   0.62570   0.00000  Uiso   1.00
N552   N     0.53200   0.83517   0.48069   0.00000  Uiso   1.00
C553   C     0.72794   0.72375   0.47450   0.00000  Uiso   1.00
C554   C     0.68535   0.75016   0.50493   0.00000  Uiso   1.00
C555   C     0.69274   0.81414   0.52078   0.00000  Uiso   1.00
C556   C     0.64878   0.82854   0.54822   0.00000  Uiso   1.00
C557   C     0.59016   0.87685   0.59376   0.00000  Uiso   1.00
C558   C     0.67602   0.70505   0.44634   0.00000  Uiso   1.00
C559   C     0.67560   0.73109   0.41293   0.00000  Uiso   1.00
C560   C     0.62379   0.70751   0.39105   0.00000  Uiso   1.00
C561   C     0.55073   0.68574   0.34562   0.00000  Uiso   1.00
C562   C     0.75991   0.65562   0.48631   0.00000  Uiso   1.00
C563   C     0.83001   0.64009   0.48650   0.00000  Uiso   1.00
C564   C     0.84883   0.57488   0.49826   0.00000  Uiso   1.00
C565   C     0.90601   0.47637   0.51489   0.00000  Uiso   1.00
C566   C     0.63670   0.63557   0.49505   0.00000  Uiso   1.00
C567   C     0.63579   0.70226   0.51609   0.00000  Uiso   1.00
C568   C     0.59180   0.71657   0.54352   0.00000  Uiso   1.00
C569   C     0.59914   0.78056   0.55940   0.00000  Uiso   1.00
C570   C     0.62647   0.65715   0.45750   0.00000  Uiso   1.00
C571   C     0.57466   0.63353   0.43566   0.00000  Uiso   1.00
C572   C     0.57414   0.65953   0.40223   0.00000  Uiso   1.00
C573   C     0.71035   0.60772   0.49748   0.00000  Uiso   1.00
C574   C     0.72907   0.54252   0.50924   0.00000  Uiso   1.00
C575   C     0.79918   0.52690   0.50944   0.00000  Uiso   1.00
H576   H     0.76651   0.76104   0.46581   0.00000  Uiso   1.00
H577   H     0.73110   0.85119   0.51213   0.00000  Uiso   1.00
H578   H     0.71395   0.76815   0.40430   0.00000  Uiso   1.00
H579   H     0.86834   0.67717   0.47786   0.00000  Uiso   1.00
H580   H     0.66996   0.93003   0.56840   0.00000  Uiso   1.00
H581   H     0.63383   0.75492   0.34102   0.00000  Uiso   1.00
H582   H     0.95939   0.56305   0.49614   0.00000  Uiso   1.00
H583   H     0.59812   0.59827   0.50374   0.00000  Uiso   1.00
H584   H     0.55346   0.67950   0.55215   0.00000  Uiso   1.00
H585   H     0.53632   0.59646   0.44431   0.00000  Uiso   1.00
H586   H     0.69071   0.50547   0.51787   0.00000  Uiso   1.00
H587   H     0.52578   0.79068   0.60088   0.00000  Uiso   1.00
H588   H     0.48965   0.61556   0.37350   0.00000  Uiso   1.00
H589   H     0.81521   0.42370   0.52861   0.00000  Uiso   1.00
O590   O     0.57151   0.91673   0.61579   0.00000  Uiso   1.00
O591   O     0.52412   0.68698   0.31748   0.00000  Uiso   1.00
O592   O     0.95125   0.43526   0.52099   0.00000  Uiso   1.00
N593   N     0.64216   0.88608   0.56941   0.00000  Uiso   1.00
N594   N     0.60838   0.72237   0.35682   0.00000  Uiso   1.00
N595   N     0.91275   0.54299   0.50183   0.00000  Uiso   1.00
N596   N     0.56458   0.81109   0.58688   0.00000  Uiso   1.00
N597   N     0.53080   0.64738   0.37430   0.00000  Uiso   1.00
N598   N     0.83517   0.46800   0.51931   0.00000  Uiso   1.00
C599   C     0.22794   0.22375   0.97450   0.00000  Uiso   1.00
C600   C     0.18535   0.25016   0.00493   0.00000  Uiso   1.00
C601   C     0.19274   0.31414   0.02078   0.00000  Uiso   1.00
C602   C     0.14878   0.32854   0.04822   0.00000  Uiso   1.00
C603   C     0.09016   0.37685   0.09376   0.00000  Uiso   1.00
C604   C     0.17602   0.20505   0.94634   0.00000  Uiso   1.00
C605   C     0.17560   0.23109   0.91293   0.00000  Uiso   1.00
C606   C     0.12379   0.20751   0.89105   0.00000  Uiso   1.00
C607   C     0.05073   0.18574   0.84562   0.00000  Uiso   1.00
C608   C     0.25991   0.15562   0.98631   0.00000  Uiso   1.00
C609   C     0.33001   0.14009   0.98650   0.00000  Uiso   1.00
C610   C     0.34883   0.07488   0.99826   0.00000  Uiso   1.00
C611   C     0.40601   0.97637   0.01489   0.00000  Uiso   1.00
C612   C     0.13670   0.13557   0.99505   0.00000  Uiso   1.00
C613   C     0.13579   0.20226   0.01609   0.00000  Uiso   1.00
C614   C     0.09180   0.21657   0.04352   0.00000  Uiso   1.00
C615   C     0.09914   0.28056   0.05940   0.00000  Uiso   1.00
C616   C     0.12647   0.15715   0.95750   0.00000  Uiso   1.00
C617   C     0.07466   0.13353   0.93566   0.00000  Uiso   1.00
C618   C     0.07414   0.15953   0.90223   0.00000  Uiso   1.00
C619   C     0.21035   0.10772   0.99748   0.00000  Uiso   1.00
C620   C     0.22907   0.04252   0.00924   0.00000  Uiso   1.00
C621   C     0.29918   0.02690   0.00944   0.00000  Uiso   1.00
H622   H     0.26651   0.26104   0.96581   0.00000  Uiso   1.00
H623   H     0.23110   0.35119   0.01213   0.00000  Uiso   1.00
H624   H     0.21395   0.26815   0.90430   0.00000  Uiso   1.00
H625   H     0.36834   0.17717   0.97786   0.00000  Uiso   1.00
H626   H     0.16996   0.43003   0.06840   0.00000  Uiso   1.00
H627   H     0.13383   0.25492   0.84102   0.00000  Uiso   1.00
H628   H     0.45939   0.06305   0.99614   0.00000  Uiso   1.00
H629   H     0.09812   0.09827   0.00374   0.00000  Uiso   1.00
H630   H     0.05346   0.17950   0.05215   0.00000  Uiso   1.00
H631   H     0.03632   0.09646   0.94431   0.00000  Uiso   1.00
H632   H     0.19071   0.00547   0.01787   0.00000  Uiso   1.00
H633   H     0.02578   0.29068   0.10088   0.00000  Uiso   1.00
H634   H     0.98965   0.11556   0.87350   0.00000  Uiso   1.00
H635   H     0.31521   0.92370   0.02861   0.00000  Uiso   1.00
O636   O     0.07151   0.41673   0.11579   0.00000  Uiso   1.00
O637   O     0.02412   0.18698   0.81748   0.00000  Uiso   1.00
O638   O     0.45125   0.93526   0.02099   0.00000  Uiso   1.00
N639   N     0.14216   0.38608   0.06941   0.00000  Uiso   1.00
N640   N     0.10838   0.22237   0.85682   0.00000  Uiso   1.00
N641   N     0.41275   0.04299   0.00183   0.00000  Uiso   1.00
N642   N     0.06458   0.31109   0.08688   0.00000  Uiso   1.00
N643   N     0.03080   0.14738   0.87430   0.00000  Uiso   1.00
N644   N     0.33517   0.96800   0.01931   0.00000  Uiso   1.00
C645   C     0.27206   0.27625   0.47450   0.00000  Uiso   1.00
C646   C     0.31465   0.24984   0.50493   0.00000  Uiso   1.00
C647   C     0.30726   0.18586   0.52078   0.00000  Uiso   1.00
C648   C     0.35122   0.17146   0.54822   0.00000  Uiso   1.00
C649   C     0.40984   0.12315   0.59376   0.00000  Uiso   1.00
C650   C     0.32398   0.29495   0.44634   0.00000  Uiso   1.00
C651   C     0.32440   0.26891   0.41293   0.00000  Uiso   1.00
C652   C     0.37621   0.29249   0.39105   0.00000  Uiso   1.00
C653   C     0.44927   0.31426   0.34562   0.00000  Uiso   1.00
C654   C     0.24009   0.34438   0.48631   0.00000  Uiso   1.00
C655   C     0.16999   0.35991   0.48650   0.00000  Uiso   1.00
C656   C     0.15117   0.42512   0.49826   0.00000  Uiso   1.00
C657   C     0.09399   0.52363   0.51489   0.00000  Uiso   1.00
C658   C     0.36330   0.36443   0.49505   0.00000  Uiso   1.00
C659   C     0.36421   0.29774   0.51609   0.00000  Uiso   1.00
C660   C     0.40820   0.28343   0.54352   0.00000  Uiso   1.00
C661   C     0.40086   0.21944   0.55940   0.00000  Uiso   1.00
C662   C     0.37353   0.34285   0.45750   0.00000  Uiso   1.00
C663   C     0.42534   0.36647   0.43566   0.00000  Uiso   1.00
C664   C     0.42586   0.34047   0.40223   0.00000  Uiso   1.00
C665   C     0.28965   0.39228   0.49748   0.00000  Uiso   1.00
C666   C     0.27093   0.45748   0.50924   0.00000  Uiso   1.00
C667   C     0.20082   0.47310   0.50944   0.00000  Uiso   1.00
H668   H     0.23349   0.23896   0.46581   0.00000  Uiso   1.00
H669   H     0.26890   0.14881   0.51213   0.00000  Uiso   1.00
H670   H     0.28605   0.23185   0.40430   0.00000  Uiso   1.00
H671   H     0.13166   0.32283   0.47786   0.00000  Uiso   1.00
H672   H     0.33004   0.06997   0.56840   0.00000  Uiso   1.00
H673   H     0.36617   0.24508   0.34102   0.00000  Uiso   1.00
H674   H     0.04061   0.43695   0.49614   0.00000  Uiso   1.00
H675   H     0.40188   0.40173   0.50374   0.00000  Uiso   1.00
H676   H     0.44654   0.32050   0.55215   0.00000  Uiso   1.00
H677   H     0.46368   0.40354   0.44431   0.00000  Uiso   1.00
H678   H     0.30929   0.49453   0.51787   0.00000  Uiso   1.00
H679   H     0.47422   0.20932   0.60088   0.00000  Uiso   1.00
H680   H     0.51035   0.38444   0.37350   0.00000  Uiso   1.00
H681   H     0.18479   0.57630   0.52861   0.00000  Uiso   1.00
O682   O     0.42849   0.08327   0.61579   0.00000  Uiso   1.00
O683   O     0.47588   0.31302   0.31748   0.00000  Uiso   1.00
O684   O     0.04875   0.56474   0.52099   0.00000  Uiso   1.00
N685   N     0.35784   0.11392   0.56941   0.00000  Uiso   1.00
N686   N     0.39162   0.27763   0.35682   0.00000  Uiso   1.00
N687   N     0.08725   0.45701   0.50183   0.00000  Uiso   1.00
N688   N     0.43542   0.18891   0.58688   0.00000  Uiso   1.00
N689   N     0.46920   0.35262   0.37430   0.00000  Uiso   1.00
N690   N     0.16483   0.53200   0.51931   0.00000  Uiso   1.00
C691   C     0.77206   0.77625   0.97450   0.00000  Uiso   1.00
C692   C     0.81465   0.74984   0.00493   0.00000  Uiso   1.00
C693   C     0.80726   0.68586   0.02078   0.00000  Uiso   1.00
C694   C     0.85122   0.67146   0.04822   0.00000  Uiso   1.00
C695   C     0.90984   0.62315   0.09376   0.00000  Uiso   1.00
C696   C     0.82398   0.79495   0.94634   0.00000  Uiso   1.00
C697   C     0.82440   0.76891   0.91293   0.00000  Uiso   1.00
C698   C     0.87621   0.79249   0.89105   0.00000  Uiso   1.00
C699   C     0.94927   0.81426   0.84562   0.00000  Uiso   1.00
C700   C     0.74009   0.84438   0.98631   0.00000  Uiso   1.00
C701   C     0.66999   0.85991   0.98650   0.00000  Uiso   1.00
C702   C     0.65117   0.92512   0.99826   0.00000  Uiso   1.00
C703   C     0.59399   0.02363   0.01489   0.00000  Uiso   1.00
C704   C     0.86330   0.86443   0.99505   0.00000  Uiso   1.00
C705   C     0.86421   0.79774   0.01609   0.00000  Uiso   1.00
C706   C     0.90820   0.78343   0.04352   0.00000  Uiso   1.00
C707   C     0.90086   0.71944   0.05940   0.00000  Uiso   1.00
C708   C     0.87353   0.84285   0.95750   0.00000  Uiso   1.00
C709   C     0.92534   0.86647   0.93566   0.00000  Uiso   1.00
C710   C     0.92586   0.84047   0.90223   0.00000  Uiso   1.00
C711   C     0.78965   0.89228   0.99748   0.00000  Uiso   1.00
C712   C     0.77093   0.95748   0.00924   0.00000  Uiso   1.00
C713   C     0.70082   0.97310   0.00944   0.00000  Uiso   1.00
H714   H     0.73349   0.73896   0.96581   0.00000  Uiso   1.00
H715   H     0.76890   0.64881   0.01213   0.00000  Uiso   1.00
H716   H     0.78605   0.73185   0.90430   0.00000  Uiso   1.00
H717   H     0.63166   0.82283   0.97786   0.00000  Uiso   1.00
H718   H     0.83004   0.56997   0.06840   0.00000  Uiso   1.00
H719   H     0.86617   0.74508   0.84102   0.00000  Uiso   1.00
H720   H     0.54061   0.93695   0.99614   0.00000  Uiso   1.00
H721   H     0.90188   0.90173   0.00374   0.00000  Uiso   1.00
H722   H     0.94654   0.82050   0.05215   0.00000  Uiso   1.00
H723   H     0.96368   0.90354   0.94431   0.00000  Uiso   1.00
H724   H     0.80929   0.99453   0.01787   0.00000  Uiso   1.00
H725   H     0.97422   0.70932   0.10088   0.00000  Uiso   1.00
H726   H     0.01035   0.88444   0.87350   0.00000  Uiso   1.00
H727   H     0.68479   0.07630   0.02861   0.00000  Uiso   1.00
O728   O     0.92849   0.58327   0.11579   0.00000  Uiso   1.00
O729   O     0.97588   0.81302   0.81748   0.00000  Uiso   1.00
O730   O     0.54875   0.06474   0.02099   0.00000  Uiso   1.00
N731   N     0.85784   0.61392   0.06941   0.00000  Uiso   1.00
N732   N     0.89162   0.77763   0.85682   0.00000  Uiso   1.00
N733   N     0.58725   0.95701   0.00183   0.00000  Uiso   1.00
N734   N     0.93542   0.68891   0.08688   0.00000  Uiso   1.00
N735   N     0.96920   0.85262   0.87430   0.00000  Uiso   1.00
N736   N     0.66483   0.03200   0.01931   0.00000  Uiso   1.00
