data_job_04155
_audit_creation_date              2018-12-19
_audit_creation_method            'Materials Studio'
_symmetry_space_group_name_H-M    'P1'
_symmetry_Int_Tables_number       1
_symmetry_cell_setting            triclinic
loop_
_symmetry_equiv_pos_as_xyz
  x,y,z
_cell_length_a                    44.5426
_cell_length_b                    48.3510
_cell_length_c                    7.3694
_cell_angle_alpha                 90.0000
_cell_angle_beta                  90.0000
_cell_angle_gamma                 90.0000
loop_
_atom_site_label
_atom_site_type_symbol
_atom_site_fract_x
_atom_site_fract_y
_atom_site_fract_z
_atom_site_U_iso_or_equiv
_atom_site_adp_type
_atom_site_occupancy
C1     C     0.79614   0.42649   0.53346   0.00000  Uiso   1.00
C2     C     0.81506   0.40021   0.53160   0.00000  Uiso   1.00
C3     C     0.82921   0.38850   0.68073   0.00000  Uiso   1.00
C4     C     0.84548   0.36443   0.65091   0.00000  Uiso   1.00
C5     C     0.87457   0.32544   0.67429   0.00000  Uiso   1.00
C6     C     0.81031   0.44583   0.39427   0.00000  Uiso   1.00
C7     C     0.82046   0.47248   0.42792   0.00000  Uiso   1.00
C8     C     0.83272   0.48682   0.28248   0.00000  Uiso   1.00
C9     C     0.85441   0.51867   0.09261   0.00000  Uiso   1.00
C10    C     0.76559   0.41841   0.45649   0.00000  Uiso   1.00
C11    C     0.73815   0.42201   0.54244   0.00000  Uiso   1.00
C12    C     0.71276   0.41326   0.44936   0.00000  Uiso   1.00
C13    C     0.66503   0.40253   0.35611   0.00000  Uiso   1.00
C14    C     0.79986   0.40457   0.21531   0.00000  Uiso   1.00
C15    C     0.81708   0.38830   0.35879   0.00000  Uiso   1.00
C16    C     0.83333   0.36425   0.32874   0.00000  Uiso   1.00
C17    C     0.84750   0.35250   0.47780   0.00000  Uiso   1.00
C18    C     0.81233   0.43393   0.22146   0.00000  Uiso   1.00
C19    C     0.82458   0.44823   0.07593   0.00000  Uiso   1.00
C20    C     0.83475   0.47489   0.10936   0.00000  Uiso   1.00
C21    C     0.76761   0.40650   0.28368   0.00000  Uiso   1.00
C22    C     0.74227   0.39776   0.19045   0.00000  Uiso   1.00
C23    C     0.71479   0.40134   0.27624   0.00000  Uiso   1.00
H24    H     0.79456   0.43576   0.66799   0.00000  Uiso   1.00
H25    H     0.82765   0.39772   0.81444   0.00000  Uiso   1.00
H26    H     0.81889   0.48169   0.56166   0.00000  Uiso   1.00
H27    H     0.73659   0.43122   0.67617   0.00000  Uiso   1.00
H28    H     0.86522   0.35029   0.90058   0.00000  Uiso   1.00
H29    H     0.84675   0.52736   0.36758   0.00000  Uiso   1.00
H30    H     0.67321   0.42094   0.60903   0.00000  Uiso   1.00
H31    H     0.80143   0.39530   0.08077   0.00000  Uiso   1.00
H32    H     0.83489   0.35504   0.19499   0.00000  Uiso   1.00
H33    H     0.82614   0.43901   0.94222   0.00000  Uiso   1.00
H34    H     0.74384   0.38854   0.05672   0.00000  Uiso   1.00
H35    H     0.87111   0.31566   0.39781   0.00000  Uiso   1.00
H36    H     0.85263   0.49272   0.86481   0.00000  Uiso   1.00
H37    H     0.67909   0.38630   0.10626   0.00000  Uiso   1.00
O38    O     0.89006   0.30722   0.73492   0.00000  Uiso   1.00
O39    O     0.86582   0.53952   0.03564   0.00000  Uiso   1.00
O40    O     0.63814   0.39990   0.35242   0.00000  Uiso   1.00
N41    N     0.86201   0.34766   0.76659   0.00000  Uiso   1.00
N42    N     0.84475   0.51321   0.26827   0.00000  Uiso   1.00
N43    N     0.68250   0.41372   0.49398   0.00000  Uiso   1.00
N44    N     0.86518   0.32903   0.49605   0.00000  Uiso   1.00
N45    N     0.84791   0.49457   0.99773   0.00000  Uiso   1.00
N46    N     0.68566   0.39508   0.22345   0.00000  Uiso   1.00
C47    C     0.79614   0.92649   0.03346   0.00000  Uiso   1.00
C48    C     0.81506   0.90021   0.03160   0.00000  Uiso   1.00
C49    C     0.82921   0.88850   0.18073   0.00000  Uiso   1.00
C50    C     0.84548   0.86443   0.15091   0.00000  Uiso   1.00
C51    C     0.87457   0.82544   0.17429   0.00000  Uiso   1.00
C52    C     0.81031   0.94583   0.89427   0.00000  Uiso   1.00
C53    C     0.82046   0.97248   0.92792   0.00000  Uiso   1.00
C54    C     0.83272   0.98682   0.78248   0.00000  Uiso   1.00
C55    C     0.85441   0.01867   0.59261   0.00000  Uiso   1.00
C56    C     0.76559   0.91841   0.95649   0.00000  Uiso   1.00
C57    C     0.73815   0.92201   0.04244   0.00000  Uiso   1.00
C58    C     0.71276   0.91326   0.94936   0.00000  Uiso   1.00
C59    C     0.66503   0.90253   0.85611   0.00000  Uiso   1.00
C60    C     0.79986   0.90457   0.71531   0.00000  Uiso   1.00
C61    C     0.81708   0.88830   0.85879   0.00000  Uiso   1.00
C62    C     0.83333   0.86425   0.82874   0.00000  Uiso   1.00
C63    C     0.84750   0.85250   0.97780   0.00000  Uiso   1.00
C64    C     0.81233   0.93393   0.72146   0.00000  Uiso   1.00
C65    C     0.82458   0.94823   0.57593   0.00000  Uiso   1.00
C66    C     0.83475   0.97489   0.60936   0.00000  Uiso   1.00
C67    C     0.76761   0.90650   0.78368   0.00000  Uiso   1.00
C68    C     0.74227   0.89776   0.69045   0.00000  Uiso   1.00
C69    C     0.71479   0.90134   0.77624   0.00000  Uiso   1.00
H70    H     0.79456   0.93576   0.16799   0.00000  Uiso   1.00
H71    H     0.82765   0.89772   0.31444   0.00000  Uiso   1.00
H72    H     0.81889   0.98169   0.06166   0.00000  Uiso   1.00
H73    H     0.73659   0.93122   0.17617   0.00000  Uiso   1.00
H74    H     0.86522   0.85029   0.40058   0.00000  Uiso   1.00
H75    H     0.84675   0.02736   0.86758   0.00000  Uiso   1.00
H76    H     0.67321   0.92094   0.10903   0.00000  Uiso   1.00
H77    H     0.80143   0.89530   0.58077   0.00000  Uiso   1.00
H78    H     0.83489   0.85504   0.69499   0.00000  Uiso   1.00
H79    H     0.82614   0.93901   0.44222   0.00000  Uiso   1.00
H80    H     0.74384   0.88854   0.55672   0.00000  Uiso   1.00
H81    H     0.87111   0.81566   0.89781   0.00000  Uiso   1.00
H82    H     0.85263   0.99272   0.36481   0.00000  Uiso   1.00
H83    H     0.67909   0.88630   0.60626   0.00000  Uiso   1.00
O84    O     0.89006   0.80722   0.23492   0.00000  Uiso   1.00
O85    O     0.86582   0.03952   0.53564   0.00000  Uiso   1.00
O86    O     0.63814   0.89990   0.85242   0.00000  Uiso   1.00
N87    N     0.86201   0.84766   0.26659   0.00000  Uiso   1.00
N88    N     0.84475   0.01321   0.76827   0.00000  Uiso   1.00
N89    N     0.68250   0.91372   0.99398   0.00000  Uiso   1.00
N90    N     0.86518   0.82903   0.99605   0.00000  Uiso   1.00
N91    N     0.84791   0.99457   0.49773   0.00000  Uiso   1.00
N92    N     0.68566   0.89508   0.72345   0.00000  Uiso   1.00
C93    C     0.29614   0.42649   0.03346   0.00000  Uiso   1.00
C94    C     0.31506   0.40021   0.03160   0.00000  Uiso   1.00
C95    C     0.32921   0.38850   0.18073   0.00000  Uiso   1.00
C96    C     0.34548   0.36443   0.15091   0.00000  Uiso   1.00
C97    C     0.37457   0.32544   0.17429   0.00000  Uiso   1.00
C98    C     0.31031   0.44583   0.89427   0.00000  Uiso   1.00
C99    C     0.32046   0.47248   0.92792   0.00000  Uiso   1.00
C100   C     0.33272   0.48682   0.78248   0.00000  Uiso   1.00
C101   C     0.35441   0.51867   0.59261   0.00000  Uiso   1.00
C102   C     0.26559   0.41841   0.95649   0.00000  Uiso   1.00
C103   C     0.23815   0.42201   0.04244   0.00000  Uiso   1.00
C104   C     0.21276   0.41326   0.94936   0.00000  Uiso   1.00
C105   C     0.16503   0.40253   0.85611   0.00000  Uiso   1.00
C106   C     0.29986   0.40457   0.71531   0.00000  Uiso   1.00
C107   C     0.31708   0.38830   0.85879   0.00000  Uiso   1.00
C108   C     0.33333   0.36425   0.82874   0.00000  Uiso   1.00
C109   C     0.34750   0.35250   0.97780   0.00000  Uiso   1.00
C110   C     0.31233   0.43393   0.72146   0.00000  Uiso   1.00
C111   C     0.32458   0.44823   0.57593   0.00000  Uiso   1.00
C112   C     0.33475   0.47489   0.60936   0.00000  Uiso   1.00
C113   C     0.26761   0.40650   0.78368   0.00000  Uiso   1.00
C114   C     0.24227   0.39776   0.69045   0.00000  Uiso   1.00
C115   C     0.21479   0.40134   0.77624   0.00000  Uiso   1.00
H116   H     0.29456   0.43576   0.16799   0.00000  Uiso   1.00
H117   H     0.32765   0.39772   0.31444   0.00000  Uiso   1.00
H118   H     0.31889   0.48169   0.06166   0.00000  Uiso   1.00
H119   H     0.23659   0.43122   0.17617   0.00000  Uiso   1.00
H120   H     0.36522   0.35029   0.40058   0.00000  Uiso   1.00
H121   H     0.34675   0.52736   0.86758   0.00000  Uiso   1.00
H122   H     0.17321   0.42094   0.10903   0.00000  Uiso   1.00
H123   H     0.30143   0.39530   0.58077   0.00000  Uiso   1.00
H124   H     0.33489   0.35504   0.69499   0.00000  Uiso   1.00
H125   H     0.32614   0.43901   0.44222   0.00000  Uiso   1.00
H126   H     0.24384   0.38854   0.55672   0.00000  Uiso   1.00
H127   H     0.37111   0.31566   0.89781   0.00000  Uiso   1.00
H128   H     0.35263   0.49272   0.36481   0.00000  Uiso   1.00
H129   H     0.17909   0.38630   0.60626   0.00000  Uiso   1.00
O130   O     0.39006   0.30722   0.23492   0.00000  Uiso   1.00
O131   O     0.36582   0.53952   0.53564   0.00000  Uiso   1.00
O132   O     0.13814   0.39990   0.85242   0.00000  Uiso   1.00
N133   N     0.36201   0.34766   0.26659   0.00000  Uiso   1.00
N134   N     0.34475   0.51321   0.76827   0.00000  Uiso   1.00
N135   N     0.18250   0.41372   0.99398   0.00000  Uiso   1.00
N136   N     0.36518   0.32903   0.99605   0.00000  Uiso   1.00
N137   N     0.34791   0.49457   0.49773   0.00000  Uiso   1.00
N138   N     0.18566   0.39508   0.72345   0.00000  Uiso   1.00
C139   C     0.29614   0.92649   0.53346   0.00000  Uiso   1.00
C140   C     0.31506   0.90021   0.53160   0.00000  Uiso   1.00
C141   C     0.32921   0.88850   0.68073   0.00000  Uiso   1.00
C142   C     0.34548   0.86443   0.65091   0.00000  Uiso   1.00
C143   C     0.37457   0.82544   0.67429   0.00000  Uiso   1.00
C144   C     0.31031   0.94583   0.39427   0.00000  Uiso   1.00
C145   C     0.32046   0.97248   0.42792   0.00000  Uiso   1.00
C146   C     0.33272   0.98682   0.28248   0.00000  Uiso   1.00
C147   C     0.35441   0.01867   0.09261   0.00000  Uiso   1.00
C148   C     0.26559   0.91841   0.45649   0.00000  Uiso   1.00
C149   C     0.23815   0.92201   0.54244   0.00000  Uiso   1.00
C150   C     0.21276   0.91326   0.44936   0.00000  Uiso   1.00
C151   C     0.16503   0.90253   0.35611   0.00000  Uiso   1.00
C152   C     0.29986   0.90457   0.21531   0.00000  Uiso   1.00
C153   C     0.31708   0.88830   0.35879   0.00000  Uiso   1.00
C154   C     0.33333   0.86425   0.32874   0.00000  Uiso   1.00
C155   C     0.34750   0.85250   0.47780   0.00000  Uiso   1.00
C156   C     0.31233   0.93393   0.22146   0.00000  Uiso   1.00
C157   C     0.32458   0.94823   0.07593   0.00000  Uiso   1.00
C158   C     0.33475   0.97489   0.10936   0.00000  Uiso   1.00
C159   C     0.26761   0.90650   0.28368   0.00000  Uiso   1.00
C160   C     0.24227   0.89776   0.19045   0.00000  Uiso   1.00
C161   C     0.21479   0.90134   0.27624   0.00000  Uiso   1.00
H162   H     0.29456   0.93576   0.66799   0.00000  Uiso   1.00
H163   H     0.32765   0.89772   0.81444   0.00000  Uiso   1.00
H164   H     0.31889   0.98169   0.56166   0.00000  Uiso   1.00
H165   H     0.23659   0.93122   0.67617   0.00000  Uiso   1.00
H166   H     0.36522   0.85029   0.90058   0.00000  Uiso   1.00
H167   H     0.34675   0.02736   0.36758   0.00000  Uiso   1.00
H168   H     0.17321   0.92094   0.60903   0.00000  Uiso   1.00
H169   H     0.30143   0.89530   0.08077   0.00000  Uiso   1.00
H170   H     0.33489   0.85504   0.19499   0.00000  Uiso   1.00
H171   H     0.32614   0.93901   0.94222   0.00000  Uiso   1.00
H172   H     0.24384   0.88854   0.05672   0.00000  Uiso   1.00
H173   H     0.37111   0.81566   0.39781   0.00000  Uiso   1.00
H174   H     0.35263   0.99272   0.86481   0.00000  Uiso   1.00
H175   H     0.17909   0.88630   0.10626   0.00000  Uiso   1.00
O176   O     0.39006   0.80722   0.73492   0.00000  Uiso   1.00
O177   O     0.36582   0.03952   0.03564   0.00000  Uiso   1.00
O178   O     0.13814   0.89990   0.35242   0.00000  Uiso   1.00
N179   N     0.36201   0.84766   0.76659   0.00000  Uiso   1.00
N180   N     0.34475   0.01321   0.26827   0.00000  Uiso   1.00
N181   N     0.18250   0.91372   0.49398   0.00000  Uiso   1.00
N182   N     0.36518   0.82903   0.49605   0.00000  Uiso   1.00
N183   N     0.34791   0.99457   0.99773   0.00000  Uiso   1.00
N184   N     0.18566   0.89508   0.22345   0.00000  Uiso   1.00
C185   C     0.20386   0.57351   0.53346   0.00000  Uiso   1.00
C186   C     0.18494   0.59979   0.53160   0.00000  Uiso   1.00
C187   C     0.17079   0.61150   0.68073   0.00000  Uiso   1.00
C188   C     0.15452   0.63557   0.65091   0.00000  Uiso   1.00
C189   C     0.12543   0.67456   0.67429   0.00000  Uiso   1.00
C190   C     0.18969   0.55417   0.39427   0.00000  Uiso   1.00
C191   C     0.17954   0.52752   0.42792   0.00000  Uiso   1.00
C192   C     0.16728   0.51318   0.28248   0.00000  Uiso   1.00
C193   C     0.14559   0.48133   0.09261   0.00000  Uiso   1.00
C194   C     0.23441   0.58159   0.45649   0.00000  Uiso   1.00
C195   C     0.26185   0.57799   0.54244   0.00000  Uiso   1.00
C196   C     0.28724   0.58674   0.44936   0.00000  Uiso   1.00
C197   C     0.33497   0.59747   0.35611   0.00000  Uiso   1.00
C198   C     0.20014   0.59543   0.21531   0.00000  Uiso   1.00
C199   C     0.18292   0.61170   0.35879   0.00000  Uiso   1.00
C200   C     0.16667   0.63575   0.32874   0.00000  Uiso   1.00
C201   C     0.15250   0.64750   0.47780   0.00000  Uiso   1.00
C202   C     0.18767   0.56607   0.22146   0.00000  Uiso   1.00
C203   C     0.17542   0.55177   0.07593   0.00000  Uiso   1.00
C204   C     0.16525   0.52511   0.10936   0.00000  Uiso   1.00
C205   C     0.23239   0.59350   0.28368   0.00000  Uiso   1.00
C206   C     0.25773   0.60224   0.19045   0.00000  Uiso   1.00
C207   C     0.28521   0.59866   0.27624   0.00000  Uiso   1.00
H208   H     0.20544   0.56424   0.66799   0.00000  Uiso   1.00
H209   H     0.17235   0.60228   0.81444   0.00000  Uiso   1.00
H210   H     0.18111   0.51831   0.56166   0.00000  Uiso   1.00
H211   H     0.26341   0.56878   0.67617   0.00000  Uiso   1.00
H212   H     0.13478   0.64971   0.90058   0.00000  Uiso   1.00
H213   H     0.15325   0.47264   0.36758   0.00000  Uiso   1.00
H214   H     0.32679   0.57906   0.60903   0.00000  Uiso   1.00
H215   H     0.19857   0.60470   0.08077   0.00000  Uiso   1.00
H216   H     0.16511   0.64496   0.19499   0.00000  Uiso   1.00
H217   H     0.17386   0.56099   0.94222   0.00000  Uiso   1.00
H218   H     0.25616   0.61146   0.05672   0.00000  Uiso   1.00
H219   H     0.12889   0.68434   0.39781   0.00000  Uiso   1.00
H220   H     0.14737   0.50728   0.86481   0.00000  Uiso   1.00
H221   H     0.32091   0.61370   0.10626   0.00000  Uiso   1.00
O222   O     0.10994   0.69278   0.73492   0.00000  Uiso   1.00
O223   O     0.13418   0.46048   0.03564   0.00000  Uiso   1.00
O224   O     0.36186   0.60010   0.35242   0.00000  Uiso   1.00
N225   N     0.13799   0.65234   0.76659   0.00000  Uiso   1.00
N226   N     0.15525   0.48679   0.26827   0.00000  Uiso   1.00
N227   N     0.31750   0.58628   0.49398   0.00000  Uiso   1.00
N228   N     0.13482   0.67097   0.49605   0.00000  Uiso   1.00
N229   N     0.15209   0.50543   0.99773   0.00000  Uiso   1.00
N230   N     0.31434   0.60492   0.22345   0.00000  Uiso   1.00
C231   C     0.20386   0.07351   0.03346   0.00000  Uiso   1.00
C232   C     0.18494   0.09979   0.03160   0.00000  Uiso   1.00
C233   C     0.17079   0.11150   0.18073   0.00000  Uiso   1.00
C234   C     0.15452   0.13557   0.15091   0.00000  Uiso   1.00
C235   C     0.12543   0.17456   0.17429   0.00000  Uiso   1.00
C236   C     0.18969   0.05417   0.89427   0.00000  Uiso   1.00
C237   C     0.17954   0.02752   0.92792   0.00000  Uiso   1.00
C238   C     0.16728   0.01318   0.78248   0.00000  Uiso   1.00
C239   C     0.14559   0.98133   0.59261   0.00000  Uiso   1.00
C240   C     0.23441   0.08159   0.95649   0.00000  Uiso   1.00
C241   C     0.26185   0.07799   0.04244   0.00000  Uiso   1.00
C242   C     0.28724   0.08674   0.94936   0.00000  Uiso   1.00
C243   C     0.33497   0.09747   0.85611   0.00000  Uiso   1.00
C244   C     0.20014   0.09543   0.71531   0.00000  Uiso   1.00
C245   C     0.18292   0.11170   0.85879   0.00000  Uiso   1.00
C246   C     0.16667   0.13575   0.82874   0.00000  Uiso   1.00
C247   C     0.15250   0.14750   0.97780   0.00000  Uiso   1.00
C248   C     0.18767   0.06607   0.72146   0.00000  Uiso   1.00
C249   C     0.17542   0.05177   0.57593   0.00000  Uiso   1.00
C250   C     0.16525   0.02511   0.60936   0.00000  Uiso   1.00
C251   C     0.23239   0.09350   0.78368   0.00000  Uiso   1.00
C252   C     0.25773   0.10224   0.69045   0.00000  Uiso   1.00
C253   C     0.28521   0.09866   0.77624   0.00000  Uiso   1.00
H254   H     0.20544   0.06424   0.16799   0.00000  Uiso   1.00
H255   H     0.17235   0.10228   0.31444   0.00000  Uiso   1.00
H256   H     0.18111   0.01831   0.06166   0.00000  Uiso   1.00
H257   H     0.26341   0.06878   0.17617   0.00000  Uiso   1.00
H258   H     0.13478   0.14971   0.40058   0.00000  Uiso   1.00
H259   H     0.15325   0.97264   0.86758   0.00000  Uiso   1.00
H260   H     0.32679   0.07906   0.10903   0.00000  Uiso   1.00
H261   H     0.19857   0.10470   0.58077   0.00000  Uiso   1.00
H262   H     0.16511   0.14496   0.69499   0.00000  Uiso   1.00
H263   H     0.17386   0.06099   0.44222   0.00000  Uiso   1.00
H264   H     0.25616   0.11146   0.55672   0.00000  Uiso   1.00
H265   H     0.12889   0.18434   0.89781   0.00000  Uiso   1.00
H266   H     0.14737   0.00728   0.36481   0.00000  Uiso   1.00
H267   H     0.32091   0.11370   0.60626   0.00000  Uiso   1.00
O268   O     0.10994   0.19278   0.23492   0.00000  Uiso   1.00
O269   O     0.13418   0.96048   0.53564   0.00000  Uiso   1.00
O270   O     0.36186   0.10010   0.85242   0.00000  Uiso   1.00
N271   N     0.13799   0.15234   0.26659   0.00000  Uiso   1.00
N272   N     0.15525   0.98679   0.76827   0.00000  Uiso   1.00
N273   N     0.31750   0.08628   0.99398   0.00000  Uiso   1.00
N274   N     0.13482   0.17097   0.99605   0.00000  Uiso   1.00
N275   N     0.15209   0.00543   0.49773   0.00000  Uiso   1.00
N276   N     0.31434   0.10492   0.72345   0.00000  Uiso   1.00
C277   C     0.70386   0.57351   0.03346   0.00000  Uiso   1.00
C278   C     0.68494   0.59979   0.03160   0.00000  Uiso   1.00
C279   C     0.67079   0.61150   0.18073   0.00000  Uiso   1.00
C280   C     0.65452   0.63557   0.15091   0.00000  Uiso   1.00
C281   C     0.62543   0.67456   0.17429   0.00000  Uiso   1.00
C282   C     0.68969   0.55417   0.89427   0.00000  Uiso   1.00
C283   C     0.67954   0.52752   0.92792   0.00000  Uiso   1.00
C284   C     0.66728   0.51318   0.78248   0.00000  Uiso   1.00
C285   C     0.64559   0.48133   0.59261   0.00000  Uiso   1.00
C286   C     0.73441   0.58159   0.95649   0.00000  Uiso   1.00
C287   C     0.76185   0.57799   0.04244   0.00000  Uiso   1.00
C288   C     0.78724   0.58674   0.94936   0.00000  Uiso   1.00
C289   C     0.83497   0.59747   0.85611   0.00000  Uiso   1.00
C290   C     0.70014   0.59543   0.71531   0.00000  Uiso   1.00
C291   C     0.68292   0.61170   0.85879   0.00000  Uiso   1.00
C292   C     0.66667   0.63575   0.82874   0.00000  Uiso   1.00
C293   C     0.65250   0.64750   0.97780   0.00000  Uiso   1.00
C294   C     0.68767   0.56607   0.72146   0.00000  Uiso   1.00
C295   C     0.67542   0.55177   0.57593   0.00000  Uiso   1.00
C296   C     0.66525   0.52511   0.60936   0.00000  Uiso   1.00
C297   C     0.73239   0.59350   0.78368   0.00000  Uiso   1.00
C298   C     0.75773   0.60224   0.69045   0.00000  Uiso   1.00
C299   C     0.78521   0.59866   0.77624   0.00000  Uiso   1.00
H300   H     0.70544   0.56424   0.16799   0.00000  Uiso   1.00
H301   H     0.67235   0.60228   0.31444   0.00000  Uiso   1.00
H302   H     0.68111   0.51831   0.06166   0.00000  Uiso   1.00
H303   H     0.76341   0.56878   0.17617   0.00000  Uiso   1.00
H304   H     0.63478   0.64971   0.40058   0.00000  Uiso   1.00
H305   H     0.65325   0.47264   0.86758   0.00000  Uiso   1.00
H306   H     0.82679   0.57906   0.10903   0.00000  Uiso   1.00
H307   H     0.69857   0.60470   0.58077   0.00000  Uiso   1.00
H308   H     0.66511   0.64496   0.69499   0.00000  Uiso   1.00
H309   H     0.67386   0.56099   0.44222   0.00000  Uiso   1.00
H310   H     0.75616   0.61146   0.55672   0.00000  Uiso   1.00
H311   H     0.62889   0.68434   0.89781   0.00000  Uiso   1.00
H312   H     0.64737   0.50728   0.36481   0.00000  Uiso   1.00
H313   H     0.82091   0.61370   0.60626   0.00000  Uiso   1.00
O314   O     0.60994   0.69278   0.23492   0.00000  Uiso   1.00
O315   O     0.63418   0.46048   0.53564   0.00000  Uiso   1.00
O316   O     0.86186   0.60010   0.85242   0.00000  Uiso   1.00
N317   N     0.63799   0.65234   0.26659   0.00000  Uiso   1.00
N318   N     0.65525   0.48679   0.76827   0.00000  Uiso   1.00
N319   N     0.81750   0.58628   0.99398   0.00000  Uiso   1.00
N320   N     0.63482   0.67097   0.99605   0.00000  Uiso   1.00
N321   N     0.65209   0.50543   0.49773   0.00000  Uiso   1.00
N322   N     0.81434   0.60492   0.72345   0.00000  Uiso   1.00
C323   C     0.70386   0.07351   0.53346   0.00000  Uiso   1.00
C324   C     0.68494   0.09979   0.53160   0.00000  Uiso   1.00
C325   C     0.67079   0.11150   0.68073   0.00000  Uiso   1.00
C326   C     0.65452   0.13557   0.65091   0.00000  Uiso   1.00
C327   C     0.62543   0.17456   0.67429   0.00000  Uiso   1.00
C328   C     0.68969   0.05417   0.39427   0.00000  Uiso   1.00
C329   C     0.67954   0.02752   0.42792   0.00000  Uiso   1.00
C330   C     0.66728   0.01318   0.28248   0.00000  Uiso   1.00
C331   C     0.64559   0.98133   0.09261   0.00000  Uiso   1.00
C332   C     0.73441   0.08159   0.45649   0.00000  Uiso   1.00
C333   C     0.76185   0.07799   0.54244   0.00000  Uiso   1.00
C334   C     0.78724   0.08674   0.44936   0.00000  Uiso   1.00
C335   C     0.83497   0.09747   0.35611   0.00000  Uiso   1.00
C336   C     0.70014   0.09543   0.21531   0.00000  Uiso   1.00
C337   C     0.68292   0.11170   0.35879   0.00000  Uiso   1.00
C338   C     0.66667   0.13575   0.32874   0.00000  Uiso   1.00
C339   C     0.65250   0.14750   0.47780   0.00000  Uiso   1.00
C340   C     0.68767   0.06607   0.22146   0.00000  Uiso   1.00
C341   C     0.67542   0.05177   0.07593   0.00000  Uiso   1.00
C342   C     0.66525   0.02511   0.10936   0.00000  Uiso   1.00
C343   C     0.73239   0.09350   0.28368   0.00000  Uiso   1.00
C344   C     0.75773   0.10224   0.19045   0.00000  Uiso   1.00
C345   C     0.78521   0.09866   0.27624   0.00000  Uiso   1.00
H346   H     0.70544   0.06424   0.66799   0.00000  Uiso   1.00
H347   H     0.67235   0.10228   0.81444   0.00000  Uiso   1.00
H348   H     0.68111   0.01831   0.56166   0.00000  Uiso   1.00
H349   H     0.76341   0.06878   0.67617   0.00000  Uiso   1.00
H350   H     0.63478   0.14971   0.90058   0.00000  Uiso   1.00
H351   H     0.65325   0.97264   0.36758   0.00000  Uiso   1.00
H352   H     0.82679   0.07906   0.60903   0.00000  Uiso   1.00
H353   H     0.69857   0.10470   0.08077   0.00000  Uiso   1.00
H354   H     0.66511   0.14496   0.19499   0.00000  Uiso   1.00
H355   H     0.67386   0.06099   0.94222   0.00000  Uiso   1.00
H356   H     0.75616   0.11146   0.05672   0.00000  Uiso   1.00
H357   H     0.62889   0.18434   0.39781   0.00000  Uiso   1.00
H358   H     0.64737   0.00728   0.86481   0.00000  Uiso   1.00
H359   H     0.82091   0.11370   0.10626   0.00000  Uiso   1.00
O360   O     0.60994   0.19278   0.73492   0.00000  Uiso   1.00
O361   O     0.63418   0.96048   0.03564   0.00000  Uiso   1.00
O362   O     0.86186   0.10010   0.35242   0.00000  Uiso   1.00
N363   N     0.63799   0.15234   0.76659   0.00000  Uiso   1.00
N364   N     0.65525   0.98679   0.26827   0.00000  Uiso   1.00
N365   N     0.81750   0.08628   0.49398   0.00000  Uiso   1.00
N366   N     0.63482   0.17097   0.49605   0.00000  Uiso   1.00
N367   N     0.65209   0.00543   0.99773   0.00000  Uiso   1.00
N368   N     0.81434   0.10492   0.22345   0.00000  Uiso   1.00
C369   C     0.04614   0.82351   0.78346   0.00000  Uiso   1.00
C370   C     0.06506   0.84979   0.78160   0.00000  Uiso   1.00
C371   C     0.07921   0.86150   0.93073   0.00000  Uiso   1.00
C372   C     0.09548   0.88557   0.90091   0.00000  Uiso   1.00
C373   C     0.12457   0.92456   0.92429   0.00000  Uiso   1.00
C374   C     0.06031   0.80417   0.64427   0.00000  Uiso   1.00
C375   C     0.07046   0.77752   0.67792   0.00000  Uiso   1.00
C376   C     0.08272   0.76318   0.53248   0.00000  Uiso   1.00
C377   C     0.10441   0.73133   0.34261   0.00000  Uiso   1.00
C378   C     0.01559   0.83159   0.70649   0.00000  Uiso   1.00
C379   C     0.98815   0.82799   0.79244   0.00000  Uiso   1.00
C380   C     0.96276   0.83674   0.69936   0.00000  Uiso   1.00
C381   C     0.91503   0.84747   0.60611   0.00000  Uiso   1.00
C382   C     0.04986   0.84543   0.46531   0.00000  Uiso   1.00
C383   C     0.06708   0.86170   0.60879   0.00000  Uiso   1.00
C384   C     0.08333   0.88575   0.57874   0.00000  Uiso   1.00
C385   C     0.09750   0.89750   0.72780   0.00000  Uiso   1.00
C386   C     0.06233   0.81607   0.47146   0.00000  Uiso   1.00
C387   C     0.07458   0.80177   0.32593   0.00000  Uiso   1.00
C388   C     0.08475   0.77511   0.35936   0.00000  Uiso   1.00
C389   C     0.01761   0.84350   0.53368   0.00000  Uiso   1.00
C390   C     0.99227   0.85224   0.44045   0.00000  Uiso   1.00
C391   C     0.96479   0.84866   0.52624   0.00000  Uiso   1.00
H392   H     0.04456   0.81424   0.91799   0.00000  Uiso   1.00
H393   H     0.07765   0.85228   0.06444   0.00000  Uiso   1.00
H394   H     0.06889   0.76831   0.81166   0.00000  Uiso   1.00
H395   H     0.98659   0.81878   0.92617   0.00000  Uiso   1.00
H396   H     0.11522   0.89971   0.15058   0.00000  Uiso   1.00
H397   H     0.09675   0.72264   0.61758   0.00000  Uiso   1.00
H398   H     0.92321   0.82906   0.85903   0.00000  Uiso   1.00
H399   H     0.05143   0.85470   0.33077   0.00000  Uiso   1.00
H400   H     0.08489   0.89496   0.44499   0.00000  Uiso   1.00
H401   H     0.07614   0.81099   0.19222   0.00000  Uiso   1.00
H402   H     0.99384   0.86146   0.30672   0.00000  Uiso   1.00
H403   H     0.12111   0.93434   0.64781   0.00000  Uiso   1.00
H404   H     0.10263   0.75728   0.11481   0.00000  Uiso   1.00
H405   H     0.92909   0.86370   0.35626   0.00000  Uiso   1.00
O406   O     0.14006   0.94278   0.98492   0.00000  Uiso   1.00
O407   O     0.11582   0.71048   0.28564   0.00000  Uiso   1.00
O408   O     0.88814   0.85010   0.60242   0.00000  Uiso   1.00
N409   N     0.11201   0.90234   0.01659   0.00000  Uiso   1.00
N410   N     0.09475   0.73679   0.51827   0.00000  Uiso   1.00
N411   N     0.93250   0.83628   0.74398   0.00000  Uiso   1.00
N412   N     0.11518   0.92097   0.74605   0.00000  Uiso   1.00
N413   N     0.09791   0.75543   0.24773   0.00000  Uiso   1.00
N414   N     0.93566   0.85492   0.47345   0.00000  Uiso   1.00
C415   C     0.04614   0.32351   0.28346   0.00000  Uiso   1.00
C416   C     0.06506   0.34979   0.28160   0.00000  Uiso   1.00
C417   C     0.07921   0.36150   0.43073   0.00000  Uiso   1.00
C418   C     0.09548   0.38557   0.40091   0.00000  Uiso   1.00
C419   C     0.12457   0.42456   0.42429   0.00000  Uiso   1.00
C420   C     0.06031   0.30417   0.14427   0.00000  Uiso   1.00
C421   C     0.07046   0.27752   0.17792   0.00000  Uiso   1.00
C422   C     0.08272   0.26318   0.03248   0.00000  Uiso   1.00
C423   C     0.10441   0.23133   0.84261   0.00000  Uiso   1.00
C424   C     0.01559   0.33159   0.20649   0.00000  Uiso   1.00
C425   C     0.98815   0.32799   0.29244   0.00000  Uiso   1.00
C426   C     0.96276   0.33674   0.19936   0.00000  Uiso   1.00
C427   C     0.91503   0.34747   0.10611   0.00000  Uiso   1.00
C428   C     0.04986   0.34543   0.96531   0.00000  Uiso   1.00
C429   C     0.06708   0.36170   0.10879   0.00000  Uiso   1.00
C430   C     0.08333   0.38575   0.07874   0.00000  Uiso   1.00
C431   C     0.09750   0.39750   0.22780   0.00000  Uiso   1.00
C432   C     0.06233   0.31607   0.97146   0.00000  Uiso   1.00
C433   C     0.07458   0.30177   0.82593   0.00000  Uiso   1.00
C434   C     0.08475   0.27511   0.85936   0.00000  Uiso   1.00
C435   C     0.01761   0.34350   0.03368   0.00000  Uiso   1.00
C436   C     0.99227   0.35224   0.94045   0.00000  Uiso   1.00
C437   C     0.96479   0.34866   0.02624   0.00000  Uiso   1.00
H438   H     0.04456   0.31424   0.41799   0.00000  Uiso   1.00
H439   H     0.07765   0.35228   0.56444   0.00000  Uiso   1.00
H440   H     0.06889   0.26831   0.31166   0.00000  Uiso   1.00
H441   H     0.98659   0.31878   0.42617   0.00000  Uiso   1.00
H442   H     0.11522   0.39971   0.65058   0.00000  Uiso   1.00
H443   H     0.09675   0.22264   0.11758   0.00000  Uiso   1.00
H444   H     0.92321   0.32906   0.35903   0.00000  Uiso   1.00
H445   H     0.05143   0.35470   0.83077   0.00000  Uiso   1.00
H446   H     0.08489   0.39496   0.94499   0.00000  Uiso   1.00
H447   H     0.07614   0.31099   0.69222   0.00000  Uiso   1.00
H448   H     0.99384   0.36146   0.80672   0.00000  Uiso   1.00
H449   H     0.12111   0.43434   0.14781   0.00000  Uiso   1.00
H450   H     0.10263   0.25728   0.61481   0.00000  Uiso   1.00
H451   H     0.92909   0.36370   0.85626   0.00000  Uiso   1.00
O452   O     0.14006   0.44278   0.48492   0.00000  Uiso   1.00
O453   O     0.11582   0.21048   0.78564   0.00000  Uiso   1.00
O454   O     0.88814   0.35010   0.10242   0.00000  Uiso   1.00
N455   N     0.11201   0.40234   0.51659   0.00000  Uiso   1.00
N456   N     0.09475   0.23679   0.01827   0.00000  Uiso   1.00
N457   N     0.93250   0.33628   0.24398   0.00000  Uiso   1.00
N458   N     0.11518   0.42097   0.24605   0.00000  Uiso   1.00
N459   N     0.09791   0.25543   0.74773   0.00000  Uiso   1.00
N460   N     0.93566   0.35492   0.97345   0.00000  Uiso   1.00
C461   C     0.54614   0.82351   0.28346   0.00000  Uiso   1.00
C462   C     0.56506   0.84979   0.28160   0.00000  Uiso   1.00
C463   C     0.57921   0.86150   0.43073   0.00000  Uiso   1.00
C464   C     0.59548   0.88557   0.40091   0.00000  Uiso   1.00
C465   C     0.62457   0.92456   0.42429   0.00000  Uiso   1.00
C466   C     0.56031   0.80417   0.14427   0.00000  Uiso   1.00
C467   C     0.57046   0.77752   0.17792   0.00000  Uiso   1.00
C468   C     0.58272   0.76318   0.03248   0.00000  Uiso   1.00
C469   C     0.60441   0.73133   0.84261   0.00000  Uiso   1.00
C470   C     0.51559   0.83159   0.20649   0.00000  Uiso   1.00
C471   C     0.48815   0.82799   0.29244   0.00000  Uiso   1.00
C472   C     0.46276   0.83674   0.19936   0.00000  Uiso   1.00
C473   C     0.41503   0.84747   0.10611   0.00000  Uiso   1.00
C474   C     0.54986   0.84543   0.96531   0.00000  Uiso   1.00
C475   C     0.56708   0.86170   0.10879   0.00000  Uiso   1.00
C476   C     0.58333   0.88575   0.07874   0.00000  Uiso   1.00
C477   C     0.59750   0.89750   0.22780   0.00000  Uiso   1.00
C478   C     0.56233   0.81607   0.97146   0.00000  Uiso   1.00
C479   C     0.57458   0.80177   0.82593   0.00000  Uiso   1.00
C480   C     0.58475   0.77511   0.85936   0.00000  Uiso   1.00
C481   C     0.51761   0.84350   0.03368   0.00000  Uiso   1.00
C482   C     0.49227   0.85224   0.94045   0.00000  Uiso   1.00
C483   C     0.46479   0.84866   0.02624   0.00000  Uiso   1.00
H484   H     0.54456   0.81424   0.41799   0.00000  Uiso   1.00
H485   H     0.57765   0.85228   0.56444   0.00000  Uiso   1.00
H486   H     0.56889   0.76831   0.31166   0.00000  Uiso   1.00
H487   H     0.48659   0.81878   0.42617   0.00000  Uiso   1.00
H488   H     0.61522   0.89971   0.65058   0.00000  Uiso   1.00
H489   H     0.59675   0.72264   0.11758   0.00000  Uiso   1.00
H490   H     0.42321   0.82906   0.35903   0.00000  Uiso   1.00
H491   H     0.55143   0.85470   0.83077   0.00000  Uiso   1.00
H492   H     0.58489   0.89496   0.94499   0.00000  Uiso   1.00
H493   H     0.57614   0.81099   0.69222   0.00000  Uiso   1.00
H494   H     0.49384   0.86146   0.80672   0.00000  Uiso   1.00
H495   H     0.62111   0.93434   0.14781   0.00000  Uiso   1.00
H496   H     0.60263   0.75728   0.61481   0.00000  Uiso   1.00
H497   H     0.42909   0.86370   0.85626   0.00000  Uiso   1.00
O498   O     0.64006   0.94278   0.48492   0.00000  Uiso   1.00
O499   O     0.61582   0.71048   0.78564   0.00000  Uiso   1.00
O500   O     0.38814   0.85010   0.10242   0.00000  Uiso   1.00
N501   N     0.61201   0.90234   0.51659   0.00000  Uiso   1.00
N502   N     0.59475   0.73679   0.01827   0.00000  Uiso   1.00
N503   N     0.43250   0.83628   0.24398   0.00000  Uiso   1.00
N504   N     0.61518   0.92097   0.24605   0.00000  Uiso   1.00
N505   N     0.59791   0.75543   0.74773   0.00000  Uiso   1.00
N506   N     0.43566   0.85492   0.97345   0.00000  Uiso   1.00
C507   C     0.54614   0.32351   0.78346   0.00000  Uiso   1.00
C508   C     0.56506   0.34979   0.78160   0.00000  Uiso   1.00
C509   C     0.57921   0.36150   0.93073   0.00000  Uiso   1.00
C510   C     0.59548   0.38557   0.90091   0.00000  Uiso   1.00
C511   C     0.62457   0.42456   0.92429   0.00000  Uiso   1.00
C512   C     0.56031   0.30417   0.64427   0.00000  Uiso   1.00
C513   C     0.57046   0.27752   0.67792   0.00000  Uiso   1.00
C514   C     0.58272   0.26318   0.53248   0.00000  Uiso   1.00
C515   C     0.60441   0.23133   0.34261   0.00000  Uiso   1.00
C516   C     0.51559   0.33159   0.70649   0.00000  Uiso   1.00
C517   C     0.48815   0.32799   0.79244   0.00000  Uiso   1.00
C518   C     0.46276   0.33674   0.69936   0.00000  Uiso   1.00
C519   C     0.41503   0.34747   0.60611   0.00000  Uiso   1.00
C520   C     0.54986   0.34543   0.46531   0.00000  Uiso   1.00
C521   C     0.56708   0.36170   0.60879   0.00000  Uiso   1.00
C522   C     0.58333   0.38575   0.57874   0.00000  Uiso   1.00
C523   C     0.59750   0.39750   0.72780   0.00000  Uiso   1.00
C524   C     0.56233   0.31607   0.47146   0.00000  Uiso   1.00
C525   C     0.57458   0.30177   0.32593   0.00000  Uiso   1.00
C526   C     0.58475   0.27511   0.35936   0.00000  Uiso   1.00
C527   C     0.51761   0.34350   0.53368   0.00000  Uiso   1.00
C528   C     0.49227   0.35224   0.44045   0.00000  Uiso   1.00
C529   C     0.46479   0.34866   0.52624   0.00000  Uiso   1.00
H530   H     0.54456   0.31424   0.91799   0.00000  Uiso   1.00
H531   H     0.57765   0.35228   0.06444   0.00000  Uiso   1.00
H532   H     0.56889   0.26831   0.81166   0.00000  Uiso   1.00
H533   H     0.48659   0.31878   0.92617   0.00000  Uiso   1.00
H534   H     0.61522   0.39971   0.15058   0.00000  Uiso   1.00
H535   H     0.59675   0.22264   0.61758   0.00000  Uiso   1.00
H536   H     0.42321   0.32906   0.85903   0.00000  Uiso   1.00
H537   H     0.55143   0.35470   0.33077   0.00000  Uiso   1.00
H538   H     0.58489   0.39496   0.44499   0.00000  Uiso   1.00
H539   H     0.57614   0.31099   0.19222   0.00000  Uiso   1.00
H540   H     0.49384   0.36146   0.30672   0.00000  Uiso   1.00
H541   H     0.62111   0.43434   0.64781   0.00000  Uiso   1.00
H542   H     0.60263   0.25728   0.11481   0.00000  Uiso   1.00
H543   H     0.42909   0.36370   0.35626   0.00000  Uiso   1.00
O544   O     0.64006   0.44278   0.98492   0.00000  Uiso   1.00
O545   O     0.61582   0.21048   0.28564   0.00000  Uiso   1.00
O546   O     0.38814   0.35010   0.60242   0.00000  Uiso   1.00
N547   N     0.61201   0.40234   0.01659   0.00000  Uiso   1.00
N548   N     0.59475   0.23679   0.51827   0.00000  Uiso   1.00
N549   N     0.43250   0.33628   0.74398   0.00000  Uiso   1.00
N550   N     0.61518   0.42097   0.74605   0.00000  Uiso   1.00
N551   N     0.59791   0.25543   0.24773   0.00000  Uiso   1.00
N552   N     0.43566   0.35492   0.47345   0.00000  Uiso   1.00
C553   C     0.45386   0.67649   0.78346   0.00000  Uiso   1.00
C554   C     0.43494   0.65021   0.78160   0.00000  Uiso   1.00
C555   C     0.42079   0.63850   0.93073   0.00000  Uiso   1.00
C556   C     0.40452   0.61443   0.90091   0.00000  Uiso   1.00
C557   C     0.37543   0.57544   0.92429   0.00000  Uiso   1.00
C558   C     0.43969   0.69583   0.64427   0.00000  Uiso   1.00
C559   C     0.42954   0.72248   0.67792   0.00000  Uiso   1.00
C560   C     0.41728   0.73682   0.53248   0.00000  Uiso   1.00
C561   C     0.39559   0.76867   0.34261   0.00000  Uiso   1.00
C562   C     0.48441   0.66841   0.70649   0.00000  Uiso   1.00
C563   C     0.51185   0.67201   0.79244   0.00000  Uiso   1.00
C564   C     0.53724   0.66326   0.69936   0.00000  Uiso   1.00
C565   C     0.58497   0.65253   0.60611   0.00000  Uiso   1.00
C566   C     0.45014   0.65457   0.46531   0.00000  Uiso   1.00
C567   C     0.43292   0.63830   0.60879   0.00000  Uiso   1.00
C568   C     0.41667   0.61425   0.57874   0.00000  Uiso   1.00
C569   C     0.40250   0.60250   0.72780   0.00000  Uiso   1.00
C570   C     0.43767   0.68393   0.47146   0.00000  Uiso   1.00
C571   C     0.42542   0.69823   0.32593   0.00000  Uiso   1.00
C572   C     0.41525   0.72489   0.35936   0.00000  Uiso   1.00
C573   C     0.48239   0.65650   0.53368   0.00000  Uiso   1.00
C574   C     0.50773   0.64776   0.44045   0.00000  Uiso   1.00
C575   C     0.53521   0.65134   0.52624   0.00000  Uiso   1.00
H576   H     0.45544   0.68576   0.91799   0.00000  Uiso   1.00
H577   H     0.42235   0.64772   0.06444   0.00000  Uiso   1.00
H578   H     0.43111   0.73169   0.81166   0.00000  Uiso   1.00
H579   H     0.51341   0.68122   0.92617   0.00000  Uiso   1.00
H580   H     0.38478   0.60029   0.15058   0.00000  Uiso   1.00
H581   H     0.40325   0.77736   0.61758   0.00000  Uiso   1.00
H582   H     0.57679   0.67094   0.85903   0.00000  Uiso   1.00
H583   H     0.44857   0.64530   0.33077   0.00000  Uiso   1.00
H584   H     0.41511   0.60504   0.44499   0.00000  Uiso   1.00
H585   H     0.42386   0.68901   0.19222   0.00000  Uiso   1.00
H586   H     0.50616   0.63854   0.30672   0.00000  Uiso   1.00
H587   H     0.37889   0.56566   0.64781   0.00000  Uiso   1.00
H588   H     0.39737   0.74272   0.11481   0.00000  Uiso   1.00
H589   H     0.57091   0.63630   0.35626   0.00000  Uiso   1.00
O590   O     0.35994   0.55722   0.98492   0.00000  Uiso   1.00
O591   O     0.38418   0.78952   0.28564   0.00000  Uiso   1.00
O592   O     0.61186   0.64990   0.60242   0.00000  Uiso   1.00
N593   N     0.38799   0.59766   0.01659   0.00000  Uiso   1.00
N594   N     0.40525   0.76321   0.51827   0.00000  Uiso   1.00
N595   N     0.56750   0.66372   0.74398   0.00000  Uiso   1.00
N596   N     0.38482   0.57903   0.74605   0.00000  Uiso   1.00
N597   N     0.40209   0.74457   0.24773   0.00000  Uiso   1.00
N598   N     0.56434   0.64508   0.47345   0.00000  Uiso   1.00
C599   C     0.45386   0.17649   0.28346   0.00000  Uiso   1.00
C600   C     0.43494   0.15021   0.28160   0.00000  Uiso   1.00
C601   C     0.42079   0.13850   0.43073   0.00000  Uiso   1.00
C602   C     0.40452   0.11443   0.40091   0.00000  Uiso   1.00
C603   C     0.37543   0.07544   0.42429   0.00000  Uiso   1.00
C604   C     0.43969   0.19583   0.14427   0.00000  Uiso   1.00
C605   C     0.42954   0.22248   0.17792   0.00000  Uiso   1.00
C606   C     0.41728   0.23682   0.03248   0.00000  Uiso   1.00
C607   C     0.39559   0.26867   0.84261   0.00000  Uiso   1.00
C608   C     0.48441   0.16841   0.20649   0.00000  Uiso   1.00
C609   C     0.51185   0.17201   0.29244   0.00000  Uiso   1.00
C610   C     0.53724   0.16326   0.19936   0.00000  Uiso   1.00
C611   C     0.58497   0.15253   0.10611   0.00000  Uiso   1.00
C612   C     0.45014   0.15457   0.96531   0.00000  Uiso   1.00
C613   C     0.43292   0.13830   0.10879   0.00000  Uiso   1.00
C614   C     0.41667   0.11425   0.07874   0.00000  Uiso   1.00
C615   C     0.40250   0.10250   0.22780   0.00000  Uiso   1.00
C616   C     0.43767   0.18393   0.97146   0.00000  Uiso   1.00
C617   C     0.42542   0.19823   0.82593   0.00000  Uiso   1.00
C618   C     0.41525   0.22489   0.85936   0.00000  Uiso   1.00
C619   C     0.48239   0.15650   0.03368   0.00000  Uiso   1.00
C620   C     0.50773   0.14776   0.94045   0.00000  Uiso   1.00
C621   C     0.53521   0.15134   0.02624   0.00000  Uiso   1.00
H622   H     0.45544   0.18576   0.41799   0.00000  Uiso   1.00
H623   H     0.42235   0.14772   0.56444   0.00000  Uiso   1.00
H624   H     0.43111   0.23169   0.31166   0.00000  Uiso   1.00
H625   H     0.51341   0.18122   0.42617   0.00000  Uiso   1.00
H626   H     0.38478   0.10029   0.65058   0.00000  Uiso   1.00
H627   H     0.40325   0.27736   0.11758   0.00000  Uiso   1.00
H628   H     0.57679   0.17094   0.35903   0.00000  Uiso   1.00
H629   H     0.44857   0.14530   0.83077   0.00000  Uiso   1.00
H630   H     0.41511   0.10504   0.94499   0.00000  Uiso   1.00
H631   H     0.42386   0.18901   0.69222   0.00000  Uiso   1.00
H632   H     0.50616   0.13854   0.80672   0.00000  Uiso   1.00
H633   H     0.37889   0.06566   0.14781   0.00000  Uiso   1.00
H634   H     0.39737   0.24272   0.61481   0.00000  Uiso   1.00
H635   H     0.57091   0.13630   0.85626   0.00000  Uiso   1.00
O636   O     0.35994   0.05722   0.48492   0.00000  Uiso   1.00
O637   O     0.38418   0.28952   0.78564   0.00000  Uiso   1.00
O638   O     0.61186   0.14990   0.10242   0.00000  Uiso   1.00
N639   N     0.38799   0.09766   0.51659   0.00000  Uiso   1.00
N640   N     0.40525   0.26321   0.01827   0.00000  Uiso   1.00
N641   N     0.56750   0.16372   0.24398   0.00000  Uiso   1.00
N642   N     0.38482   0.07903   0.24605   0.00000  Uiso   1.00
N643   N     0.40209   0.24457   0.74773   0.00000  Uiso   1.00
N644   N     0.56434   0.14508   0.97345   0.00000  Uiso   1.00
C645   C     0.95386   0.67649   0.28346   0.00000  Uiso   1.00
C646   C     0.93494   0.65021   0.28160   0.00000  Uiso   1.00
C647   C     0.92079   0.63850   0.43073   0.00000  Uiso   1.00
C648   C     0.90452   0.61443   0.40091   0.00000  Uiso   1.00
C649   C     0.87543   0.57544   0.42429   0.00000  Uiso   1.00
C650   C     0.93969   0.69583   0.14427   0.00000  Uiso   1.00
C651   C     0.92954   0.72248   0.17792   0.00000  Uiso   1.00
C652   C     0.91728   0.73682   0.03248   0.00000  Uiso   1.00
C653   C     0.89559   0.76867   0.84261   0.00000  Uiso   1.00
C654   C     0.98441   0.66841   0.20649   0.00000  Uiso   1.00
C655   C     0.01185   0.67201   0.29244   0.00000  Uiso   1.00
C656   C     0.03724   0.66326   0.19936   0.00000  Uiso   1.00
C657   C     0.08497   0.65253   0.10611   0.00000  Uiso   1.00
C658   C     0.95014   0.65457   0.96531   0.00000  Uiso   1.00
C659   C     0.93292   0.63830   0.10879   0.00000  Uiso   1.00
C660   C     0.91667   0.61425   0.07874   0.00000  Uiso   1.00
C661   C     0.90250   0.60250   0.22780   0.00000  Uiso   1.00
C662   C     0.93767   0.68393   0.97146   0.00000  Uiso   1.00
C663   C     0.92542   0.69823   0.82593   0.00000  Uiso   1.00
C664   C     0.91525   0.72489   0.85936   0.00000  Uiso   1.00
C665   C     0.98239   0.65650   0.03368   0.00000  Uiso   1.00
C666   C     0.00773   0.64776   0.94045   0.00000  Uiso   1.00
C667   C     0.03521   0.65134   0.02624   0.00000  Uiso   1.00
H668   H     0.95544   0.68576   0.41799   0.00000  Uiso   1.00
H669   H     0.92235   0.64772   0.56444   0.00000  Uiso   1.00
H670   H     0.93111   0.73169   0.31166   0.00000  Uiso   1.00
H671   H     0.01341   0.68122   0.42617   0.00000  Uiso   1.00
H672   H     0.88478   0.60029   0.65058   0.00000  Uiso   1.00
H673   H     0.90325   0.77736   0.11758   0.00000  Uiso   1.00
H674   H     0.07679   0.67094   0.35903   0.00000  Uiso   1.00
H675   H     0.94857   0.64530   0.83077   0.00000  Uiso   1.00
H676   H     0.91511   0.60504   0.94499   0.00000  Uiso   1.00
H677   H     0.92386   0.68901   0.69222   0.00000  Uiso   1.00
H678   H     0.00616   0.63854   0.80672   0.00000  Uiso   1.00
H679   H     0.87889   0.56566   0.14781   0.00000  Uiso   1.00
H680   H     0.89737   0.74272   0.61481   0.00000  Uiso   1.00
H681   H     0.07091   0.63630   0.85626   0.00000  Uiso   1.00
O682   O     0.85994   0.55722   0.48492   0.00000  Uiso   1.00
O683   O     0.88418   0.78952   0.78564   0.00000  Uiso   1.00
O684   O     0.11186   0.64990   0.10242   0.00000  Uiso   1.00
N685   N     0.88799   0.59766   0.51659   0.00000  Uiso   1.00
N686   N     0.90525   0.76321   0.01827   0.00000  Uiso   1.00
N687   N     0.06750   0.66372   0.24398   0.00000  Uiso   1.00
N688   N     0.88482   0.57903   0.24605   0.00000  Uiso   1.00
N689   N     0.90209   0.74457   0.74773   0.00000  Uiso   1.00
N690   N     0.06434   0.64508   0.97345   0.00000  Uiso   1.00
C691   C     0.95386   0.17649   0.78346   0.00000  Uiso   1.00
C692   C     0.93494   0.15021   0.78160   0.00000  Uiso   1.00
C693   C     0.92079   0.13850   0.93073   0.00000  Uiso   1.00
C694   C     0.90452   0.11443   0.90091   0.00000  Uiso   1.00
C695   C     0.87543   0.07544   0.92429   0.00000  Uiso   1.00
C696   C     0.93969   0.19583   0.64427   0.00000  Uiso   1.00
C697   C     0.92954   0.22248   0.67792   0.00000  Uiso   1.00
C698   C     0.91728   0.23682   0.53248   0.00000  Uiso   1.00
C699   C     0.89559   0.26867   0.34261   0.00000  Uiso   1.00
C700   C     0.98441   0.16841   0.70649   0.00000  Uiso   1.00
C701   C     0.01185   0.17201   0.79244   0.00000  Uiso   1.00
C702   C     0.03724   0.16326   0.69936   0.00000  Uiso   1.00
C703   C     0.08497   0.15253   0.60611   0.00000  Uiso   1.00
C704   C     0.95014   0.15457   0.46531   0.00000  Uiso   1.00
C705   C     0.93292   0.13830   0.60879   0.00000  Uiso   1.00
C706   C     0.91667   0.11425   0.57874   0.00000  Uiso   1.00
C707   C     0.90250   0.10250   0.72780   0.00000  Uiso   1.00
C708   C     0.93767   0.18393   0.47146   0.00000  Uiso   1.00
C709   C     0.92542   0.19823   0.32593   0.00000  Uiso   1.00
C710   C     0.91525   0.22489   0.35936   0.00000  Uiso   1.00
C711   C     0.98239   0.15650   0.53368   0.00000  Uiso   1.00
C712   C     0.00773   0.14776   0.44045   0.00000  Uiso   1.00
C713   C     0.03521   0.15134   0.52624   0.00000  Uiso   1.00
H714   H     0.95544   0.18576   0.91799   0.00000  Uiso   1.00
H715   H     0.92235   0.14772   0.06444   0.00000  Uiso   1.00
H716   H     0.93111   0.23169   0.81166   0.00000  Uiso   1.00
H717   H     0.01341   0.18122   0.92617   0.00000  Uiso   1.00
H718   H     0.88478   0.10029   0.15058   0.00000  Uiso   1.00
H719   H     0.90325   0.27736   0.61758   0.00000  Uiso   1.00
H720   H     0.07679   0.17094   0.85903   0.00000  Uiso   1.00
H721   H     0.94857   0.14530   0.33077   0.00000  Uiso   1.00
H722   H     0.91511   0.10504   0.44499   0.00000  Uiso   1.00
H723   H     0.92386   0.18901   0.19222   0.00000  Uiso   1.00
H724   H     0.00616   0.13854   0.30672   0.00000  Uiso   1.00
H725   H     0.87889   0.06566   0.64781   0.00000  Uiso   1.00
H726   H     0.89737   0.24272   0.11481   0.00000  Uiso   1.00
H727   H     0.07091   0.13630   0.35626   0.00000  Uiso   1.00
O728   O     0.85994   0.05722   0.98492   0.00000  Uiso   1.00
O729   O     0.88418   0.28952   0.28564   0.00000  Uiso   1.00
O730   O     0.11186   0.14990   0.60242   0.00000  Uiso   1.00
N731   N     0.88799   0.09766   0.01659   0.00000  Uiso   1.00
N732   N     0.90525   0.26321   0.51827   0.00000  Uiso   1.00
N733   N     0.06750   0.16372   0.74398   0.00000  Uiso   1.00
N734   N     0.88482   0.07903   0.74605   0.00000  Uiso   1.00
N735   N     0.90209   0.24457   0.24773   0.00000  Uiso   1.00
N736   N     0.06434   0.14508   0.47345   0.00000  Uiso   1.00
