data_job_05790
_audit_creation_date              2018-12-19
_audit_creation_method            'Materials Studio'
_symmetry_space_group_name_H-M    'P1'
_symmetry_Int_Tables_number       1
_symmetry_cell_setting            triclinic
loop_
_symmetry_equiv_pos_as_xyz
  x,y,z
_cell_length_a                    29.0904
_cell_length_b                    19.2229
_cell_length_c                    19.1939
_cell_angle_alpha                 90.0000
_cell_angle_beta                  90.0000
_cell_angle_gamma                 90.0000
loop_
_atom_site_label
_atom_site_type_symbol
_atom_site_fract_x
_atom_site_fract_y
_atom_site_fract_z
_atom_site_U_iso_or_equiv
_atom_site_adp_type
_atom_site_occupancy
C1     C     0.16025   0.84742   0.15269   0.00000  Uiso   1.00
C2     C     0.17991   0.87059   0.22259   0.00000  Uiso   1.00
C3     C     0.22568   0.88600   0.23589   0.00000  Uiso   1.00
C4     C     0.23675   0.90625   0.30327   0.00000  Uiso   1.00
C5     C     0.27238   0.94148   0.40388   0.00000  Uiso   1.00
C6     C     0.13620   0.77826   0.16627   0.00000  Uiso   1.00
C7     C     0.14522   0.71605   0.13222   0.00000  Uiso   1.00
C8     C     0.11948   0.65857   0.15219   0.00000  Uiso   1.00
C9     C     0.08723   0.55047   0.16534   0.00000  Uiso   1.00
C10    C     0.12234   0.89928   0.13499   0.00000  Uiso   1.00
C11    C     0.11970   0.93881   0.07462   0.00000  Uiso   1.00
C12    C     0.08229   0.98322   0.06824   0.00000  Uiso   1.00
C13    C     0.02852   0.06301   0.03281   0.00000  Uiso   1.00
C14    C     0.09852   0.85597   0.24869   0.00000  Uiso   1.00
C15    C     0.14638   0.87523   0.27473   0.00000  Uiso   1.00
C16    C     0.15738   0.89546   0.34211   0.00000  Uiso   1.00
C17    C     0.20316   0.91091   0.35551   0.00000  Uiso   1.00
C18    C     0.10267   0.78290   0.21842   0.00000  Uiso   1.00
C19    C     0.07691   0.72551   0.23843   0.00000  Uiso   1.00
C20    C     0.08589   0.66322   0.20442   0.00000  Uiso   1.00
C21    C     0.08881   0.90392   0.18713   0.00000  Uiso   1.00
C22    C     0.05140   0.94827   0.18084   0.00000  Uiso   1.00
C23    C     0.04870   0.98787   0.12048   0.00000  Uiso   1.00
H24    H     0.18636   0.84380   0.11209   0.00000  Uiso   1.00
H25    H     0.25162   0.88240   0.19552   0.00000  Uiso   1.00
H26    H     0.17117   0.71247   0.09187   0.00000  Uiso   1.00
H27    H     0.14565   0.93520   0.03428   0.00000  Uiso   1.00
H28    H     0.30920   0.92721   0.31103   0.00000  Uiso   1.00
H29    H     0.13954   0.56891   0.09244   0.00000  Uiso   1.00
H30    H     0.08574   0.03859   0.97101   0.00000  Uiso   1.00
H31    H     0.07241   0.85959   0.28929   0.00000  Uiso   1.00
H32    H     0.13142   0.89905   0.38245   0.00000  Uiso   1.00
H33    H     0.05097   0.72912   0.27879   0.00000  Uiso   1.00
H34    H     0.02545   0.95185   0.22120   0.00000  Uiso   1.00
H35    H     0.21164   0.94073   0.46274   0.00000  Uiso   1.00
H36    H     0.04198   0.58243   0.24415   0.00000  Uiso   1.00
H37    H     0.98818   0.05210   0.12272   0.00000  Uiso   1.00
O38    O     0.30130   0.95962   0.44498   0.00000  Uiso   1.00
O39    O     0.07871   0.48955   0.15819   0.00000  Uiso   1.00
O40    O     0.00812   0.10575   0.99888   0.00000  Uiso   1.00
N41    N     0.27814   0.92499   0.33395   0.00000  Uiso   1.00
N42    N     0.11952   0.59000   0.12959   0.00000  Uiso   1.00
N43    N     0.06922   0.02909   0.01605   0.00000  Uiso   1.00
N44    N     0.22564   0.93226   0.41558   0.00000  Uiso   1.00
N45    N     0.06702   0.59727   0.21122   0.00000  Uiso   1.00
N46    N     0.01672   0.03636   0.09769   0.00000  Uiso   1.00
C47    C     0.66025   0.34742   0.65269   0.00000  Uiso   1.00
C48    C     0.67991   0.37059   0.72259   0.00000  Uiso   1.00
C49    C     0.72568   0.38600   0.73589   0.00000  Uiso   1.00
C50    C     0.73675   0.40625   0.80327   0.00000  Uiso   1.00
C51    C     0.77238   0.44148   0.90388   0.00000  Uiso   1.00
C52    C     0.63620   0.27826   0.66627   0.00000  Uiso   1.00
C53    C     0.64522   0.21605   0.63222   0.00000  Uiso   1.00
C54    C     0.61948   0.15857   0.65219   0.00000  Uiso   1.00
C55    C     0.58723   0.05047   0.66534   0.00000  Uiso   1.00
C56    C     0.62234   0.39928   0.63499   0.00000  Uiso   1.00
C57    C     0.61970   0.43881   0.57462   0.00000  Uiso   1.00
C58    C     0.58229   0.48322   0.56824   0.00000  Uiso   1.00
C59    C     0.52852   0.56301   0.53281   0.00000  Uiso   1.00
C60    C     0.59852   0.35597   0.74869   0.00000  Uiso   1.00
C61    C     0.64638   0.37523   0.77473   0.00000  Uiso   1.00
C62    C     0.65738   0.39546   0.84211   0.00000  Uiso   1.00
C63    C     0.70316   0.41091   0.85551   0.00000  Uiso   1.00
C64    C     0.60267   0.28290   0.71842   0.00000  Uiso   1.00
C65    C     0.57691   0.22551   0.73843   0.00000  Uiso   1.00
C66    C     0.58589   0.16322   0.70442   0.00000  Uiso   1.00
C67    C     0.58881   0.40392   0.68713   0.00000  Uiso   1.00
C68    C     0.55140   0.44827   0.68084   0.00000  Uiso   1.00
C69    C     0.54870   0.48787   0.62048   0.00000  Uiso   1.00
H70    H     0.68636   0.34380   0.61209   0.00000  Uiso   1.00
H71    H     0.75162   0.38240   0.69552   0.00000  Uiso   1.00
H72    H     0.67117   0.21247   0.59187   0.00000  Uiso   1.00
H73    H     0.64565   0.43520   0.53428   0.00000  Uiso   1.00
H74    H     0.80920   0.42721   0.81103   0.00000  Uiso   1.00
H75    H     0.63954   0.06891   0.59244   0.00000  Uiso   1.00
H76    H     0.58574   0.53859   0.47101   0.00000  Uiso   1.00
H77    H     0.57241   0.35959   0.78929   0.00000  Uiso   1.00
H78    H     0.63142   0.39905   0.88245   0.00000  Uiso   1.00
H79    H     0.55097   0.22912   0.77879   0.00000  Uiso   1.00
H80    H     0.52545   0.45185   0.72120   0.00000  Uiso   1.00
H81    H     0.71164   0.44073   0.96274   0.00000  Uiso   1.00
H82    H     0.54198   0.08243   0.74415   0.00000  Uiso   1.00
H83    H     0.48818   0.55210   0.62272   0.00000  Uiso   1.00
O84    O     0.80130   0.45962   0.94498   0.00000  Uiso   1.00
O85    O     0.57871   0.98955   0.65819   0.00000  Uiso   1.00
O86    O     0.50812   0.60575   0.49888   0.00000  Uiso   1.00
N87    N     0.77814   0.42499   0.83395   0.00000  Uiso   1.00
N88    N     0.61952   0.09000   0.62959   0.00000  Uiso   1.00
N89    N     0.56922   0.52909   0.51605   0.00000  Uiso   1.00
N90    N     0.72564   0.43226   0.91558   0.00000  Uiso   1.00
N91    N     0.56702   0.09727   0.71122   0.00000  Uiso   1.00
N92    N     0.51672   0.53636   0.59769   0.00000  Uiso   1.00
C93    C     0.33975   0.15258   0.65269   0.00000  Uiso   1.00
C94    C     0.32009   0.12941   0.72259   0.00000  Uiso   1.00
C95    C     0.27432   0.11400   0.73589   0.00000  Uiso   1.00
C96    C     0.26325   0.09375   0.80327   0.00000  Uiso   1.00
C97    C     0.22762   0.05852   0.90388   0.00000  Uiso   1.00
C98    C     0.36380   0.22174   0.66627   0.00000  Uiso   1.00
C99    C     0.35478   0.28395   0.63222   0.00000  Uiso   1.00
C100   C     0.38052   0.34143   0.65219   0.00000  Uiso   1.00
C101   C     0.41277   0.44953   0.66534   0.00000  Uiso   1.00
C102   C     0.37766   0.10072   0.63499   0.00000  Uiso   1.00
C103   C     0.38030   0.06119   0.57462   0.00000  Uiso   1.00
C104   C     0.41771   0.01678   0.56824   0.00000  Uiso   1.00
C105   C     0.47148   0.93699   0.53281   0.00000  Uiso   1.00
C106   C     0.40148   0.14403   0.74869   0.00000  Uiso   1.00
C107   C     0.35362   0.12477   0.77473   0.00000  Uiso   1.00
C108   C     0.34262   0.10454   0.84211   0.00000  Uiso   1.00
C109   C     0.29684   0.08909   0.85551   0.00000  Uiso   1.00
C110   C     0.39733   0.21710   0.71842   0.00000  Uiso   1.00
C111   C     0.42309   0.27449   0.73843   0.00000  Uiso   1.00
C112   C     0.41411   0.33678   0.70442   0.00000  Uiso   1.00
C113   C     0.41119   0.09608   0.68713   0.00000  Uiso   1.00
C114   C     0.44860   0.05173   0.68084   0.00000  Uiso   1.00
C115   C     0.45130   0.01213   0.62048   0.00000  Uiso   1.00
H116   H     0.31364   0.15620   0.61209   0.00000  Uiso   1.00
H117   H     0.24838   0.11760   0.69552   0.00000  Uiso   1.00
H118   H     0.32883   0.28753   0.59187   0.00000  Uiso   1.00
H119   H     0.35435   0.06480   0.53428   0.00000  Uiso   1.00
H120   H     0.19080   0.07279   0.81103   0.00000  Uiso   1.00
H121   H     0.36046   0.43109   0.59244   0.00000  Uiso   1.00
H122   H     0.41426   0.96141   0.47101   0.00000  Uiso   1.00
H123   H     0.42759   0.14041   0.78929   0.00000  Uiso   1.00
H124   H     0.36858   0.10095   0.88245   0.00000  Uiso   1.00
H125   H     0.44903   0.27088   0.77879   0.00000  Uiso   1.00
H126   H     0.47455   0.04815   0.72120   0.00000  Uiso   1.00
H127   H     0.28836   0.05927   0.96274   0.00000  Uiso   1.00
H128   H     0.45802   0.41757   0.74415   0.00000  Uiso   1.00
H129   H     0.51182   0.94790   0.62272   0.00000  Uiso   1.00
O130   O     0.19870   0.04038   0.94498   0.00000  Uiso   1.00
O131   O     0.42129   0.51045   0.65819   0.00000  Uiso   1.00
O132   O     0.49188   0.89425   0.49888   0.00000  Uiso   1.00
N133   N     0.22186   0.07501   0.83395   0.00000  Uiso   1.00
N134   N     0.38048   0.41000   0.62959   0.00000  Uiso   1.00
N135   N     0.43078   0.97091   0.51605   0.00000  Uiso   1.00
N136   N     0.27436   0.06774   0.91558   0.00000  Uiso   1.00
N137   N     0.43298   0.40273   0.71122   0.00000  Uiso   1.00
N138   N     0.48328   0.96364   0.59769   0.00000  Uiso   1.00
C139   C     0.83975   0.65258   0.15269   0.00000  Uiso   1.00
C140   C     0.82009   0.62941   0.22259   0.00000  Uiso   1.00
C141   C     0.77432   0.61400   0.23589   0.00000  Uiso   1.00
C142   C     0.76325   0.59375   0.30327   0.00000  Uiso   1.00
C143   C     0.72762   0.55852   0.40388   0.00000  Uiso   1.00
C144   C     0.86380   0.72174   0.16627   0.00000  Uiso   1.00
C145   C     0.85478   0.78395   0.13222   0.00000  Uiso   1.00
C146   C     0.88052   0.84143   0.15219   0.00000  Uiso   1.00
C147   C     0.91277   0.94953   0.16534   0.00000  Uiso   1.00
C148   C     0.87766   0.60072   0.13499   0.00000  Uiso   1.00
C149   C     0.88030   0.56119   0.07462   0.00000  Uiso   1.00
C150   C     0.91771   0.51678   0.06824   0.00000  Uiso   1.00
C151   C     0.97148   0.43699   0.03281   0.00000  Uiso   1.00
C152   C     0.90148   0.64403   0.24869   0.00000  Uiso   1.00
C153   C     0.85362   0.62477   0.27473   0.00000  Uiso   1.00
C154   C     0.84262   0.60454   0.34211   0.00000  Uiso   1.00
C155   C     0.79684   0.58909   0.35551   0.00000  Uiso   1.00
C156   C     0.89733   0.71710   0.21842   0.00000  Uiso   1.00
C157   C     0.92309   0.77449   0.23843   0.00000  Uiso   1.00
C158   C     0.91411   0.83678   0.20442   0.00000  Uiso   1.00
C159   C     0.91119   0.59608   0.18713   0.00000  Uiso   1.00
C160   C     0.94860   0.55173   0.18084   0.00000  Uiso   1.00
C161   C     0.95130   0.51213   0.12048   0.00000  Uiso   1.00
H162   H     0.81364   0.65620   0.11209   0.00000  Uiso   1.00
H163   H     0.74838   0.61760   0.19552   0.00000  Uiso   1.00
H164   H     0.82883   0.78753   0.09187   0.00000  Uiso   1.00
H165   H     0.85435   0.56480   0.03428   0.00000  Uiso   1.00
H166   H     0.69080   0.57279   0.31103   0.00000  Uiso   1.00
H167   H     0.86046   0.93109   0.09244   0.00000  Uiso   1.00
H168   H     0.91426   0.46141   0.97101   0.00000  Uiso   1.00
H169   H     0.92759   0.64041   0.28929   0.00000  Uiso   1.00
H170   H     0.86858   0.60095   0.38245   0.00000  Uiso   1.00
H171   H     0.94903   0.77088   0.27879   0.00000  Uiso   1.00
H172   H     0.97455   0.54815   0.22120   0.00000  Uiso   1.00
H173   H     0.78836   0.55927   0.46274   0.00000  Uiso   1.00
H174   H     0.95802   0.91757   0.24415   0.00000  Uiso   1.00
H175   H     0.01182   0.44790   0.12272   0.00000  Uiso   1.00
O176   O     0.69870   0.54038   0.44498   0.00000  Uiso   1.00
O177   O     0.92129   0.01045   0.15819   0.00000  Uiso   1.00
O178   O     0.99188   0.39425   0.99888   0.00000  Uiso   1.00
N179   N     0.72186   0.57501   0.33395   0.00000  Uiso   1.00
N180   N     0.88048   0.91000   0.12959   0.00000  Uiso   1.00
N181   N     0.93078   0.47091   0.01605   0.00000  Uiso   1.00
N182   N     0.77436   0.56774   0.41558   0.00000  Uiso   1.00
N183   N     0.93298   0.90273   0.21122   0.00000  Uiso   1.00
N184   N     0.98328   0.46364   0.09769   0.00000  Uiso   1.00
C185   C     0.83975   0.34742   0.34731   0.00000  Uiso   1.00
C186   C     0.82009   0.37059   0.27741   0.00000  Uiso   1.00
C187   C     0.77432   0.38600   0.26411   0.00000  Uiso   1.00
C188   C     0.76325   0.40625   0.19673   0.00000  Uiso   1.00
C189   C     0.72762   0.44148   0.09612   0.00000  Uiso   1.00
C190   C     0.86380   0.27826   0.33373   0.00000  Uiso   1.00
C191   C     0.85478   0.21605   0.36778   0.00000  Uiso   1.00
C192   C     0.88052   0.15857   0.34781   0.00000  Uiso   1.00
C193   C     0.91277   0.05047   0.33466   0.00000  Uiso   1.00
C194   C     0.87766   0.39928   0.36501   0.00000  Uiso   1.00
C195   C     0.88030   0.43881   0.42538   0.00000  Uiso   1.00
C196   C     0.91771   0.48322   0.43176   0.00000  Uiso   1.00
C197   C     0.97148   0.56301   0.46719   0.00000  Uiso   1.00
C198   C     0.90148   0.35597   0.25131   0.00000  Uiso   1.00
C199   C     0.85362   0.37523   0.22527   0.00000  Uiso   1.00
C200   C     0.84262   0.39546   0.15789   0.00000  Uiso   1.00
C201   C     0.79684   0.41091   0.14449   0.00000  Uiso   1.00
C202   C     0.89733   0.28290   0.28158   0.00000  Uiso   1.00
C203   C     0.92309   0.22551   0.26157   0.00000  Uiso   1.00
C204   C     0.91411   0.16322   0.29558   0.00000  Uiso   1.00
C205   C     0.91119   0.40392   0.31287   0.00000  Uiso   1.00
C206   C     0.94860   0.44827   0.31916   0.00000  Uiso   1.00
C207   C     0.95130   0.48787   0.37952   0.00000  Uiso   1.00
H208   H     0.81364   0.34380   0.38791   0.00000  Uiso   1.00
H209   H     0.74838   0.38240   0.30448   0.00000  Uiso   1.00
H210   H     0.82883   0.21247   0.40813   0.00000  Uiso   1.00
H211   H     0.85435   0.43520   0.46572   0.00000  Uiso   1.00
H212   H     0.69080   0.42721   0.18897   0.00000  Uiso   1.00
H213   H     0.86046   0.06891   0.40756   0.00000  Uiso   1.00
H214   H     0.91426   0.53859   0.52899   0.00000  Uiso   1.00
H215   H     0.92759   0.35959   0.21071   0.00000  Uiso   1.00
H216   H     0.86858   0.39905   0.11755   0.00000  Uiso   1.00
H217   H     0.94903   0.22912   0.22121   0.00000  Uiso   1.00
H218   H     0.97455   0.45185   0.27880   0.00000  Uiso   1.00
H219   H     0.78836   0.44073   0.03726   0.00000  Uiso   1.00
H220   H     0.95802   0.08243   0.25585   0.00000  Uiso   1.00
H221   H     0.01182   0.55210   0.37728   0.00000  Uiso   1.00
O222   O     0.69870   0.45962   0.05502   0.00000  Uiso   1.00
O223   O     0.92129   0.98955   0.34181   0.00000  Uiso   1.00
O224   O     0.99188   0.60575   0.50112   0.00000  Uiso   1.00
N225   N     0.72186   0.42499   0.16605   0.00000  Uiso   1.00
N226   N     0.88048   0.09000   0.37041   0.00000  Uiso   1.00
N227   N     0.93078   0.52909   0.48395   0.00000  Uiso   1.00
N228   N     0.77436   0.43226   0.08442   0.00000  Uiso   1.00
N229   N     0.93298   0.09727   0.28878   0.00000  Uiso   1.00
N230   N     0.98328   0.53636   0.40231   0.00000  Uiso   1.00
C231   C     0.33975   0.84742   0.84731   0.00000  Uiso   1.00
C232   C     0.32009   0.87059   0.77741   0.00000  Uiso   1.00
C233   C     0.27432   0.88600   0.76411   0.00000  Uiso   1.00
C234   C     0.26325   0.90625   0.69673   0.00000  Uiso   1.00
C235   C     0.22762   0.94148   0.59612   0.00000  Uiso   1.00
C236   C     0.36380   0.77826   0.83373   0.00000  Uiso   1.00
C237   C     0.35478   0.71605   0.86778   0.00000  Uiso   1.00
C238   C     0.38052   0.65857   0.84781   0.00000  Uiso   1.00
C239   C     0.41277   0.55047   0.83466   0.00000  Uiso   1.00
C240   C     0.37766   0.89928   0.86501   0.00000  Uiso   1.00
C241   C     0.38030   0.93881   0.92538   0.00000  Uiso   1.00
C242   C     0.41771   0.98322   0.93176   0.00000  Uiso   1.00
C243   C     0.47148   0.06301   0.96719   0.00000  Uiso   1.00
C244   C     0.40148   0.85597   0.75131   0.00000  Uiso   1.00
C245   C     0.35362   0.87523   0.72527   0.00000  Uiso   1.00
C246   C     0.34262   0.89546   0.65789   0.00000  Uiso   1.00
C247   C     0.29684   0.91091   0.64449   0.00000  Uiso   1.00
C248   C     0.39733   0.78290   0.78158   0.00000  Uiso   1.00
C249   C     0.42309   0.72551   0.76157   0.00000  Uiso   1.00
C250   C     0.41411   0.66322   0.79558   0.00000  Uiso   1.00
C251   C     0.41119   0.90392   0.81287   0.00000  Uiso   1.00
C252   C     0.44860   0.94827   0.81916   0.00000  Uiso   1.00
C253   C     0.45130   0.98787   0.87952   0.00000  Uiso   1.00
H254   H     0.31364   0.84380   0.88791   0.00000  Uiso   1.00
H255   H     0.24838   0.88240   0.80448   0.00000  Uiso   1.00
H256   H     0.32883   0.71247   0.90813   0.00000  Uiso   1.00
H257   H     0.35435   0.93520   0.96572   0.00000  Uiso   1.00
H258   H     0.19080   0.92721   0.68897   0.00000  Uiso   1.00
H259   H     0.36046   0.56891   0.90756   0.00000  Uiso   1.00
H260   H     0.41426   0.03859   0.02899   0.00000  Uiso   1.00
H261   H     0.42759   0.85959   0.71071   0.00000  Uiso   1.00
H262   H     0.36858   0.89905   0.61755   0.00000  Uiso   1.00
H263   H     0.44903   0.72912   0.72121   0.00000  Uiso   1.00
H264   H     0.47455   0.95185   0.77880   0.00000  Uiso   1.00
H265   H     0.28836   0.94073   0.53726   0.00000  Uiso   1.00
H266   H     0.45802   0.58243   0.75585   0.00000  Uiso   1.00
H267   H     0.51182   0.05210   0.87728   0.00000  Uiso   1.00
O268   O     0.19870   0.95962   0.55502   0.00000  Uiso   1.00
O269   O     0.42129   0.48955   0.84181   0.00000  Uiso   1.00
O270   O     0.49188   0.10575   0.00112   0.00000  Uiso   1.00
N271   N     0.22186   0.92499   0.66605   0.00000  Uiso   1.00
N272   N     0.38048   0.59000   0.87041   0.00000  Uiso   1.00
N273   N     0.43078   0.02909   0.98395   0.00000  Uiso   1.00
N274   N     0.27436   0.93226   0.58442   0.00000  Uiso   1.00
N275   N     0.43298   0.59727   0.78878   0.00000  Uiso   1.00
N276   N     0.48328   0.03636   0.90231   0.00000  Uiso   1.00
C277   C     0.66025   0.65258   0.84731   0.00000  Uiso   1.00
C278   C     0.67991   0.62941   0.77741   0.00000  Uiso   1.00
C279   C     0.72568   0.61400   0.76411   0.00000  Uiso   1.00
C280   C     0.73675   0.59375   0.69673   0.00000  Uiso   1.00
C281   C     0.77238   0.55852   0.59612   0.00000  Uiso   1.00
C282   C     0.63620   0.72174   0.83373   0.00000  Uiso   1.00
C283   C     0.64522   0.78395   0.86778   0.00000  Uiso   1.00
C284   C     0.61948   0.84143   0.84781   0.00000  Uiso   1.00
C285   C     0.58723   0.94953   0.83466   0.00000  Uiso   1.00
C286   C     0.62234   0.60072   0.86501   0.00000  Uiso   1.00
C287   C     0.61970   0.56119   0.92538   0.00000  Uiso   1.00
C288   C     0.58229   0.51678   0.93176   0.00000  Uiso   1.00
C289   C     0.52852   0.43699   0.96719   0.00000  Uiso   1.00
C290   C     0.59852   0.64403   0.75131   0.00000  Uiso   1.00
C291   C     0.64638   0.62477   0.72527   0.00000  Uiso   1.00
C292   C     0.65738   0.60454   0.65789   0.00000  Uiso   1.00
C293   C     0.70316   0.58909   0.64449   0.00000  Uiso   1.00
C294   C     0.60267   0.71710   0.78158   0.00000  Uiso   1.00
C295   C     0.57691   0.77449   0.76157   0.00000  Uiso   1.00
C296   C     0.58589   0.83678   0.79558   0.00000  Uiso   1.00
C297   C     0.58881   0.59608   0.81287   0.00000  Uiso   1.00
C298   C     0.55140   0.55173   0.81916   0.00000  Uiso   1.00
C299   C     0.54870   0.51213   0.87952   0.00000  Uiso   1.00
H300   H     0.68636   0.65620   0.88791   0.00000  Uiso   1.00
H301   H     0.75162   0.61760   0.80448   0.00000  Uiso   1.00
H302   H     0.67117   0.78753   0.90813   0.00000  Uiso   1.00
H303   H     0.64565   0.56480   0.96572   0.00000  Uiso   1.00
H304   H     0.80920   0.57279   0.68897   0.00000  Uiso   1.00
H305   H     0.63954   0.93109   0.90756   0.00000  Uiso   1.00
H306   H     0.58574   0.46141   0.02899   0.00000  Uiso   1.00
H307   H     0.57241   0.64041   0.71071   0.00000  Uiso   1.00
H308   H     0.63142   0.60095   0.61755   0.00000  Uiso   1.00
H309   H     0.55097   0.77088   0.72121   0.00000  Uiso   1.00
H310   H     0.52545   0.54815   0.77880   0.00000  Uiso   1.00
H311   H     0.71164   0.55927   0.53726   0.00000  Uiso   1.00
H312   H     0.54198   0.91757   0.75585   0.00000  Uiso   1.00
H313   H     0.48818   0.44790   0.87728   0.00000  Uiso   1.00
O314   O     0.80130   0.54038   0.55502   0.00000  Uiso   1.00
O315   O     0.57871   0.01045   0.84181   0.00000  Uiso   1.00
O316   O     0.50812   0.39425   0.00112   0.00000  Uiso   1.00
N317   N     0.77814   0.57501   0.66605   0.00000  Uiso   1.00
N318   N     0.61952   0.91000   0.87041   0.00000  Uiso   1.00
N319   N     0.56922   0.47091   0.98395   0.00000  Uiso   1.00
N320   N     0.72564   0.56774   0.58442   0.00000  Uiso   1.00
N321   N     0.56702   0.90273   0.78878   0.00000  Uiso   1.00
N322   N     0.51672   0.46364   0.90231   0.00000  Uiso   1.00
C323   C     0.16025   0.15258   0.34731   0.00000  Uiso   1.00
C324   C     0.17991   0.12941   0.27741   0.00000  Uiso   1.00
C325   C     0.22568   0.11400   0.26411   0.00000  Uiso   1.00
C326   C     0.23675   0.09375   0.19673   0.00000  Uiso   1.00
C327   C     0.27238   0.05852   0.09612   0.00000  Uiso   1.00
C328   C     0.13620   0.22174   0.33373   0.00000  Uiso   1.00
C329   C     0.14522   0.28395   0.36778   0.00000  Uiso   1.00
C330   C     0.11948   0.34143   0.34781   0.00000  Uiso   1.00
C331   C     0.08723   0.44953   0.33466   0.00000  Uiso   1.00
C332   C     0.12234   0.10072   0.36501   0.00000  Uiso   1.00
C333   C     0.11970   0.06119   0.42538   0.00000  Uiso   1.00
C334   C     0.08229   0.01678   0.43176   0.00000  Uiso   1.00
C335   C     0.02852   0.93699   0.46719   0.00000  Uiso   1.00
C336   C     0.09852   0.14403   0.25131   0.00000  Uiso   1.00
C337   C     0.14638   0.12477   0.22527   0.00000  Uiso   1.00
C338   C     0.15738   0.10454   0.15789   0.00000  Uiso   1.00
C339   C     0.20316   0.08909   0.14449   0.00000  Uiso   1.00
C340   C     0.10267   0.21710   0.28158   0.00000  Uiso   1.00
C341   C     0.07691   0.27449   0.26157   0.00000  Uiso   1.00
C342   C     0.08589   0.33678   0.29558   0.00000  Uiso   1.00
C343   C     0.08881   0.09608   0.31287   0.00000  Uiso   1.00
C344   C     0.05140   0.05173   0.31916   0.00000  Uiso   1.00
C345   C     0.04870   0.01213   0.37952   0.00000  Uiso   1.00
H346   H     0.18636   0.15620   0.38791   0.00000  Uiso   1.00
H347   H     0.25162   0.11760   0.30448   0.00000  Uiso   1.00
H348   H     0.17117   0.28753   0.40813   0.00000  Uiso   1.00
H349   H     0.14565   0.06480   0.46572   0.00000  Uiso   1.00
H350   H     0.30920   0.07279   0.18897   0.00000  Uiso   1.00
H351   H     0.13954   0.43109   0.40756   0.00000  Uiso   1.00
H352   H     0.08574   0.96141   0.52899   0.00000  Uiso   1.00
H353   H     0.07241   0.14041   0.21071   0.00000  Uiso   1.00
H354   H     0.13142   0.10095   0.11755   0.00000  Uiso   1.00
H355   H     0.05097   0.27088   0.22121   0.00000  Uiso   1.00
H356   H     0.02545   0.04815   0.27880   0.00000  Uiso   1.00
H357   H     0.21164   0.05927   0.03726   0.00000  Uiso   1.00
H358   H     0.04198   0.41757   0.25585   0.00000  Uiso   1.00
H359   H     0.98818   0.94790   0.37728   0.00000  Uiso   1.00
O360   O     0.30130   0.04038   0.05502   0.00000  Uiso   1.00
O361   O     0.07871   0.51045   0.34181   0.00000  Uiso   1.00
O362   O     0.00812   0.89425   0.50112   0.00000  Uiso   1.00
N363   N     0.27814   0.07501   0.16605   0.00000  Uiso   1.00
N364   N     0.11952   0.41000   0.37041   0.00000  Uiso   1.00
N365   N     0.06922   0.97091   0.48395   0.00000  Uiso   1.00
N366   N     0.22564   0.06774   0.08442   0.00000  Uiso   1.00
N367   N     0.06702   0.40273   0.28878   0.00000  Uiso   1.00
N368   N     0.01672   0.96364   0.40231   0.00000  Uiso   1.00
C369   C     0.83975   0.15258   0.84731   0.00000  Uiso   1.00
C370   C     0.82009   0.12941   0.77741   0.00000  Uiso   1.00
C371   C     0.77432   0.11400   0.76411   0.00000  Uiso   1.00
C372   C     0.76325   0.09375   0.69673   0.00000  Uiso   1.00
C373   C     0.72762   0.05852   0.59612   0.00000  Uiso   1.00
C374   C     0.86380   0.22174   0.83373   0.00000  Uiso   1.00
C375   C     0.85478   0.28395   0.86778   0.00000  Uiso   1.00
C376   C     0.88052   0.34143   0.84781   0.00000  Uiso   1.00
C377   C     0.91277   0.44953   0.83466   0.00000  Uiso   1.00
C378   C     0.87766   0.10072   0.86501   0.00000  Uiso   1.00
C379   C     0.88030   0.06119   0.92538   0.00000  Uiso   1.00
C380   C     0.91771   0.01678   0.93176   0.00000  Uiso   1.00
C381   C     0.97148   0.93699   0.96719   0.00000  Uiso   1.00
C382   C     0.90148   0.14403   0.75131   0.00000  Uiso   1.00
C383   C     0.85362   0.12477   0.72527   0.00000  Uiso   1.00
C384   C     0.84262   0.10454   0.65789   0.00000  Uiso   1.00
C385   C     0.79684   0.08909   0.64449   0.00000  Uiso   1.00
C386   C     0.89733   0.21710   0.78158   0.00000  Uiso   1.00
C387   C     0.92309   0.27449   0.76157   0.00000  Uiso   1.00
C388   C     0.91411   0.33678   0.79558   0.00000  Uiso   1.00
C389   C     0.91119   0.09608   0.81287   0.00000  Uiso   1.00
C390   C     0.94860   0.05173   0.81916   0.00000  Uiso   1.00
C391   C     0.95130   0.01213   0.87952   0.00000  Uiso   1.00
H392   H     0.81364   0.15620   0.88791   0.00000  Uiso   1.00
H393   H     0.74838   0.11760   0.80448   0.00000  Uiso   1.00
H394   H     0.82883   0.28753   0.90813   0.00000  Uiso   1.00
H395   H     0.85435   0.06480   0.96572   0.00000  Uiso   1.00
H396   H     0.69080   0.07279   0.68897   0.00000  Uiso   1.00
H397   H     0.86046   0.43109   0.90756   0.00000  Uiso   1.00
H398   H     0.91426   0.96141   0.02899   0.00000  Uiso   1.00
H399   H     0.92759   0.14041   0.71071   0.00000  Uiso   1.00
H400   H     0.86858   0.10095   0.61755   0.00000  Uiso   1.00
H401   H     0.94903   0.27088   0.72121   0.00000  Uiso   1.00
H402   H     0.97455   0.04815   0.77880   0.00000  Uiso   1.00
H403   H     0.78836   0.05927   0.53726   0.00000  Uiso   1.00
H404   H     0.95802   0.41757   0.75585   0.00000  Uiso   1.00
H405   H     0.01182   0.94790   0.87728   0.00000  Uiso   1.00
O406   O     0.69870   0.04038   0.55502   0.00000  Uiso   1.00
O407   O     0.92129   0.51045   0.84181   0.00000  Uiso   1.00
O408   O     0.99188   0.89425   0.00112   0.00000  Uiso   1.00
N409   N     0.72186   0.07501   0.66605   0.00000  Uiso   1.00
N410   N     0.88048   0.41000   0.87041   0.00000  Uiso   1.00
N411   N     0.93078   0.97091   0.98395   0.00000  Uiso   1.00
N412   N     0.77436   0.06774   0.58442   0.00000  Uiso   1.00
N413   N     0.93298   0.40273   0.78878   0.00000  Uiso   1.00
N414   N     0.98328   0.96364   0.90231   0.00000  Uiso   1.00
C415   C     0.33975   0.65258   0.34731   0.00000  Uiso   1.00
C416   C     0.32009   0.62941   0.27741   0.00000  Uiso   1.00
C417   C     0.27432   0.61400   0.26411   0.00000  Uiso   1.00
C418   C     0.26325   0.59375   0.19673   0.00000  Uiso   1.00
C419   C     0.22762   0.55852   0.09612   0.00000  Uiso   1.00
C420   C     0.36380   0.72174   0.33373   0.00000  Uiso   1.00
C421   C     0.35478   0.78395   0.36778   0.00000  Uiso   1.00
C422   C     0.38052   0.84143   0.34781   0.00000  Uiso   1.00
C423   C     0.41277   0.94953   0.33466   0.00000  Uiso   1.00
C424   C     0.37766   0.60072   0.36501   0.00000  Uiso   1.00
C425   C     0.38030   0.56119   0.42538   0.00000  Uiso   1.00
C426   C     0.41771   0.51678   0.43176   0.00000  Uiso   1.00
C427   C     0.47148   0.43699   0.46719   0.00000  Uiso   1.00
C428   C     0.40148   0.64403   0.25131   0.00000  Uiso   1.00
C429   C     0.35362   0.62477   0.22527   0.00000  Uiso   1.00
C430   C     0.34262   0.60454   0.15789   0.00000  Uiso   1.00
C431   C     0.29684   0.58909   0.14449   0.00000  Uiso   1.00
C432   C     0.39733   0.71710   0.28158   0.00000  Uiso   1.00
C433   C     0.42309   0.77449   0.26157   0.00000  Uiso   1.00
C434   C     0.41411   0.83678   0.29558   0.00000  Uiso   1.00
C435   C     0.41119   0.59608   0.31287   0.00000  Uiso   1.00
C436   C     0.44860   0.55173   0.31916   0.00000  Uiso   1.00
C437   C     0.45130   0.51213   0.37952   0.00000  Uiso   1.00
H438   H     0.31364   0.65620   0.38791   0.00000  Uiso   1.00
H439   H     0.24838   0.61760   0.30448   0.00000  Uiso   1.00
H440   H     0.32883   0.78753   0.40813   0.00000  Uiso   1.00
H441   H     0.35435   0.56480   0.46572   0.00000  Uiso   1.00
H442   H     0.19080   0.57279   0.18897   0.00000  Uiso   1.00
H443   H     0.36046   0.93109   0.40756   0.00000  Uiso   1.00
H444   H     0.41426   0.46141   0.52899   0.00000  Uiso   1.00
H445   H     0.42759   0.64041   0.21071   0.00000  Uiso   1.00
H446   H     0.36858   0.60095   0.11755   0.00000  Uiso   1.00
H447   H     0.44903   0.77088   0.22121   0.00000  Uiso   1.00
H448   H     0.47455   0.54815   0.27880   0.00000  Uiso   1.00
H449   H     0.28836   0.55927   0.03726   0.00000  Uiso   1.00
H450   H     0.45802   0.91757   0.25585   0.00000  Uiso   1.00
H451   H     0.51182   0.44790   0.37728   0.00000  Uiso   1.00
O452   O     0.19870   0.54038   0.05502   0.00000  Uiso   1.00
O453   O     0.42129   0.01045   0.34181   0.00000  Uiso   1.00
O454   O     0.49188   0.39425   0.50112   0.00000  Uiso   1.00
N455   N     0.22186   0.57501   0.16605   0.00000  Uiso   1.00
N456   N     0.38048   0.91000   0.37041   0.00000  Uiso   1.00
N457   N     0.43078   0.47091   0.48395   0.00000  Uiso   1.00
N458   N     0.27436   0.56774   0.08442   0.00000  Uiso   1.00
N459   N     0.43298   0.90273   0.28878   0.00000  Uiso   1.00
N460   N     0.48328   0.46364   0.40231   0.00000  Uiso   1.00
C461   C     0.66025   0.84742   0.34731   0.00000  Uiso   1.00
C462   C     0.67991   0.87059   0.27741   0.00000  Uiso   1.00
C463   C     0.72568   0.88600   0.26411   0.00000  Uiso   1.00
C464   C     0.73675   0.90625   0.19673   0.00000  Uiso   1.00
C465   C     0.77238   0.94148   0.09612   0.00000  Uiso   1.00
C466   C     0.63620   0.77826   0.33373   0.00000  Uiso   1.00
C467   C     0.64522   0.71605   0.36778   0.00000  Uiso   1.00
C468   C     0.61948   0.65857   0.34781   0.00000  Uiso   1.00
C469   C     0.58723   0.55047   0.33466   0.00000  Uiso   1.00
C470   C     0.62234   0.89928   0.36501   0.00000  Uiso   1.00
C471   C     0.61970   0.93881   0.42538   0.00000  Uiso   1.00
C472   C     0.58229   0.98322   0.43176   0.00000  Uiso   1.00
C473   C     0.52852   0.06301   0.46719   0.00000  Uiso   1.00
C474   C     0.59852   0.85597   0.25131   0.00000  Uiso   1.00
C475   C     0.64638   0.87523   0.22527   0.00000  Uiso   1.00
C476   C     0.65738   0.89546   0.15789   0.00000  Uiso   1.00
C477   C     0.70316   0.91091   0.14449   0.00000  Uiso   1.00
C478   C     0.60267   0.78290   0.28158   0.00000  Uiso   1.00
C479   C     0.57691   0.72551   0.26157   0.00000  Uiso   1.00
C480   C     0.58589   0.66322   0.29558   0.00000  Uiso   1.00
C481   C     0.58881   0.90392   0.31287   0.00000  Uiso   1.00
C482   C     0.55140   0.94827   0.31916   0.00000  Uiso   1.00
C483   C     0.54870   0.98787   0.37952   0.00000  Uiso   1.00
H484   H     0.68636   0.84380   0.38791   0.00000  Uiso   1.00
H485   H     0.75162   0.88240   0.30448   0.00000  Uiso   1.00
H486   H     0.67117   0.71247   0.40813   0.00000  Uiso   1.00
H487   H     0.64565   0.93520   0.46572   0.00000  Uiso   1.00
H488   H     0.80920   0.92721   0.18897   0.00000  Uiso   1.00
H489   H     0.63954   0.56891   0.40756   0.00000  Uiso   1.00
H490   H     0.58574   0.03859   0.52899   0.00000  Uiso   1.00
H491   H     0.57241   0.85959   0.21071   0.00000  Uiso   1.00
H492   H     0.63142   0.89905   0.11755   0.00000  Uiso   1.00
H493   H     0.55097   0.72912   0.22121   0.00000  Uiso   1.00
H494   H     0.52545   0.95185   0.27880   0.00000  Uiso   1.00
H495   H     0.71164   0.94073   0.03726   0.00000  Uiso   1.00
H496   H     0.54198   0.58243   0.25585   0.00000  Uiso   1.00
H497   H     0.48818   0.05210   0.37728   0.00000  Uiso   1.00
O498   O     0.80130   0.95962   0.05502   0.00000  Uiso   1.00
O499   O     0.57871   0.48955   0.34181   0.00000  Uiso   1.00
O500   O     0.50812   0.10575   0.50112   0.00000  Uiso   1.00
N501   N     0.77814   0.92499   0.16605   0.00000  Uiso   1.00
N502   N     0.61952   0.59000   0.37041   0.00000  Uiso   1.00
N503   N     0.56922   0.02909   0.48395   0.00000  Uiso   1.00
N504   N     0.72564   0.93226   0.08442   0.00000  Uiso   1.00
N505   N     0.56702   0.59727   0.28878   0.00000  Uiso   1.00
N506   N     0.51672   0.03636   0.40231   0.00000  Uiso   1.00
C507   C     0.16025   0.34742   0.84731   0.00000  Uiso   1.00
C508   C     0.17991   0.37059   0.77741   0.00000  Uiso   1.00
C509   C     0.22568   0.38600   0.76411   0.00000  Uiso   1.00
C510   C     0.23675   0.40625   0.69673   0.00000  Uiso   1.00
C511   C     0.27238   0.44148   0.59612   0.00000  Uiso   1.00
C512   C     0.13620   0.27826   0.83373   0.00000  Uiso   1.00
C513   C     0.14522   0.21605   0.86778   0.00000  Uiso   1.00
C514   C     0.11948   0.15857   0.84781   0.00000  Uiso   1.00
C515   C     0.08723   0.05047   0.83466   0.00000  Uiso   1.00
C516   C     0.12234   0.39928   0.86501   0.00000  Uiso   1.00
C517   C     0.11970   0.43881   0.92538   0.00000  Uiso   1.00
C518   C     0.08229   0.48322   0.93176   0.00000  Uiso   1.00
C519   C     0.02852   0.56301   0.96719   0.00000  Uiso   1.00
C520   C     0.09852   0.35597   0.75131   0.00000  Uiso   1.00
C521   C     0.14638   0.37523   0.72527   0.00000  Uiso   1.00
C522   C     0.15738   0.39546   0.65789   0.00000  Uiso   1.00
C523   C     0.20316   0.41091   0.64449   0.00000  Uiso   1.00
C524   C     0.10267   0.28290   0.78158   0.00000  Uiso   1.00
C525   C     0.07691   0.22551   0.76157   0.00000  Uiso   1.00
C526   C     0.08589   0.16322   0.79558   0.00000  Uiso   1.00
C527   C     0.08881   0.40392   0.81287   0.00000  Uiso   1.00
C528   C     0.05140   0.44827   0.81916   0.00000  Uiso   1.00
C529   C     0.04870   0.48787   0.87952   0.00000  Uiso   1.00
H530   H     0.18636   0.34380   0.88791   0.00000  Uiso   1.00
H531   H     0.25162   0.38240   0.80448   0.00000  Uiso   1.00
H532   H     0.17117   0.21247   0.90813   0.00000  Uiso   1.00
H533   H     0.14565   0.43520   0.96572   0.00000  Uiso   1.00
H534   H     0.30920   0.42721   0.68897   0.00000  Uiso   1.00
H535   H     0.13954   0.06891   0.90756   0.00000  Uiso   1.00
H536   H     0.08574   0.53859   0.02899   0.00000  Uiso   1.00
H537   H     0.07241   0.35959   0.71071   0.00000  Uiso   1.00
H538   H     0.13142   0.39905   0.61755   0.00000  Uiso   1.00
H539   H     0.05097   0.22912   0.72121   0.00000  Uiso   1.00
H540   H     0.02545   0.45185   0.77880   0.00000  Uiso   1.00
H541   H     0.21164   0.44073   0.53726   0.00000  Uiso   1.00
H542   H     0.04198   0.08243   0.75585   0.00000  Uiso   1.00
H543   H     0.98818   0.55210   0.87728   0.00000  Uiso   1.00
O544   O     0.30130   0.45962   0.55502   0.00000  Uiso   1.00
O545   O     0.07871   0.98955   0.84181   0.00000  Uiso   1.00
O546   O     0.00812   0.60575   0.00112   0.00000  Uiso   1.00
N547   N     0.27814   0.42499   0.66605   0.00000  Uiso   1.00
N548   N     0.11952   0.09000   0.87041   0.00000  Uiso   1.00
N549   N     0.06922   0.52909   0.98395   0.00000  Uiso   1.00
N550   N     0.22564   0.43226   0.58442   0.00000  Uiso   1.00
N551   N     0.06702   0.09727   0.78878   0.00000  Uiso   1.00
N552   N     0.01672   0.53636   0.90231   0.00000  Uiso   1.00
C553   C     0.16025   0.65258   0.65269   0.00000  Uiso   1.00
C554   C     0.17991   0.62941   0.72259   0.00000  Uiso   1.00
C555   C     0.22568   0.61400   0.73589   0.00000  Uiso   1.00
C556   C     0.23675   0.59375   0.80327   0.00000  Uiso   1.00
C557   C     0.27238   0.55852   0.90388   0.00000  Uiso   1.00
C558   C     0.13620   0.72174   0.66627   0.00000  Uiso   1.00
C559   C     0.14522   0.78395   0.63222   0.00000  Uiso   1.00
C560   C     0.11948   0.84143   0.65219   0.00000  Uiso   1.00
C561   C     0.08723   0.94953   0.66534   0.00000  Uiso   1.00
C562   C     0.12234   0.60072   0.63499   0.00000  Uiso   1.00
C563   C     0.11970   0.56119   0.57462   0.00000  Uiso   1.00
C564   C     0.08229   0.51678   0.56824   0.00000  Uiso   1.00
C565   C     0.02852   0.43699   0.53281   0.00000  Uiso   1.00
C566   C     0.09852   0.64403   0.74869   0.00000  Uiso   1.00
C567   C     0.14638   0.62477   0.77473   0.00000  Uiso   1.00
C568   C     0.15738   0.60454   0.84211   0.00000  Uiso   1.00
C569   C     0.20316   0.58909   0.85551   0.00000  Uiso   1.00
C570   C     0.10267   0.71710   0.71842   0.00000  Uiso   1.00
C571   C     0.07691   0.77449   0.73843   0.00000  Uiso   1.00
C572   C     0.08589   0.83678   0.70442   0.00000  Uiso   1.00
C573   C     0.08881   0.59608   0.68713   0.00000  Uiso   1.00
C574   C     0.05140   0.55173   0.68084   0.00000  Uiso   1.00
C575   C     0.04870   0.51213   0.62048   0.00000  Uiso   1.00
H576   H     0.18636   0.65620   0.61209   0.00000  Uiso   1.00
H577   H     0.25162   0.61760   0.69552   0.00000  Uiso   1.00
H578   H     0.17117   0.78753   0.59187   0.00000  Uiso   1.00
H579   H     0.14565   0.56480   0.53428   0.00000  Uiso   1.00
H580   H     0.30920   0.57279   0.81103   0.00000  Uiso   1.00
H581   H     0.13954   0.93109   0.59244   0.00000  Uiso   1.00
H582   H     0.08574   0.46141   0.47101   0.00000  Uiso   1.00
H583   H     0.07241   0.64041   0.78929   0.00000  Uiso   1.00
H584   H     0.13142   0.60095   0.88245   0.00000  Uiso   1.00
H585   H     0.05097   0.77088   0.77879   0.00000  Uiso   1.00
H586   H     0.02545   0.54815   0.72120   0.00000  Uiso   1.00
H587   H     0.21164   0.55927   0.96274   0.00000  Uiso   1.00
H588   H     0.04198   0.91757   0.74415   0.00000  Uiso   1.00
H589   H     0.98818   0.44790   0.62272   0.00000  Uiso   1.00
O590   O     0.30130   0.54038   0.94498   0.00000  Uiso   1.00
O591   O     0.07871   0.01045   0.65819   0.00000  Uiso   1.00
O592   O     0.00812   0.39425   0.49888   0.00000  Uiso   1.00
N593   N     0.27814   0.57501   0.83395   0.00000  Uiso   1.00
N594   N     0.11952   0.91000   0.62959   0.00000  Uiso   1.00
N595   N     0.06922   0.47091   0.51605   0.00000  Uiso   1.00
N596   N     0.22564   0.56774   0.91558   0.00000  Uiso   1.00
N597   N     0.06702   0.90273   0.71122   0.00000  Uiso   1.00
N598   N     0.01672   0.46364   0.59769   0.00000  Uiso   1.00
C599   C     0.66025   0.15258   0.15269   0.00000  Uiso   1.00
C600   C     0.67991   0.12941   0.22259   0.00000  Uiso   1.00
C601   C     0.72568   0.11400   0.23589   0.00000  Uiso   1.00
C602   C     0.73675   0.09375   0.30327   0.00000  Uiso   1.00
C603   C     0.77238   0.05852   0.40388   0.00000  Uiso   1.00
C604   C     0.63620   0.22174   0.16627   0.00000  Uiso   1.00
C605   C     0.64522   0.28395   0.13222   0.00000  Uiso   1.00
C606   C     0.61948   0.34143   0.15219   0.00000  Uiso   1.00
C607   C     0.58723   0.44953   0.16534   0.00000  Uiso   1.00
C608   C     0.62234   0.10072   0.13499   0.00000  Uiso   1.00
C609   C     0.61970   0.06119   0.07462   0.00000  Uiso   1.00
C610   C     0.58229   0.01678   0.06824   0.00000  Uiso   1.00
C611   C     0.52852   0.93699   0.03281   0.00000  Uiso   1.00
C612   C     0.59852   0.14403   0.24869   0.00000  Uiso   1.00
C613   C     0.64638   0.12477   0.27473   0.00000  Uiso   1.00
C614   C     0.65738   0.10454   0.34211   0.00000  Uiso   1.00
C615   C     0.70316   0.08909   0.35551   0.00000  Uiso   1.00
C616   C     0.60267   0.21710   0.21842   0.00000  Uiso   1.00
C617   C     0.57691   0.27449   0.23843   0.00000  Uiso   1.00
C618   C     0.58589   0.33678   0.20442   0.00000  Uiso   1.00
C619   C     0.58881   0.09608   0.18713   0.00000  Uiso   1.00
C620   C     0.55140   0.05173   0.18084   0.00000  Uiso   1.00
C621   C     0.54870   0.01213   0.12048   0.00000  Uiso   1.00
H622   H     0.68636   0.15620   0.11209   0.00000  Uiso   1.00
H623   H     0.75162   0.11760   0.19552   0.00000  Uiso   1.00
H624   H     0.67117   0.28753   0.09187   0.00000  Uiso   1.00
H625   H     0.64565   0.06480   0.03428   0.00000  Uiso   1.00
H626   H     0.80920   0.07279   0.31103   0.00000  Uiso   1.00
H627   H     0.63954   0.43109   0.09244   0.00000  Uiso   1.00
H628   H     0.58574   0.96141   0.97101   0.00000  Uiso   1.00
H629   H     0.57241   0.14041   0.28929   0.00000  Uiso   1.00
H630   H     0.63142   0.10095   0.38245   0.00000  Uiso   1.00
H631   H     0.55097   0.27088   0.27879   0.00000  Uiso   1.00
H632   H     0.52545   0.04815   0.22120   0.00000  Uiso   1.00
H633   H     0.71164   0.05927   0.46274   0.00000  Uiso   1.00
H634   H     0.54198   0.41757   0.24415   0.00000  Uiso   1.00
H635   H     0.48818   0.94790   0.12272   0.00000  Uiso   1.00
O636   O     0.80130   0.04038   0.44498   0.00000  Uiso   1.00
O637   O     0.57871   0.51045   0.15819   0.00000  Uiso   1.00
O638   O     0.50812   0.89425   0.99888   0.00000  Uiso   1.00
N639   N     0.77814   0.07501   0.33395   0.00000  Uiso   1.00
N640   N     0.61952   0.41000   0.12959   0.00000  Uiso   1.00
N641   N     0.56922   0.97091   0.01605   0.00000  Uiso   1.00
N642   N     0.72564   0.06774   0.41558   0.00000  Uiso   1.00
N643   N     0.56702   0.40273   0.21122   0.00000  Uiso   1.00
N644   N     0.51672   0.96364   0.09769   0.00000  Uiso   1.00
C645   C     0.33975   0.34742   0.15269   0.00000  Uiso   1.00
C646   C     0.32009   0.37059   0.22259   0.00000  Uiso   1.00
C647   C     0.27432   0.38600   0.23589   0.00000  Uiso   1.00
C648   C     0.26325   0.40625   0.30327   0.00000  Uiso   1.00
C649   C     0.22762   0.44148   0.40388   0.00000  Uiso   1.00
C650   C     0.36380   0.27826   0.16627   0.00000  Uiso   1.00
C651   C     0.35478   0.21605   0.13222   0.00000  Uiso   1.00
C652   C     0.38052   0.15857   0.15219   0.00000  Uiso   1.00
C653   C     0.41277   0.05047   0.16534   0.00000  Uiso   1.00
C654   C     0.37766   0.39928   0.13499   0.00000  Uiso   1.00
C655   C     0.38030   0.43881   0.07462   0.00000  Uiso   1.00
C656   C     0.41771   0.48322   0.06824   0.00000  Uiso   1.00
C657   C     0.47148   0.56301   0.03281   0.00000  Uiso   1.00
C658   C     0.40148   0.35597   0.24869   0.00000  Uiso   1.00
C659   C     0.35362   0.37523   0.27473   0.00000  Uiso   1.00
C660   C     0.34262   0.39546   0.34211   0.00000  Uiso   1.00
C661   C     0.29684   0.41091   0.35551   0.00000  Uiso   1.00
C662   C     0.39733   0.28290   0.21842   0.00000  Uiso   1.00
C663   C     0.42309   0.22551   0.23843   0.00000  Uiso   1.00
C664   C     0.41411   0.16322   0.20442   0.00000  Uiso   1.00
C665   C     0.41119   0.40392   0.18713   0.00000  Uiso   1.00
C666   C     0.44860   0.44827   0.18084   0.00000  Uiso   1.00
C667   C     0.45130   0.48787   0.12048   0.00000  Uiso   1.00
H668   H     0.31364   0.34380   0.11209   0.00000  Uiso   1.00
H669   H     0.24838   0.38240   0.19552   0.00000  Uiso   1.00
H670   H     0.32883   0.21247   0.09187   0.00000  Uiso   1.00
H671   H     0.35435   0.43520   0.03428   0.00000  Uiso   1.00
H672   H     0.19080   0.42721   0.31103   0.00000  Uiso   1.00
H673   H     0.36046   0.06891   0.09244   0.00000  Uiso   1.00
H674   H     0.41426   0.53859   0.97101   0.00000  Uiso   1.00
H675   H     0.42759   0.35959   0.28929   0.00000  Uiso   1.00
H676   H     0.36858   0.39905   0.38245   0.00000  Uiso   1.00
H677   H     0.44903   0.22912   0.27879   0.00000  Uiso   1.00
H678   H     0.47455   0.45185   0.22120   0.00000  Uiso   1.00
H679   H     0.28836   0.44073   0.46274   0.00000  Uiso   1.00
H680   H     0.45802   0.08243   0.24415   0.00000  Uiso   1.00
H681   H     0.51182   0.55210   0.12272   0.00000  Uiso   1.00
O682   O     0.19870   0.45962   0.44498   0.00000  Uiso   1.00
O683   O     0.42129   0.98955   0.15819   0.00000  Uiso   1.00
O684   O     0.49188   0.60575   0.99888   0.00000  Uiso   1.00
N685   N     0.22186   0.42499   0.33395   0.00000  Uiso   1.00
N686   N     0.38048   0.09000   0.12959   0.00000  Uiso   1.00
N687   N     0.43078   0.52909   0.01605   0.00000  Uiso   1.00
N688   N     0.27436   0.43226   0.41558   0.00000  Uiso   1.00
N689   N     0.43298   0.09727   0.21122   0.00000  Uiso   1.00
N690   N     0.48328   0.53636   0.09769   0.00000  Uiso   1.00
C691   C     0.83975   0.84742   0.65269   0.00000  Uiso   1.00
C692   C     0.82009   0.87059   0.72259   0.00000  Uiso   1.00
C693   C     0.77432   0.88600   0.73589   0.00000  Uiso   1.00
C694   C     0.76325   0.90625   0.80327   0.00000  Uiso   1.00
C695   C     0.72762   0.94148   0.90388   0.00000  Uiso   1.00
C696   C     0.86380   0.77826   0.66627   0.00000  Uiso   1.00
C697   C     0.85478   0.71605   0.63222   0.00000  Uiso   1.00
C698   C     0.88052   0.65857   0.65219   0.00000  Uiso   1.00
C699   C     0.91277   0.55047   0.66534   0.00000  Uiso   1.00
C700   C     0.87766   0.89928   0.63499   0.00000  Uiso   1.00
C701   C     0.88030   0.93881   0.57462   0.00000  Uiso   1.00
C702   C     0.91771   0.98322   0.56824   0.00000  Uiso   1.00
C703   C     0.97148   0.06301   0.53281   0.00000  Uiso   1.00
C704   C     0.90148   0.85597   0.74869   0.00000  Uiso   1.00
C705   C     0.85362   0.87523   0.77473   0.00000  Uiso   1.00
C706   C     0.84262   0.89546   0.84211   0.00000  Uiso   1.00
C707   C     0.79684   0.91091   0.85551   0.00000  Uiso   1.00
C708   C     0.89733   0.78290   0.71842   0.00000  Uiso   1.00
C709   C     0.92309   0.72551   0.73843   0.00000  Uiso   1.00
C710   C     0.91411   0.66322   0.70442   0.00000  Uiso   1.00
C711   C     0.91119   0.90392   0.68713   0.00000  Uiso   1.00
C712   C     0.94860   0.94827   0.68084   0.00000  Uiso   1.00
C713   C     0.95130   0.98787   0.62048   0.00000  Uiso   1.00
H714   H     0.81364   0.84380   0.61209   0.00000  Uiso   1.00
H715   H     0.74838   0.88240   0.69552   0.00000  Uiso   1.00
H716   H     0.82883   0.71247   0.59187   0.00000  Uiso   1.00
H717   H     0.85435   0.93520   0.53428   0.00000  Uiso   1.00
H718   H     0.69080   0.92721   0.81103   0.00000  Uiso   1.00
H719   H     0.86046   0.56891   0.59244   0.00000  Uiso   1.00
H720   H     0.91426   0.03859   0.47101   0.00000  Uiso   1.00
H721   H     0.92759   0.85959   0.78929   0.00000  Uiso   1.00
H722   H     0.86858   0.89905   0.88245   0.00000  Uiso   1.00
H723   H     0.94903   0.72912   0.77879   0.00000  Uiso   1.00
H724   H     0.97455   0.95185   0.72120   0.00000  Uiso   1.00
H725   H     0.78836   0.94073   0.96274   0.00000  Uiso   1.00
H726   H     0.95802   0.58243   0.74415   0.00000  Uiso   1.00
H727   H     0.01182   0.05210   0.62272   0.00000  Uiso   1.00
O728   O     0.69870   0.95962   0.94498   0.00000  Uiso   1.00
O729   O     0.92129   0.48955   0.65819   0.00000  Uiso   1.00
O730   O     0.99188   0.10575   0.49888   0.00000  Uiso   1.00
N731   N     0.72186   0.92499   0.83395   0.00000  Uiso   1.00
N732   N     0.88048   0.59000   0.62959   0.00000  Uiso   1.00
N733   N     0.93078   0.02909   0.51605   0.00000  Uiso   1.00
N734   N     0.77436   0.93226   0.91558   0.00000  Uiso   1.00
N735   N     0.93298   0.59727   0.71122   0.00000  Uiso   1.00
N736   N     0.98328   0.03636   0.59769   0.00000  Uiso   1.00
