data_job_06936
_audit_creation_date              2018-12-19
_audit_creation_method            'Materials Studio'
_symmetry_space_group_name_H-M    'P1'
_symmetry_Int_Tables_number       1
_symmetry_cell_setting            triclinic
loop_
_symmetry_equiv_pos_as_xyz
  x,y,z
_cell_length_a                    36.7653
_cell_length_b                    36.7653
_cell_length_c                    37.8173
_cell_angle_alpha                 90.0000
_cell_angle_beta                  90.0000
_cell_angle_gamma                 120.0000
loop_
_atom_site_label
_atom_site_type_symbol
_atom_site_fract_x
_atom_site_fract_y
_atom_site_fract_z
_atom_site_U_iso_or_equiv
_atom_site_adp_type
_atom_site_occupancy
C1     C     0.22243   0.43435   0.70255   0.00000  Uiso   1.00
C2     C     0.24953   0.42576   0.72790   0.00000  Uiso   1.00
C3     C     0.61397   0.08349   0.38488   0.00000  Uiso   1.00
C4     C     0.63522   0.07658   0.41203   0.00000  Uiso   1.00
C5     C     0.67873   0.06293   0.44598   0.00000  Uiso   1.00
C6     C     0.17700   0.40254   0.71175   0.00000  Uiso   1.00
C7     C     0.14713   0.37407   0.68849   0.00000  Uiso   1.00
C8     C     0.10732   0.34761   0.70205   0.00000  Uiso   1.00
C9     C     0.03822   0.29793   0.71093   0.00000  Uiso   1.00
C10    C     0.22872   0.47722   0.71285   0.00000  Uiso   1.00
C11    C     0.24231   0.51155   0.69050   0.00000  Uiso   1.00
C12    C     0.57937   0.21463   0.37165   0.00000  Uiso   1.00
C13    C     0.59057   0.28089   0.38224   0.00000  Uiso   1.00
C14    C     0.20485   0.43797   0.76800   0.00000  Uiso   1.00
C15    C     0.57331   0.09439   0.43012   0.00000  Uiso   1.00
C16    C     0.59452   0.08749   0.45729   0.00000  Uiso   1.00
C17    C     0.62565   0.07855   0.44764   0.00000  Uiso   1.00
C18    C     0.16745   0.40450   0.74730   0.00000  Uiso   1.00
C19    C     0.46101   0.04474   0.42757   0.00000  Uiso   1.00
C20    C     0.09775   0.34958   0.73766   0.00000  Uiso   1.00
C21    C     0.55250   0.14585   0.41507   0.00000  Uiso   1.00
C22    C     0.55620   0.18222   0.42958   0.00000  Uiso   1.00
C23    C     0.56980   0.21660   0.40727   0.00000  Uiso   1.00
H24    H     0.22987   0.43281   0.67487   0.00000  Uiso   1.00
H25    H     0.28802   0.41530   0.69070   0.00000  Uiso   1.00
H26    H     0.15453   0.37256   0.66098   0.00000  Uiso   1.00
H27    H     0.24970   0.51001   0.66300   0.00000  Uiso   1.00
H28    H     0.68160   0.06340   0.39059   0.00000  Uiso   1.00
H29    H     0.06679   0.30663   0.66125   0.00000  Uiso   1.00
H30    H     0.26748   0.59647   0.66551   0.00000  Uiso   1.00
H31    H     0.53075   0.10616   0.46234   0.00000  Uiso   1.00
H32    H     0.58712   0.08902   0.48480   0.00000  Uiso   1.00
H33    H     0.45363   0.04628   0.45508   0.00000  Uiso   1.00
H34    H     0.88214   0.85039   0.12376   0.00000  Uiso   1.00
H35    H     0.65381   0.06912   0.49402   0.00000  Uiso   1.00
H36    H     0.37234   0.97902   0.43134   0.00000  Uiso   1.00
H37    H     0.90637   0.93553   0.10227   0.00000  Uiso   1.00
O38    O     0.70536   0.05485   0.45489   0.00000  Uiso   1.00
O39    O     0.00275   0.26997   0.70600   0.00000  Uiso   1.00
O40    O     0.59939   0.31691   0.37825   0.00000  Uiso   1.00
N41    N     0.66733   0.06711   0.41185   0.00000  Uiso   1.00
N42    N     0.07083   0.31619   0.68659   0.00000  Uiso   1.00
N43    N     0.59179   0.25384   0.35723   0.00000  Uiso   1.00
N44    N     0.65238   0.07019   0.46750   0.00000  Uiso   1.00
N45    N     0.38922   0.98594   0.40891   0.00000  Uiso   1.00
N46    N     0.57684   0.25691   0.41289   0.00000  Uiso   1.00
C47    C     0.88910   0.76768   0.03588   0.00000  Uiso   1.00
C48    C     0.91620   0.75910   0.06123   0.00000  Uiso   1.00
C49    C     0.28064   0.41682   0.71821   0.00000  Uiso   1.00
C50    C     0.30188   0.40991   0.74536   0.00000  Uiso   1.00
C51    C     0.34540   0.39626   0.77932   0.00000  Uiso   1.00
C52    C     0.84367   0.73587   0.04509   0.00000  Uiso   1.00
C53    C     0.81379   0.70741   0.02182   0.00000  Uiso   1.00
C54    C     0.77398   0.68095   0.03538   0.00000  Uiso   1.00
C55    C     0.70489   0.63126   0.04426   0.00000  Uiso   1.00
C56    C     0.89538   0.81055   0.04618   0.00000  Uiso   1.00
C57    C     0.90898   0.84488   0.02384   0.00000  Uiso   1.00
C58    C     0.24604   0.54796   0.70499   0.00000  Uiso   1.00
C59    C     0.25723   0.61423   0.71557   0.00000  Uiso   1.00
C60    C     0.87152   0.77130   0.10133   0.00000  Uiso   1.00
C61    C     0.23998   0.42773   0.76345   0.00000  Uiso   1.00
C62    C     0.26118   0.42083   0.79062   0.00000  Uiso   1.00
C63    C     0.29232   0.41188   0.78098   0.00000  Uiso   1.00
C64    C     0.83412   0.73783   0.08063   0.00000  Uiso   1.00
C65    C     0.12767   0.37808   0.76090   0.00000  Uiso   1.00
C66    C     0.76441   0.68292   0.07099   0.00000  Uiso   1.00
C67    C     0.21917   0.47918   0.74840   0.00000  Uiso   1.00
C68    C     0.22286   0.51555   0.76292   0.00000  Uiso   1.00
C69    C     0.23647   0.54993   0.74060   0.00000  Uiso   1.00
H70    H     0.89653   0.76615   0.00821   0.00000  Uiso   1.00
H71    H     0.95468   0.74863   0.02403   0.00000  Uiso   1.00
H72    H     0.82119   0.70590   0.99431   0.00000  Uiso   1.00
H73    H     0.91637   0.84335   0.99633   0.00000  Uiso   1.00
H74    H     0.34826   0.39674   0.72392   0.00000  Uiso   1.00
H75    H     0.73346   0.63996   0.99458   0.00000  Uiso   1.00
H76    H     0.93415   0.92981   0.99884   0.00000  Uiso   1.00
H77    H     0.19741   0.43950   0.79568   0.00000  Uiso   1.00
H78    H     0.25379   0.42235   0.81813   0.00000  Uiso   1.00
H79    H     0.12030   0.37961   0.78841   0.00000  Uiso   1.00
H80    H     0.54880   0.18373   0.45710   0.00000  Uiso   1.00
H81    H     0.32048   0.40246   0.82735   0.00000  Uiso   1.00
H82    H     0.03900   0.31235   0.76468   0.00000  Uiso   1.00
H83    H     0.57303   0.26886   0.43560   0.00000  Uiso   1.00
O84    O     0.37203   0.38818   0.78823   0.00000  Uiso   1.00
O85    O     0.66941   0.60331   0.03934   0.00000  Uiso   1.00
O86    O     0.26605   0.65024   0.71159   0.00000  Uiso   1.00
N87    N     0.33399   0.40045   0.74518   0.00000  Uiso   1.00
N88    N     0.73750   0.64953   0.01992   0.00000  Uiso   1.00
N89    N     0.25846   0.58717   0.69056   0.00000  Uiso   1.00
N90    N     0.31904   0.40352   0.80083   0.00000  Uiso   1.00
N91    N     0.05588   0.31927   0.74224   0.00000  Uiso   1.00
N92    N     0.24351   0.59025   0.74622   0.00000  Uiso   1.00
C93    C     0.55577   0.10101   0.36922   0.00000  Uiso   1.00
C94    C     0.58286   0.09243   0.39457   0.00000  Uiso   1.00
C95    C     0.94730   0.75016   0.05155   0.00000  Uiso   1.00
C96    C     0.96855   0.74324   0.07870   0.00000  Uiso   1.00
C97    C     0.01206   0.72960   0.11265   0.00000  Uiso   1.00
C98    C     0.51034   0.06920   0.37842   0.00000  Uiso   1.00
C99    C     0.48046   0.04074   0.35515   0.00000  Uiso   1.00
C100   C     0.44065   0.01428   0.36871   0.00000  Uiso   1.00
C101   C     0.37155   0.96459   0.37759   0.00000  Uiso   1.00
C102   C     0.56205   0.14388   0.37952   0.00000  Uiso   1.00
C103   C     0.57565   0.17821   0.35717   0.00000  Uiso   1.00
C104   C     0.91270   0.88129   0.03832   0.00000  Uiso   1.00
C105   C     0.92390   0.94756   0.04890   0.00000  Uiso   1.00
C106   C     0.53818   0.10463   0.43467   0.00000  Uiso   1.00
C107   C     0.90665   0.76106   0.09678   0.00000  Uiso   1.00
C108   C     0.92785   0.75416   0.12396   0.00000  Uiso   1.00
C109   C     0.95898   0.74522   0.11431   0.00000  Uiso   1.00
C110   C     0.50078   0.07117   0.41397   0.00000  Uiso   1.00
C111   C     0.79434   0.71141   0.09423   0.00000  Uiso   1.00
C112   C     0.43108   0.01625   0.40433   0.00000  Uiso   1.00
C113   C     0.88584   0.81252   0.08173   0.00000  Uiso   1.00
C114   C     0.88953   0.84888   0.09625   0.00000  Uiso   1.00
C115   C     0.90313   0.88326   0.07393   0.00000  Uiso   1.00
H116   H     0.56320   0.09948   0.34154   0.00000  Uiso   1.00
H117   H     0.62135   0.08197   0.35736   0.00000  Uiso   1.00
H118   H     0.48786   0.03923   0.32764   0.00000  Uiso   1.00
H119   H     0.58304   0.17668   0.32966   0.00000  Uiso   1.00
H120   H     0.01493   0.73007   0.05725   0.00000  Uiso   1.00
H121   H     0.40012   0.97330   0.32792   0.00000  Uiso   1.00
H122   H     0.60082   0.26314   0.33217   0.00000  Uiso   1.00
H123   H     0.86408   0.77283   0.12901   0.00000  Uiso   1.00
H124   H     0.92045   0.75568   0.15146   0.00000  Uiso   1.00
H125   H     0.78696   0.71294   0.12174   0.00000  Uiso   1.00
H126   H     0.21547   0.51706   0.79043   0.00000  Uiso   1.00
H127   H     0.98715   0.73579   0.16068   0.00000  Uiso   1.00
H128   H     0.70567   0.64568   0.09801   0.00000  Uiso   1.00
H129   H     0.23970   0.60219   0.76893   0.00000  Uiso   1.00
O130   O     0.03870   0.72152   0.12156   0.00000  Uiso   1.00
O131   O     0.33608   0.93664   0.37267   0.00000  Uiso   1.00
O132   O     0.93272   0.98357   0.04492   0.00000  Uiso   1.00
N133   N     0.00066   0.73378   0.07851   0.00000  Uiso   1.00
N134   N     0.40417   0.98286   0.35326   0.00000  Uiso   1.00
N135   N     0.92512   0.92050   0.02390   0.00000  Uiso   1.00
N136   N     0.98571   0.73686   0.13417   0.00000  Uiso   1.00
N137   N     0.72255   0.65261   0.07558   0.00000  Uiso   1.00
N138   N     0.91017   0.92358   0.07955   0.00000  Uiso   1.00
C139   C     0.56565   0.78809   0.70255   0.00000  Uiso   1.00
C140   C     0.57424   0.82377   0.72790   0.00000  Uiso   1.00
C141   C     0.91651   0.53048   0.38488   0.00000  Uiso   1.00
C142   C     0.92342   0.55864   0.41203   0.00000  Uiso   1.00
C143   C     0.93707   0.61580   0.44598   0.00000  Uiso   1.00
C144   C     0.59746   0.77447   0.71175   0.00000  Uiso   1.00
C145   C     0.62593   0.77305   0.68849   0.00000  Uiso   1.00
C146   C     0.65239   0.75970   0.70205   0.00000  Uiso   1.00
C147   C     0.70207   0.74029   0.71093   0.00000  Uiso   1.00
C148   C     0.52278   0.75150   0.71285   0.00000  Uiso   1.00
C149   C     0.48845   0.73077   0.69050   0.00000  Uiso   1.00
C150   C     0.78537   0.36474   0.37165   0.00000  Uiso   1.00
C151   C     0.71911   0.30967   0.38224   0.00000  Uiso   1.00
C152   C     0.56203   0.76689   0.76800   0.00000  Uiso   1.00
C153   C     0.90561   0.47892   0.43012   0.00000  Uiso   1.00
C154   C     0.91251   0.50702   0.45729   0.00000  Uiso   1.00
C155   C     0.92145   0.54710   0.44764   0.00000  Uiso   1.00
C156   C     0.59550   0.76295   0.74730   0.00000  Uiso   1.00
C157   C     0.95526   0.41626   0.42757   0.00000  Uiso   1.00
C158   C     0.65042   0.74817   0.73766   0.00000  Uiso   1.00
C159   C     0.85415   0.40665   0.41507   0.00000  Uiso   1.00
C160   C     0.81778   0.37398   0.42958   0.00000  Uiso   1.00
C161   C     0.78340   0.35320   0.40727   0.00000  Uiso   1.00
H162   H     0.56719   0.79705   0.67487   0.00000  Uiso   1.00
H163   H     0.58470   0.87271   0.69070   0.00000  Uiso   1.00
H164   H     0.62744   0.78196   0.66098   0.00000  Uiso   1.00
H165   H     0.48999   0.73969   0.66300   0.00000  Uiso   1.00
H166   H     0.93660   0.61819   0.39059   0.00000  Uiso   1.00
H167   H     0.69337   0.76016   0.66125   0.00000  Uiso   1.00
H168   H     0.40353   0.67101   0.66551   0.00000  Uiso   1.00
H169   H     0.89384   0.42459   0.46234   0.00000  Uiso   1.00
H170   H     0.91098   0.49810   0.48480   0.00000  Uiso   1.00
H171   H     0.95372   0.40735   0.45508   0.00000  Uiso   1.00
H172   H     0.14961   0.03174   0.12376   0.00000  Uiso   1.00
H173   H     0.93088   0.58469   0.49402   0.00000  Uiso   1.00
H174   H     0.02098   0.39332   0.43134   0.00000  Uiso   1.00
H175   H     0.06447   0.97084   0.10227   0.00000  Uiso   1.00
O176   O     0.94515   0.65051   0.45489   0.00000  Uiso   1.00
O177   O     0.73003   0.73277   0.70600   0.00000  Uiso   1.00
O178   O     0.68309   0.28248   0.37825   0.00000  Uiso   1.00
N179   N     0.93289   0.60022   0.41185   0.00000  Uiso   1.00
N180   N     0.68381   0.75464   0.68659   0.00000  Uiso   1.00
N181   N     0.74616   0.33795   0.35723   0.00000  Uiso   1.00
N182   N     0.92981   0.58219   0.46750   0.00000  Uiso   1.00
N183   N     0.01406   0.40328   0.40891   0.00000  Uiso   1.00
N184   N     0.74309   0.31993   0.41289   0.00000  Uiso   1.00
C185   C     0.23232   0.12142   0.03588   0.00000  Uiso   1.00
C186   C     0.24090   0.15710   0.06123   0.00000  Uiso   1.00
C187   C     0.58318   0.86381   0.71821   0.00000  Uiso   1.00
C188   C     0.59009   0.89197   0.74536   0.00000  Uiso   1.00
C189   C     0.60374   0.94913   0.77932   0.00000  Uiso   1.00
C190   C     0.26413   0.10780   0.04509   0.00000  Uiso   1.00
C191   C     0.29259   0.10639   0.02182   0.00000  Uiso   1.00
C192   C     0.31905   0.09304   0.03538   0.00000  Uiso   1.00
C193   C     0.36874   0.07363   0.04426   0.00000  Uiso   1.00
C194   C     0.18945   0.08483   0.04618   0.00000  Uiso   1.00
C195   C     0.15512   0.06410   0.02384   0.00000  Uiso   1.00
C196   C     0.45204   0.69807   0.70499   0.00000  Uiso   1.00
C197   C     0.38577   0.64301   0.71557   0.00000  Uiso   1.00
C198   C     0.22870   0.10022   0.10133   0.00000  Uiso   1.00
C199   C     0.57227   0.81225   0.76345   0.00000  Uiso   1.00
C200   C     0.57917   0.84036   0.79062   0.00000  Uiso   1.00
C201   C     0.58812   0.88044   0.78098   0.00000  Uiso   1.00
C202   C     0.26217   0.09628   0.08063   0.00000  Uiso   1.00
C203   C     0.62192   0.74960   0.76090   0.00000  Uiso   1.00
C204   C     0.31708   0.08150   0.07099   0.00000  Uiso   1.00
C205   C     0.52082   0.73998   0.74840   0.00000  Uiso   1.00
C206   C     0.48445   0.70731   0.76292   0.00000  Uiso   1.00
C207   C     0.45007   0.68654   0.74060   0.00000  Uiso   1.00
H208   H     0.23385   0.13039   0.00821   0.00000  Uiso   1.00
H209   H     0.25137   0.20605   0.02403   0.00000  Uiso   1.00
H210   H     0.29410   0.11530   0.99431   0.00000  Uiso   1.00
H211   H     0.15665   0.07302   0.99633   0.00000  Uiso   1.00
H212   H     0.60326   0.95153   0.72392   0.00000  Uiso   1.00
H213   H     0.36004   0.09349   0.99458   0.00000  Uiso   1.00
H214   H     0.07019   0.00434   0.99884   0.00000  Uiso   1.00
H215   H     0.56050   0.75792   0.79568   0.00000  Uiso   1.00
H216   H     0.57765   0.83144   0.81813   0.00000  Uiso   1.00
H217   H     0.62039   0.74069   0.78841   0.00000  Uiso   1.00
H218   H     0.81627   0.36508   0.45710   0.00000  Uiso   1.00
H219   H     0.59754   0.91802   0.82735   0.00000  Uiso   1.00
H220   H     0.68765   0.72665   0.76468   0.00000  Uiso   1.00
H221   H     0.73114   0.30418   0.43560   0.00000  Uiso   1.00
O222   O     0.61182   0.98385   0.78823   0.00000  Uiso   1.00
O223   O     0.39669   0.06611   0.03934   0.00000  Uiso   1.00
O224   O     0.34976   0.61582   0.71159   0.00000  Uiso   1.00
N225   N     0.59955   0.93355   0.74518   0.00000  Uiso   1.00
N226   N     0.35047   0.08797   0.01992   0.00000  Uiso   1.00
N227   N     0.41283   0.67129   0.69056   0.00000  Uiso   1.00
N228   N     0.59648   0.91552   0.80083   0.00000  Uiso   1.00
N229   N     0.68073   0.73661   0.74224   0.00000  Uiso   1.00
N230   N     0.40975   0.65326   0.74622   0.00000  Uiso   1.00
C231   C     0.89899   0.45476   0.36922   0.00000  Uiso   1.00
C232   C     0.90757   0.49044   0.39457   0.00000  Uiso   1.00
C233   C     0.24984   0.19715   0.05155   0.00000  Uiso   1.00
C234   C     0.25676   0.22531   0.07870   0.00000  Uiso   1.00
C235   C     0.27040   0.28247   0.11265   0.00000  Uiso   1.00
C236   C     0.93080   0.44113   0.37842   0.00000  Uiso   1.00
C237   C     0.95926   0.43972   0.35515   0.00000  Uiso   1.00
C238   C     0.98572   0.42637   0.36871   0.00000  Uiso   1.00
C239   C     0.03541   0.40696   0.37759   0.00000  Uiso   1.00
C240   C     0.85612   0.41817   0.37952   0.00000  Uiso   1.00
C241   C     0.82179   0.39743   0.35717   0.00000  Uiso   1.00
C242   C     0.11871   0.03141   0.03832   0.00000  Uiso   1.00
C243   C     0.05244   0.97634   0.04890   0.00000  Uiso   1.00
C244   C     0.89537   0.43355   0.43467   0.00000  Uiso   1.00
C245   C     0.23894   0.14559   0.09678   0.00000  Uiso   1.00
C246   C     0.24584   0.17369   0.12396   0.00000  Uiso   1.00
C247   C     0.25478   0.21377   0.11431   0.00000  Uiso   1.00
C248   C     0.92883   0.42962   0.41397   0.00000  Uiso   1.00
C249   C     0.28859   0.08293   0.09423   0.00000  Uiso   1.00
C250   C     0.98375   0.41483   0.40433   0.00000  Uiso   1.00
C251   C     0.18748   0.07332   0.08173   0.00000  Uiso   1.00
C252   C     0.15112   0.04065   0.09625   0.00000  Uiso   1.00
C253   C     0.11674   0.01987   0.07393   0.00000  Uiso   1.00
H254   H     0.90052   0.46372   0.34154   0.00000  Uiso   1.00
H255   H     0.91803   0.53938   0.35736   0.00000  Uiso   1.00
H256   H     0.96077   0.44863   0.32764   0.00000  Uiso   1.00
H257   H     0.82332   0.40635   0.32966   0.00000  Uiso   1.00
H258   H     0.26993   0.28486   0.05725   0.00000  Uiso   1.00
H259   H     0.02670   0.42683   0.32792   0.00000  Uiso   1.00
H260   H     0.73686   0.33768   0.33217   0.00000  Uiso   1.00
H261   H     0.22717   0.09125   0.12901   0.00000  Uiso   1.00
H262   H     0.24432   0.16477   0.15146   0.00000  Uiso   1.00
H263   H     0.28706   0.07402   0.12174   0.00000  Uiso   1.00
H264   H     0.48294   0.69841   0.79043   0.00000  Uiso   1.00
H265   H     0.26421   0.25136   0.16068   0.00000  Uiso   1.00
H266   H     0.35432   0.05999   0.09801   0.00000  Uiso   1.00
H267   H     0.39781   0.63751   0.76893   0.00000  Uiso   1.00
O268   O     0.27848   0.31718   0.12156   0.00000  Uiso   1.00
O269   O     0.06336   0.39944   0.37267   0.00000  Uiso   1.00
O270   O     0.01643   0.94915   0.04492   0.00000  Uiso   1.00
N271   N     0.26622   0.26688   0.07851   0.00000  Uiso   1.00
N272   N     0.01714   0.42131   0.35326   0.00000  Uiso   1.00
N273   N     0.07950   0.00462   0.02390   0.00000  Uiso   1.00
N274   N     0.26314   0.24885   0.13417   0.00000  Uiso   1.00
N275   N     0.34739   0.06995   0.07558   0.00000  Uiso   1.00
N276   N     0.07642   0.98659   0.07955   0.00000  Uiso   1.00
C277   C     0.21191   0.77757   0.70255   0.00000  Uiso   1.00
C278   C     0.17623   0.75047   0.72790   0.00000  Uiso   1.00
C279   C     0.46952   0.38603   0.38488   0.00000  Uiso   1.00
C280   C     0.44136   0.36478   0.41203   0.00000  Uiso   1.00
C281   C     0.38420   0.32127   0.44598   0.00000  Uiso   1.00
C282   C     0.22553   0.82300   0.71175   0.00000  Uiso   1.00
C283   C     0.22695   0.85287   0.68849   0.00000  Uiso   1.00
C284   C     0.24030   0.89268   0.70205   0.00000  Uiso   1.00
C285   C     0.25971   0.96178   0.71093   0.00000  Uiso   1.00
C286   C     0.24850   0.77128   0.71285   0.00000  Uiso   1.00
C287   C     0.26923   0.75769   0.69050   0.00000  Uiso   1.00
C288   C     0.63526   0.42063   0.37165   0.00000  Uiso   1.00
C289   C     0.69033   0.40943   0.38224   0.00000  Uiso   1.00
C290   C     0.23311   0.79515   0.76800   0.00000  Uiso   1.00
C291   C     0.52108   0.42669   0.43012   0.00000  Uiso   1.00
C292   C     0.49298   0.40548   0.45729   0.00000  Uiso   1.00
C293   C     0.45290   0.37435   0.44764   0.00000  Uiso   1.00
C294   C     0.23705   0.83255   0.74730   0.00000  Uiso   1.00
C295   C     0.58374   0.53899   0.42757   0.00000  Uiso   1.00
C296   C     0.25183   0.90225   0.73766   0.00000  Uiso   1.00
C297   C     0.59335   0.44750   0.41507   0.00000  Uiso   1.00
C298   C     0.62602   0.44380   0.42958   0.00000  Uiso   1.00
C299   C     0.64680   0.43020   0.40727   0.00000  Uiso   1.00
H300   H     0.20295   0.77013   0.67487   0.00000  Uiso   1.00
H301   H     0.12729   0.71198   0.69070   0.00000  Uiso   1.00
H302   H     0.21804   0.84547   0.66098   0.00000  Uiso   1.00
H303   H     0.26031   0.75030   0.66300   0.00000  Uiso   1.00
H304   H     0.38181   0.31840   0.39059   0.00000  Uiso   1.00
H305   H     0.23984   0.93321   0.66125   0.00000  Uiso   1.00
H306   H     0.32899   0.73252   0.66551   0.00000  Uiso   1.00
H307   H     0.57541   0.46925   0.46234   0.00000  Uiso   1.00
H308   H     0.50190   0.41288   0.48480   0.00000  Uiso   1.00
H309   H     0.59265   0.54637   0.45508   0.00000  Uiso   1.00
H310   H     0.96826   0.11786   0.12376   0.00000  Uiso   1.00
H311   H     0.41531   0.34619   0.49402   0.00000  Uiso   1.00
H312   H     0.60668   0.62766   0.43134   0.00000  Uiso   1.00
H313   H     0.02916   0.09363   0.10227   0.00000  Uiso   1.00
O314   O     0.34949   0.29464   0.45489   0.00000  Uiso   1.00
O315   O     0.26723   0.99725   0.70600   0.00000  Uiso   1.00
O316   O     0.71752   0.40061   0.37825   0.00000  Uiso   1.00
N317   N     0.39978   0.33267   0.41185   0.00000  Uiso   1.00
N318   N     0.24536   0.92917   0.68659   0.00000  Uiso   1.00
N319   N     0.66205   0.40821   0.35723   0.00000  Uiso   1.00
N320   N     0.41781   0.34762   0.46750   0.00000  Uiso   1.00
N321   N     0.59672   0.61078   0.40891   0.00000  Uiso   1.00
N322   N     0.68007   0.42316   0.41289   0.00000  Uiso   1.00
C323   C     0.87858   0.11090   0.03588   0.00000  Uiso   1.00
C324   C     0.84290   0.08380   0.06123   0.00000  Uiso   1.00
C325   C     0.13619   0.71936   0.71821   0.00000  Uiso   1.00
C326   C     0.10803   0.69812   0.74536   0.00000  Uiso   1.00
C327   C     0.05087   0.65460   0.77932   0.00000  Uiso   1.00
C328   C     0.89220   0.15633   0.04509   0.00000  Uiso   1.00
C329   C     0.89361   0.18621   0.02182   0.00000  Uiso   1.00
C330   C     0.90696   0.22602   0.03538   0.00000  Uiso   1.00
C331   C     0.92637   0.29511   0.04426   0.00000  Uiso   1.00
C332   C     0.91517   0.10462   0.04618   0.00000  Uiso   1.00
C333   C     0.93590   0.09102   0.02384   0.00000  Uiso   1.00
C334   C     0.30193   0.75396   0.70499   0.00000  Uiso   1.00
C335   C     0.35699   0.74277   0.71557   0.00000  Uiso   1.00
C336   C     0.89978   0.12848   0.10133   0.00000  Uiso   1.00
C337   C     0.18775   0.76002   0.76345   0.00000  Uiso   1.00
C338   C     0.15964   0.73882   0.79062   0.00000  Uiso   1.00
C339   C     0.11956   0.70768   0.78098   0.00000  Uiso   1.00
C340   C     0.90372   0.16588   0.08063   0.00000  Uiso   1.00
C341   C     0.25040   0.87233   0.76090   0.00000  Uiso   1.00
C342   C     0.91850   0.23559   0.07099   0.00000  Uiso   1.00
C343   C     0.26002   0.78083   0.74840   0.00000  Uiso   1.00
C344   C     0.29269   0.77714   0.76292   0.00000  Uiso   1.00
C345   C     0.31346   0.76353   0.74060   0.00000  Uiso   1.00
H346   H     0.86961   0.10347   0.00821   0.00000  Uiso   1.00
H347   H     0.79395   0.04532   0.02403   0.00000  Uiso   1.00
H348   H     0.88470   0.17881   0.99431   0.00000  Uiso   1.00
H349   H     0.92698   0.08363   0.99633   0.00000  Uiso   1.00
H350   H     0.04847   0.65174   0.72392   0.00000  Uiso   1.00
H351   H     0.90651   0.26654   0.99458   0.00000  Uiso   1.00
H352   H     0.99566   0.06585   0.99884   0.00000  Uiso   1.00
H353   H     0.24208   0.80259   0.79568   0.00000  Uiso   1.00
H354   H     0.16856   0.74621   0.81813   0.00000  Uiso   1.00
H355   H     0.25931   0.87970   0.78841   0.00000  Uiso   1.00
H356   H     0.63492   0.45120   0.45710   0.00000  Uiso   1.00
H357   H     0.08198   0.67952   0.82735   0.00000  Uiso   1.00
H358   H     0.27335   0.96100   0.76468   0.00000  Uiso   1.00
H359   H     0.69582   0.42697   0.43560   0.00000  Uiso   1.00
O360   O     0.01615   0.62797   0.78823   0.00000  Uiso   1.00
O361   O     0.93389   0.33059   0.03934   0.00000  Uiso   1.00
O362   O     0.38418   0.73395   0.71159   0.00000  Uiso   1.00
N363   N     0.06645   0.66601   0.74518   0.00000  Uiso   1.00
N364   N     0.91203   0.26250   0.01992   0.00000  Uiso   1.00
N365   N     0.32871   0.74154   0.69056   0.00000  Uiso   1.00
N366   N     0.08448   0.68096   0.80083   0.00000  Uiso   1.00
N367   N     0.26339   0.94412   0.74224   0.00000  Uiso   1.00
N368   N     0.34674   0.75649   0.74622   0.00000  Uiso   1.00
C369   C     0.54524   0.44423   0.36922   0.00000  Uiso   1.00
C370   C     0.50956   0.41714   0.39457   0.00000  Uiso   1.00
C371   C     0.80285   0.05270   0.05155   0.00000  Uiso   1.00
C372   C     0.77469   0.03145   0.07870   0.00000  Uiso   1.00
C373   C     0.71753   0.98794   0.11265   0.00000  Uiso   1.00
C374   C     0.55887   0.48966   0.37842   0.00000  Uiso   1.00
C375   C     0.56028   0.51954   0.35515   0.00000  Uiso   1.00
C376   C     0.57363   0.55935   0.36871   0.00000  Uiso   1.00
C377   C     0.59304   0.62845   0.37759   0.00000  Uiso   1.00
C378   C     0.58183   0.43795   0.37952   0.00000  Uiso   1.00
C379   C     0.60257   0.42435   0.35717   0.00000  Uiso   1.00
C380   C     0.96859   0.08730   0.03832   0.00000  Uiso   1.00
C381   C     0.02366   0.07610   0.04890   0.00000  Uiso   1.00
C382   C     0.56645   0.46182   0.43467   0.00000  Uiso   1.00
C383   C     0.85441   0.09335   0.09678   0.00000  Uiso   1.00
C384   C     0.82631   0.07215   0.12396   0.00000  Uiso   1.00
C385   C     0.78623   0.04102   0.11431   0.00000  Uiso   1.00
C386   C     0.57038   0.49922   0.41397   0.00000  Uiso   1.00
C387   C     0.91707   0.20566   0.09423   0.00000  Uiso   1.00
C388   C     0.58517   0.56892   0.40433   0.00000  Uiso   1.00
C389   C     0.92668   0.11416   0.08173   0.00000  Uiso   1.00
C390   C     0.95935   0.11047   0.09625   0.00000  Uiso   1.00
C391   C     0.98013   0.09687   0.07393   0.00000  Uiso   1.00
H392   H     0.53628   0.43680   0.34154   0.00000  Uiso   1.00
H393   H     0.46062   0.37865   0.35736   0.00000  Uiso   1.00
H394   H     0.55137   0.51214   0.32764   0.00000  Uiso   1.00
H395   H     0.59365   0.41696   0.32966   0.00000  Uiso   1.00
H396   H     0.71514   0.98507   0.05725   0.00000  Uiso   1.00
H397   H     0.57317   0.59988   0.32792   0.00000  Uiso   1.00
H398   H     0.66232   0.39918   0.33217   0.00000  Uiso   1.00
H399   H     0.90875   0.13592   0.12901   0.00000  Uiso   1.00
H400   H     0.83523   0.07955   0.15146   0.00000  Uiso   1.00
H401   H     0.92598   0.21304   0.12174   0.00000  Uiso   1.00
H402   H     0.30159   0.78453   0.79043   0.00000  Uiso   1.00
H403   H     0.74864   0.01285   0.16068   0.00000  Uiso   1.00
H404   H     0.94001   0.29433   0.09801   0.00000  Uiso   1.00
H405   H     0.36249   0.76030   0.76893   0.00000  Uiso   1.00
O406   O     0.68282   0.96130   0.12156   0.00000  Uiso   1.00
O407   O     0.60056   0.66392   0.37267   0.00000  Uiso   1.00
O408   O     0.05085   0.06728   0.04492   0.00000  Uiso   1.00
N409   N     0.73312   0.99934   0.07851   0.00000  Uiso   1.00
N410   N     0.57869   0.59583   0.35326   0.00000  Uiso   1.00
N411   N     0.99538   0.07488   0.02390   0.00000  Uiso   1.00
N412   N     0.75115   0.01429   0.13417   0.00000  Uiso   1.00
N413   N     0.93005   0.27745   0.07558   0.00000  Uiso   1.00
N414   N     0.01341   0.08983   0.07955   0.00000  Uiso   1.00
C415   C     0.43435   0.22243   0.79745   0.00000  Uiso   1.00
C416   C     0.42576   0.24953   0.77210   0.00000  Uiso   1.00
C417   C     0.08349   0.61397   0.11512   0.00000  Uiso   1.00
C418   C     0.07658   0.63522   0.08797   0.00000  Uiso   1.00
C419   C     0.06293   0.67873   0.05402   0.00000  Uiso   1.00
C420   C     0.40254   0.17700   0.78825   0.00000  Uiso   1.00
C421   C     0.37407   0.14713   0.81151   0.00000  Uiso   1.00
C422   C     0.34761   0.10732   0.79795   0.00000  Uiso   1.00
C423   C     0.29793   0.03822   0.78907   0.00000  Uiso   1.00
C424   C     0.47722   0.22872   0.78715   0.00000  Uiso   1.00
C425   C     0.51155   0.24231   0.80950   0.00000  Uiso   1.00
C426   C     0.21463   0.57937   0.12835   0.00000  Uiso   1.00
C427   C     0.28089   0.59057   0.11776   0.00000  Uiso   1.00
C428   C     0.43797   0.20485   0.73200   0.00000  Uiso   1.00
C429   C     0.09439   0.57331   0.06988   0.00000  Uiso   1.00
C430   C     0.08749   0.59452   0.04271   0.00000  Uiso   1.00
C431   C     0.07855   0.62565   0.05236   0.00000  Uiso   1.00
C432   C     0.40450   0.16745   0.75270   0.00000  Uiso   1.00
C433   C     0.04474   0.46101   0.07243   0.00000  Uiso   1.00
C434   C     0.34958   0.09775   0.76234   0.00000  Uiso   1.00
C435   C     0.14585   0.55250   0.08493   0.00000  Uiso   1.00
C436   C     0.18222   0.55620   0.07042   0.00000  Uiso   1.00
C437   C     0.21660   0.56980   0.09273   0.00000  Uiso   1.00
H438   H     0.43281   0.22987   0.82513   0.00000  Uiso   1.00
H439   H     0.41530   0.28802   0.80930   0.00000  Uiso   1.00
H440   H     0.37256   0.15453   0.83902   0.00000  Uiso   1.00
H441   H     0.51001   0.24970   0.83700   0.00000  Uiso   1.00
H442   H     0.06340   0.68160   0.10941   0.00000  Uiso   1.00
H443   H     0.30663   0.06679   0.83875   0.00000  Uiso   1.00
H444   H     0.59647   0.26748   0.83449   0.00000  Uiso   1.00
H445   H     0.10616   0.53075   0.03766   0.00000  Uiso   1.00
H446   H     0.08902   0.58712   0.01520   0.00000  Uiso   1.00
H447   H     0.04628   0.45363   0.04492   0.00000  Uiso   1.00
H448   H     0.85039   0.88214   0.37624   0.00000  Uiso   1.00
H449   H     0.06912   0.65381   0.00598   0.00000  Uiso   1.00
H450   H     0.97902   0.37234   0.06866   0.00000  Uiso   1.00
H451   H     0.93553   0.90637   0.39773   0.00000  Uiso   1.00
O452   O     0.05485   0.70536   0.04511   0.00000  Uiso   1.00
O453   O     0.26997   0.00275   0.79400   0.00000  Uiso   1.00
O454   O     0.31691   0.59939   0.12175   0.00000  Uiso   1.00
N455   N     0.06711   0.66733   0.08815   0.00000  Uiso   1.00
N456   N     0.31619   0.07083   0.81341   0.00000  Uiso   1.00
N457   N     0.25384   0.59179   0.14277   0.00000  Uiso   1.00
N458   N     0.07019   0.65238   0.03250   0.00000  Uiso   1.00
N459   N     0.98594   0.38922   0.09109   0.00000  Uiso   1.00
N460   N     0.25691   0.57684   0.08711   0.00000  Uiso   1.00
C461   C     0.10101   0.55577   0.13078   0.00000  Uiso   1.00
C462   C     0.09243   0.58286   0.10543   0.00000  Uiso   1.00
C463   C     0.75016   0.94730   0.44845   0.00000  Uiso   1.00
C464   C     0.74324   0.96855   0.42130   0.00000  Uiso   1.00
C465   C     0.72960   0.01206   0.38735   0.00000  Uiso   1.00
C466   C     0.06920   0.51034   0.12158   0.00000  Uiso   1.00
C467   C     0.04074   0.48046   0.14485   0.00000  Uiso   1.00
C468   C     0.01428   0.44065   0.13129   0.00000  Uiso   1.00
C469   C     0.96459   0.37155   0.12241   0.00000  Uiso   1.00
C470   C     0.14388   0.56205   0.12048   0.00000  Uiso   1.00
C471   C     0.17821   0.57565   0.14283   0.00000  Uiso   1.00
C472   C     0.88129   0.91270   0.46168   0.00000  Uiso   1.00
C473   C     0.94756   0.92390   0.45110   0.00000  Uiso   1.00
C474   C     0.10463   0.53818   0.06533   0.00000  Uiso   1.00
C475   C     0.76106   0.90665   0.40322   0.00000  Uiso   1.00
C476   C     0.75416   0.92785   0.37604   0.00000  Uiso   1.00
C477   C     0.74522   0.95898   0.38569   0.00000  Uiso   1.00
C478   C     0.07117   0.50078   0.08603   0.00000  Uiso   1.00
C479   C     0.71141   0.79434   0.40577   0.00000  Uiso   1.00
C480   C     0.01625   0.43108   0.09567   0.00000  Uiso   1.00
C481   C     0.81252   0.88584   0.41827   0.00000  Uiso   1.00
C482   C     0.84888   0.88953   0.40375   0.00000  Uiso   1.00
C483   C     0.88326   0.90313   0.42607   0.00000  Uiso   1.00
H484   H     0.09948   0.56320   0.15846   0.00000  Uiso   1.00
H485   H     0.08197   0.62135   0.14264   0.00000  Uiso   1.00
H486   H     0.03923   0.48786   0.17236   0.00000  Uiso   1.00
H487   H     0.17668   0.58304   0.17034   0.00000  Uiso   1.00
H488   H     0.73007   0.01493   0.44275   0.00000  Uiso   1.00
H489   H     0.97330   0.40012   0.17208   0.00000  Uiso   1.00
H490   H     0.26314   0.60082   0.16783   0.00000  Uiso   1.00
H491   H     0.77283   0.86408   0.37099   0.00000  Uiso   1.00
H492   H     0.75568   0.92045   0.34854   0.00000  Uiso   1.00
H493   H     0.71294   0.78696   0.37826   0.00000  Uiso   1.00
H494   H     0.51706   0.21547   0.70957   0.00000  Uiso   1.00
H495   H     0.73579   0.98715   0.33932   0.00000  Uiso   1.00
H496   H     0.64568   0.70567   0.40199   0.00000  Uiso   1.00
H497   H     0.60219   0.23970   0.73107   0.00000  Uiso   1.00
O498   O     0.72152   0.03870   0.37844   0.00000  Uiso   1.00
O499   O     0.93664   0.33608   0.12733   0.00000  Uiso   1.00
O500   O     0.98357   0.93272   0.45508   0.00000  Uiso   1.00
N501   N     0.73378   0.00066   0.42149   0.00000  Uiso   1.00
N502   N     0.98286   0.40417   0.14674   0.00000  Uiso   1.00
N503   N     0.92050   0.92512   0.47610   0.00000  Uiso   1.00
N504   N     0.73686   0.98571   0.36583   0.00000  Uiso   1.00
N505   N     0.65261   0.72255   0.42442   0.00000  Uiso   1.00
N506   N     0.92358   0.91017   0.42045   0.00000  Uiso   1.00
C507   C     0.76768   0.88910   0.46412   0.00000  Uiso   1.00
C508   C     0.75910   0.91620   0.43877   0.00000  Uiso   1.00
C509   C     0.41682   0.28064   0.78179   0.00000  Uiso   1.00
C510   C     0.40991   0.30188   0.75464   0.00000  Uiso   1.00
C511   C     0.39626   0.34540   0.72068   0.00000  Uiso   1.00
C512   C     0.73587   0.84367   0.45491   0.00000  Uiso   1.00
C513   C     0.70741   0.81379   0.47818   0.00000  Uiso   1.00
C514   C     0.68095   0.77398   0.46462   0.00000  Uiso   1.00
C515   C     0.63126   0.70489   0.45574   0.00000  Uiso   1.00
C516   C     0.81055   0.89538   0.45382   0.00000  Uiso   1.00
C517   C     0.84488   0.90898   0.47616   0.00000  Uiso   1.00
C518   C     0.54796   0.24604   0.79501   0.00000  Uiso   1.00
C519   C     0.61423   0.25723   0.78443   0.00000  Uiso   1.00
C520   C     0.77130   0.87152   0.39867   0.00000  Uiso   1.00
C521   C     0.42773   0.23998   0.73655   0.00000  Uiso   1.00
C522   C     0.42083   0.26118   0.70938   0.00000  Uiso   1.00
C523   C     0.41188   0.29232   0.71902   0.00000  Uiso   1.00
C524   C     0.73783   0.83412   0.41937   0.00000  Uiso   1.00
C525   C     0.37808   0.12767   0.73910   0.00000  Uiso   1.00
C526   C     0.68292   0.76441   0.42901   0.00000  Uiso   1.00
C527   C     0.47918   0.21917   0.75160   0.00000  Uiso   1.00
C528   C     0.51555   0.22286   0.73708   0.00000  Uiso   1.00
C529   C     0.54993   0.23647   0.75940   0.00000  Uiso   1.00
H530   H     0.76615   0.89653   0.49179   0.00000  Uiso   1.00
H531   H     0.74863   0.95468   0.47597   0.00000  Uiso   1.00
H532   H     0.70590   0.82119   0.50569   0.00000  Uiso   1.00
H533   H     0.84335   0.91637   0.50367   0.00000  Uiso   1.00
H534   H     0.39674   0.34826   0.77608   0.00000  Uiso   1.00
H535   H     0.63996   0.73346   0.50542   0.00000  Uiso   1.00
H536   H     0.92981   0.93415   0.50116   0.00000  Uiso   1.00
H537   H     0.43950   0.19741   0.70432   0.00000  Uiso   1.00
H538   H     0.42235   0.25379   0.68187   0.00000  Uiso   1.00
H539   H     0.37961   0.12030   0.71159   0.00000  Uiso   1.00
H540   H     0.18373   0.54880   0.04290   0.00000  Uiso   1.00
H541   H     0.40246   0.32048   0.67265   0.00000  Uiso   1.00
H542   H     0.31235   0.03900   0.73532   0.00000  Uiso   1.00
H543   H     0.26886   0.57303   0.06440   0.00000  Uiso   1.00
O544   O     0.38818   0.37203   0.71177   0.00000  Uiso   1.00
O545   O     0.60331   0.66941   0.46066   0.00000  Uiso   1.00
O546   O     0.65024   0.26605   0.78841   0.00000  Uiso   1.00
N547   N     0.40045   0.33399   0.75482   0.00000  Uiso   1.00
N548   N     0.64953   0.73750   0.48008   0.00000  Uiso   1.00
N549   N     0.58717   0.25846   0.80944   0.00000  Uiso   1.00
N550   N     0.40352   0.31904   0.69917   0.00000  Uiso   1.00
N551   N     0.31927   0.05588   0.75776   0.00000  Uiso   1.00
N552   N     0.59025   0.24351   0.75378   0.00000  Uiso   1.00
C553   C     0.78809   0.56565   0.79745   0.00000  Uiso   1.00
C554   C     0.82377   0.57424   0.77210   0.00000  Uiso   1.00
C555   C     0.53048   0.91651   0.11512   0.00000  Uiso   1.00
C556   C     0.55864   0.92342   0.08797   0.00000  Uiso   1.00
C557   C     0.61580   0.93707   0.05402   0.00000  Uiso   1.00
C558   C     0.77447   0.59746   0.78825   0.00000  Uiso   1.00
C559   C     0.77305   0.62593   0.81151   0.00000  Uiso   1.00
C560   C     0.75970   0.65239   0.79795   0.00000  Uiso   1.00
C561   C     0.74029   0.70207   0.78907   0.00000  Uiso   1.00
C562   C     0.75150   0.52278   0.78715   0.00000  Uiso   1.00
C563   C     0.73077   0.48845   0.80950   0.00000  Uiso   1.00
C564   C     0.36474   0.78537   0.12835   0.00000  Uiso   1.00
C565   C     0.30967   0.71911   0.11776   0.00000  Uiso   1.00
C566   C     0.76689   0.56203   0.73200   0.00000  Uiso   1.00
C567   C     0.47892   0.90561   0.06988   0.00000  Uiso   1.00
C568   C     0.50702   0.91251   0.04271   0.00000  Uiso   1.00
C569   C     0.54710   0.92145   0.05236   0.00000  Uiso   1.00
C570   C     0.76295   0.59550   0.75270   0.00000  Uiso   1.00
C571   C     0.41626   0.95526   0.07243   0.00000  Uiso   1.00
C572   C     0.74817   0.65042   0.76234   0.00000  Uiso   1.00
C573   C     0.40665   0.85415   0.08493   0.00000  Uiso   1.00
C574   C     0.37398   0.81778   0.07042   0.00000  Uiso   1.00
C575   C     0.35320   0.78340   0.09273   0.00000  Uiso   1.00
H576   H     0.79705   0.56719   0.82513   0.00000  Uiso   1.00
H577   H     0.87271   0.58470   0.80930   0.00000  Uiso   1.00
H578   H     0.78196   0.62744   0.83902   0.00000  Uiso   1.00
H579   H     0.73969   0.48999   0.83700   0.00000  Uiso   1.00
H580   H     0.61819   0.93660   0.10941   0.00000  Uiso   1.00
H581   H     0.76016   0.69337   0.83875   0.00000  Uiso   1.00
H582   H     0.67101   0.40353   0.83449   0.00000  Uiso   1.00
H583   H     0.42459   0.89384   0.03766   0.00000  Uiso   1.00
H584   H     0.49810   0.91098   0.01520   0.00000  Uiso   1.00
H585   H     0.40735   0.95372   0.04492   0.00000  Uiso   1.00
H586   H     0.03174   0.14961   0.37624   0.00000  Uiso   1.00
H587   H     0.58469   0.93088   0.00598   0.00000  Uiso   1.00
H588   H     0.39332   0.02098   0.06866   0.00000  Uiso   1.00
H589   H     0.97084   0.06447   0.39773   0.00000  Uiso   1.00
O590   O     0.65051   0.94515   0.04511   0.00000  Uiso   1.00
O591   O     0.73277   0.73003   0.79400   0.00000  Uiso   1.00
O592   O     0.28248   0.68309   0.12175   0.00000  Uiso   1.00
N593   N     0.60022   0.93289   0.08815   0.00000  Uiso   1.00
N594   N     0.75464   0.68381   0.81341   0.00000  Uiso   1.00
N595   N     0.33795   0.74616   0.14277   0.00000  Uiso   1.00
N596   N     0.58219   0.92981   0.03250   0.00000  Uiso   1.00
N597   N     0.40328   0.01406   0.09109   0.00000  Uiso   1.00
N598   N     0.31993   0.74309   0.08711   0.00000  Uiso   1.00
C599   C     0.45476   0.89899   0.13078   0.00000  Uiso   1.00
C600   C     0.49044   0.90757   0.10543   0.00000  Uiso   1.00
C601   C     0.19715   0.24984   0.44845   0.00000  Uiso   1.00
C602   C     0.22531   0.25676   0.42130   0.00000  Uiso   1.00
C603   C     0.28247   0.27040   0.38735   0.00000  Uiso   1.00
C604   C     0.44113   0.93080   0.12158   0.00000  Uiso   1.00
C605   C     0.43972   0.95926   0.14485   0.00000  Uiso   1.00
C606   C     0.42637   0.98572   0.13129   0.00000  Uiso   1.00
C607   C     0.40696   0.03541   0.12241   0.00000  Uiso   1.00
C608   C     0.41817   0.85612   0.12048   0.00000  Uiso   1.00
C609   C     0.39743   0.82179   0.14283   0.00000  Uiso   1.00
C610   C     0.03141   0.11871   0.46168   0.00000  Uiso   1.00
C611   C     0.97634   0.05244   0.45110   0.00000  Uiso   1.00
C612   C     0.43355   0.89537   0.06533   0.00000  Uiso   1.00
C613   C     0.14559   0.23894   0.40322   0.00000  Uiso   1.00
C614   C     0.17369   0.24584   0.37604   0.00000  Uiso   1.00
C615   C     0.21377   0.25478   0.38569   0.00000  Uiso   1.00
C616   C     0.42962   0.92883   0.08603   0.00000  Uiso   1.00
C617   C     0.08293   0.28859   0.40577   0.00000  Uiso   1.00
C618   C     0.41483   0.98375   0.09567   0.00000  Uiso   1.00
C619   C     0.07332   0.18748   0.41827   0.00000  Uiso   1.00
C620   C     0.04065   0.15112   0.40375   0.00000  Uiso   1.00
C621   C     0.01987   0.11674   0.42607   0.00000  Uiso   1.00
H622   H     0.46372   0.90052   0.15846   0.00000  Uiso   1.00
H623   H     0.53938   0.91803   0.14264   0.00000  Uiso   1.00
H624   H     0.44863   0.96077   0.17236   0.00000  Uiso   1.00
H625   H     0.40635   0.82332   0.17034   0.00000  Uiso   1.00
H626   H     0.28486   0.26993   0.44275   0.00000  Uiso   1.00
H627   H     0.42683   0.02670   0.17208   0.00000  Uiso   1.00
H628   H     0.33768   0.73686   0.16783   0.00000  Uiso   1.00
H629   H     0.09125   0.22717   0.37099   0.00000  Uiso   1.00
H630   H     0.16477   0.24432   0.34854   0.00000  Uiso   1.00
H631   H     0.07402   0.28706   0.37826   0.00000  Uiso   1.00
H632   H     0.69841   0.48294   0.70957   0.00000  Uiso   1.00
H633   H     0.25136   0.26421   0.33932   0.00000  Uiso   1.00
H634   H     0.05999   0.35432   0.40199   0.00000  Uiso   1.00
H635   H     0.63751   0.39781   0.73107   0.00000  Uiso   1.00
O636   O     0.31718   0.27848   0.37844   0.00000  Uiso   1.00
O637   O     0.39944   0.06336   0.12733   0.00000  Uiso   1.00
O638   O     0.94915   0.01643   0.45508   0.00000  Uiso   1.00
N639   N     0.26688   0.26622   0.42149   0.00000  Uiso   1.00
N640   N     0.42131   0.01714   0.14674   0.00000  Uiso   1.00
N641   N     0.00462   0.07950   0.47610   0.00000  Uiso   1.00
N642   N     0.24885   0.26314   0.36583   0.00000  Uiso   1.00
N643   N     0.06995   0.34739   0.42442   0.00000  Uiso   1.00
N644   N     0.98659   0.07642   0.42045   0.00000  Uiso   1.00
C645   C     0.12142   0.23232   0.46412   0.00000  Uiso   1.00
C646   C     0.15710   0.24090   0.43877   0.00000  Uiso   1.00
C647   C     0.86381   0.58318   0.78179   0.00000  Uiso   1.00
C648   C     0.89197   0.59009   0.75464   0.00000  Uiso   1.00
C649   C     0.94913   0.60374   0.72068   0.00000  Uiso   1.00
C650   C     0.10780   0.26413   0.45491   0.00000  Uiso   1.00
C651   C     0.10639   0.29259   0.47818   0.00000  Uiso   1.00
C652   C     0.09304   0.31905   0.46462   0.00000  Uiso   1.00
C653   C     0.07363   0.36874   0.45574   0.00000  Uiso   1.00
C654   C     0.08483   0.18945   0.45382   0.00000  Uiso   1.00
C655   C     0.06410   0.15512   0.47616   0.00000  Uiso   1.00
C656   C     0.69807   0.45204   0.79501   0.00000  Uiso   1.00
C657   C     0.64301   0.38577   0.78443   0.00000  Uiso   1.00
C658   C     0.10022   0.22870   0.39867   0.00000  Uiso   1.00
C659   C     0.81225   0.57227   0.73655   0.00000  Uiso   1.00
C660   C     0.84036   0.57917   0.70938   0.00000  Uiso   1.00
C661   C     0.88044   0.58812   0.71902   0.00000  Uiso   1.00
C662   C     0.09628   0.26217   0.41937   0.00000  Uiso   1.00
C663   C     0.74960   0.62192   0.73910   0.00000  Uiso   1.00
C664   C     0.08150   0.31708   0.42901   0.00000  Uiso   1.00
C665   C     0.73998   0.52082   0.75160   0.00000  Uiso   1.00
C666   C     0.70731   0.48445   0.73708   0.00000  Uiso   1.00
C667   C     0.68654   0.45007   0.75940   0.00000  Uiso   1.00
H668   H     0.13039   0.23385   0.49179   0.00000  Uiso   1.00
H669   H     0.20605   0.25137   0.47597   0.00000  Uiso   1.00
H670   H     0.11530   0.29410   0.50569   0.00000  Uiso   1.00
H671   H     0.07302   0.15665   0.50367   0.00000  Uiso   1.00
H672   H     0.95153   0.60326   0.77608   0.00000  Uiso   1.00
H673   H     0.09349   0.36004   0.50542   0.00000  Uiso   1.00
H674   H     0.00434   0.07019   0.50116   0.00000  Uiso   1.00
H675   H     0.75792   0.56050   0.70432   0.00000  Uiso   1.00
H676   H     0.83144   0.57765   0.68187   0.00000  Uiso   1.00
H677   H     0.74069   0.62039   0.71159   0.00000  Uiso   1.00
H678   H     0.36508   0.81627   0.04290   0.00000  Uiso   1.00
H679   H     0.91802   0.59754   0.67265   0.00000  Uiso   1.00
H680   H     0.72665   0.68765   0.73532   0.00000  Uiso   1.00
H681   H     0.30418   0.73114   0.06440   0.00000  Uiso   1.00
O682   O     0.98385   0.61182   0.71177   0.00000  Uiso   1.00
O683   O     0.06611   0.39669   0.46066   0.00000  Uiso   1.00
O684   O     0.61582   0.34976   0.78841   0.00000  Uiso   1.00
N685   N     0.93355   0.59955   0.75482   0.00000  Uiso   1.00
N686   N     0.08797   0.35047   0.48008   0.00000  Uiso   1.00
N687   N     0.67129   0.41283   0.80944   0.00000  Uiso   1.00
N688   N     0.91552   0.59648   0.69917   0.00000  Uiso   1.00
N689   N     0.73661   0.68073   0.75776   0.00000  Uiso   1.00
N690   N     0.65326   0.40975   0.75378   0.00000  Uiso   1.00
C691   C     0.77757   0.21191   0.79745   0.00000  Uiso   1.00
C692   C     0.75047   0.17623   0.77210   0.00000  Uiso   1.00
C693   C     0.38603   0.46952   0.11512   0.00000  Uiso   1.00
C694   C     0.36478   0.44136   0.08797   0.00000  Uiso   1.00
C695   C     0.32127   0.38420   0.05402   0.00000  Uiso   1.00
C696   C     0.82300   0.22553   0.78825   0.00000  Uiso   1.00
C697   C     0.85287   0.22695   0.81151   0.00000  Uiso   1.00
C698   C     0.89268   0.24030   0.79795   0.00000  Uiso   1.00
C699   C     0.96178   0.25971   0.78907   0.00000  Uiso   1.00
C700   C     0.77128   0.24850   0.78715   0.00000  Uiso   1.00
C701   C     0.75769   0.26923   0.80950   0.00000  Uiso   1.00
C702   C     0.42063   0.63526   0.12835   0.00000  Uiso   1.00
C703   C     0.40943   0.69033   0.11776   0.00000  Uiso   1.00
C704   C     0.79515   0.23311   0.73200   0.00000  Uiso   1.00
C705   C     0.42669   0.52108   0.06988   0.00000  Uiso   1.00
C706   C     0.40548   0.49298   0.04271   0.00000  Uiso   1.00
C707   C     0.37435   0.45290   0.05236   0.00000  Uiso   1.00
C708   C     0.83255   0.23705   0.75270   0.00000  Uiso   1.00
C709   C     0.53899   0.58374   0.07243   0.00000  Uiso   1.00
C710   C     0.90225   0.25183   0.76234   0.00000  Uiso   1.00
C711   C     0.44750   0.59335   0.08493   0.00000  Uiso   1.00
C712   C     0.44380   0.62602   0.07042   0.00000  Uiso   1.00
C713   C     0.43020   0.64680   0.09273   0.00000  Uiso   1.00
H714   H     0.77013   0.20295   0.82513   0.00000  Uiso   1.00
H715   H     0.71198   0.12729   0.80930   0.00000  Uiso   1.00
H716   H     0.84547   0.21804   0.83902   0.00000  Uiso   1.00
H717   H     0.75030   0.26031   0.83700   0.00000  Uiso   1.00
H718   H     0.31840   0.38181   0.10941   0.00000  Uiso   1.00
H719   H     0.93321   0.23984   0.83875   0.00000  Uiso   1.00
H720   H     0.73252   0.32899   0.83449   0.00000  Uiso   1.00
H721   H     0.46925   0.57541   0.03766   0.00000  Uiso   1.00
H722   H     0.41288   0.50190   0.01520   0.00000  Uiso   1.00
H723   H     0.54637   0.59265   0.04492   0.00000  Uiso   1.00
H724   H     0.11786   0.96826   0.37624   0.00000  Uiso   1.00
H725   H     0.34619   0.41531   0.00598   0.00000  Uiso   1.00
H726   H     0.62766   0.60668   0.06866   0.00000  Uiso   1.00
H727   H     0.09363   0.02916   0.39773   0.00000  Uiso   1.00
O728   O     0.29464   0.34949   0.04511   0.00000  Uiso   1.00
O729   O     0.99725   0.26723   0.79400   0.00000  Uiso   1.00
O730   O     0.40061   0.71752   0.12175   0.00000  Uiso   1.00
N731   N     0.33267   0.39978   0.08815   0.00000  Uiso   1.00
N732   N     0.92917   0.24536   0.81341   0.00000  Uiso   1.00
N733   N     0.40821   0.66205   0.14277   0.00000  Uiso   1.00
N734   N     0.34762   0.41781   0.03250   0.00000  Uiso   1.00
N735   N     0.61078   0.59672   0.09109   0.00000  Uiso   1.00
N736   N     0.42316   0.68007   0.08711   0.00000  Uiso   1.00
C737   C     0.44423   0.54524   0.13078   0.00000  Uiso   1.00
C738   C     0.41714   0.50956   0.10543   0.00000  Uiso   1.00
C739   C     0.05270   0.80285   0.44845   0.00000  Uiso   1.00
C740   C     0.03145   0.77469   0.42130   0.00000  Uiso   1.00
C741   C     0.98794   0.71753   0.38735   0.00000  Uiso   1.00
C742   C     0.48966   0.55887   0.12158   0.00000  Uiso   1.00
C743   C     0.51954   0.56028   0.14485   0.00000  Uiso   1.00
C744   C     0.55935   0.57363   0.13129   0.00000  Uiso   1.00
C745   C     0.62845   0.59304   0.12241   0.00000  Uiso   1.00
C746   C     0.43795   0.58183   0.12048   0.00000  Uiso   1.00
C747   C     0.42435   0.60257   0.14283   0.00000  Uiso   1.00
C748   C     0.08730   0.96859   0.46168   0.00000  Uiso   1.00
C749   C     0.07610   0.02366   0.45110   0.00000  Uiso   1.00
C750   C     0.46182   0.56645   0.06533   0.00000  Uiso   1.00
C751   C     0.09335   0.85441   0.40322   0.00000  Uiso   1.00
C752   C     0.07215   0.82631   0.37604   0.00000  Uiso   1.00
C753   C     0.04102   0.78623   0.38569   0.00000  Uiso   1.00
C754   C     0.49922   0.57038   0.08603   0.00000  Uiso   1.00
C755   C     0.20566   0.91707   0.40577   0.00000  Uiso   1.00
C756   C     0.56892   0.58517   0.09567   0.00000  Uiso   1.00
C757   C     0.11416   0.92668   0.41827   0.00000  Uiso   1.00
C758   C     0.11047   0.95935   0.40375   0.00000  Uiso   1.00
C759   C     0.09687   0.98013   0.42607   0.00000  Uiso   1.00
H760   H     0.43680   0.53628   0.15846   0.00000  Uiso   1.00
H761   H     0.37865   0.46062   0.14264   0.00000  Uiso   1.00
H762   H     0.51214   0.55137   0.17236   0.00000  Uiso   1.00
H763   H     0.41696   0.59365   0.17034   0.00000  Uiso   1.00
H764   H     0.98507   0.71514   0.44275   0.00000  Uiso   1.00
H765   H     0.59988   0.57317   0.17208   0.00000  Uiso   1.00
H766   H     0.39918   0.66232   0.16783   0.00000  Uiso   1.00
H767   H     0.13592   0.90875   0.37099   0.00000  Uiso   1.00
H768   H     0.07955   0.83523   0.34854   0.00000  Uiso   1.00
H769   H     0.21304   0.92598   0.37826   0.00000  Uiso   1.00
H770   H     0.78453   0.30159   0.70957   0.00000  Uiso   1.00
H771   H     0.01285   0.74864   0.33932   0.00000  Uiso   1.00
H772   H     0.29433   0.94001   0.40199   0.00000  Uiso   1.00
H773   H     0.76030   0.36249   0.73107   0.00000  Uiso   1.00
O774   O     0.96130   0.68282   0.37844   0.00000  Uiso   1.00
O775   O     0.66392   0.60056   0.12733   0.00000  Uiso   1.00
O776   O     0.06728   0.05085   0.45508   0.00000  Uiso   1.00
N777   N     0.99934   0.73312   0.42149   0.00000  Uiso   1.00
N778   N     0.59583   0.57869   0.14674   0.00000  Uiso   1.00
N779   N     0.07488   0.99538   0.47610   0.00000  Uiso   1.00
N780   N     0.01429   0.75115   0.36583   0.00000  Uiso   1.00
N781   N     0.27745   0.93005   0.42442   0.00000  Uiso   1.00
N782   N     0.08983   0.01341   0.42045   0.00000  Uiso   1.00
C783   C     0.11090   0.87858   0.46412   0.00000  Uiso   1.00
C784   C     0.08380   0.84290   0.43877   0.00000  Uiso   1.00
C785   C     0.71936   0.13619   0.78179   0.00000  Uiso   1.00
C786   C     0.69812   0.10803   0.75464   0.00000  Uiso   1.00
C787   C     0.65460   0.05087   0.72068   0.00000  Uiso   1.00
C788   C     0.15633   0.89220   0.45491   0.00000  Uiso   1.00
C789   C     0.18621   0.89361   0.47818   0.00000  Uiso   1.00
C790   C     0.22602   0.90696   0.46462   0.00000  Uiso   1.00
C791   C     0.29511   0.92637   0.45574   0.00000  Uiso   1.00
C792   C     0.10462   0.91517   0.45382   0.00000  Uiso   1.00
C793   C     0.09102   0.93590   0.47616   0.00000  Uiso   1.00
C794   C     0.75396   0.30193   0.79501   0.00000  Uiso   1.00
C795   C     0.74277   0.35699   0.78443   0.00000  Uiso   1.00
C796   C     0.12848   0.89978   0.39867   0.00000  Uiso   1.00
C797   C     0.76002   0.18775   0.73655   0.00000  Uiso   1.00
C798   C     0.73882   0.15964   0.70938   0.00000  Uiso   1.00
C799   C     0.70768   0.11956   0.71902   0.00000  Uiso   1.00
C800   C     0.16588   0.90372   0.41937   0.00000  Uiso   1.00
C801   C     0.87233   0.25040   0.73910   0.00000  Uiso   1.00
C802   C     0.23559   0.91850   0.42901   0.00000  Uiso   1.00
C803   C     0.78083   0.26002   0.75160   0.00000  Uiso   1.00
C804   C     0.77714   0.29269   0.73708   0.00000  Uiso   1.00
C805   C     0.76353   0.31346   0.75940   0.00000  Uiso   1.00
H806   H     0.10347   0.86961   0.49179   0.00000  Uiso   1.00
H807   H     0.04532   0.79395   0.47597   0.00000  Uiso   1.00
H808   H     0.17881   0.88470   0.50569   0.00000  Uiso   1.00
H809   H     0.08363   0.92698   0.50367   0.00000  Uiso   1.00
H810   H     0.65174   0.04847   0.77608   0.00000  Uiso   1.00
H811   H     0.26654   0.90651   0.50542   0.00000  Uiso   1.00
H812   H     0.06585   0.99566   0.50116   0.00000  Uiso   1.00
H813   H     0.80259   0.24208   0.70432   0.00000  Uiso   1.00
H814   H     0.74621   0.16856   0.68187   0.00000  Uiso   1.00
H815   H     0.87970   0.25931   0.71159   0.00000  Uiso   1.00
H816   H     0.45120   0.63492   0.04290   0.00000  Uiso   1.00
H817   H     0.67952   0.08198   0.67265   0.00000  Uiso   1.00
H818   H     0.96100   0.27335   0.73532   0.00000  Uiso   1.00
H819   H     0.42697   0.69582   0.06440   0.00000  Uiso   1.00
O820   O     0.62797   0.01615   0.71177   0.00000  Uiso   1.00
O821   O     0.33059   0.93389   0.46066   0.00000  Uiso   1.00
O822   O     0.73395   0.38418   0.78841   0.00000  Uiso   1.00
N823   N     0.66601   0.06645   0.75482   0.00000  Uiso   1.00
N824   N     0.26250   0.91203   0.48008   0.00000  Uiso   1.00
N825   N     0.74154   0.32871   0.80944   0.00000  Uiso   1.00
N826   N     0.68096   0.08448   0.69917   0.00000  Uiso   1.00
N827   N     0.94412   0.26339   0.75776   0.00000  Uiso   1.00
N828   N     0.75649   0.34674   0.75378   0.00000  Uiso   1.00
C829   C     0.77757   0.56565   0.29745   0.00000  Uiso   1.00
C830   C     0.75047   0.57424   0.27210   0.00000  Uiso   1.00
C831   C     0.38603   0.91651   0.61512   0.00000  Uiso   1.00
C832   C     0.36478   0.92342   0.58797   0.00000  Uiso   1.00
C833   C     0.32127   0.93707   0.55402   0.00000  Uiso   1.00
C834   C     0.82300   0.59746   0.28825   0.00000  Uiso   1.00
C835   C     0.85287   0.62593   0.31151   0.00000  Uiso   1.00
C836   C     0.89268   0.65239   0.29795   0.00000  Uiso   1.00
C837   C     0.96178   0.70207   0.28907   0.00000  Uiso   1.00
C838   C     0.77128   0.52278   0.28715   0.00000  Uiso   1.00
C839   C     0.75769   0.48845   0.30950   0.00000  Uiso   1.00
C840   C     0.42063   0.78537   0.62835   0.00000  Uiso   1.00
C841   C     0.40943   0.71911   0.61776   0.00000  Uiso   1.00
C842   C     0.79515   0.56203   0.23200   0.00000  Uiso   1.00
C843   C     0.42669   0.90561   0.56988   0.00000  Uiso   1.00
C844   C     0.40548   0.91251   0.54271   0.00000  Uiso   1.00
C845   C     0.37435   0.92145   0.55236   0.00000  Uiso   1.00
C846   C     0.83255   0.59550   0.25270   0.00000  Uiso   1.00
C847   C     0.53899   0.95526   0.57243   0.00000  Uiso   1.00
C848   C     0.90225   0.65042   0.26234   0.00000  Uiso   1.00
C849   C     0.44750   0.85415   0.58493   0.00000  Uiso   1.00
C850   C     0.44380   0.81778   0.57042   0.00000  Uiso   1.00
C851   C     0.43020   0.78340   0.59273   0.00000  Uiso   1.00
H852   H     0.77013   0.56719   0.32513   0.00000  Uiso   1.00
H853   H     0.71198   0.58470   0.30930   0.00000  Uiso   1.00
H854   H     0.84547   0.62744   0.33902   0.00000  Uiso   1.00
H855   H     0.75030   0.48999   0.33700   0.00000  Uiso   1.00
H856   H     0.31840   0.93660   0.60941   0.00000  Uiso   1.00
H857   H     0.93321   0.69337   0.33875   0.00000  Uiso   1.00
H858   H     0.73252   0.40353   0.33449   0.00000  Uiso   1.00
H859   H     0.46925   0.89384   0.53766   0.00000  Uiso   1.00
H860   H     0.41288   0.91098   0.51520   0.00000  Uiso   1.00
H861   H     0.54637   0.95372   0.54492   0.00000  Uiso   1.00
H862   H     0.11786   0.14961   0.87624   0.00000  Uiso   1.00
H863   H     0.34619   0.93088   0.50598   0.00000  Uiso   1.00
H864   H     0.62766   0.02098   0.56866   0.00000  Uiso   1.00
H865   H     0.09363   0.06447   0.89773   0.00000  Uiso   1.00
O866   O     0.29464   0.94515   0.54511   0.00000  Uiso   1.00
O867   O     0.99725   0.73003   0.29400   0.00000  Uiso   1.00
O868   O     0.40061   0.68309   0.62175   0.00000  Uiso   1.00
N869   N     0.33267   0.93289   0.58815   0.00000  Uiso   1.00
N870   N     0.92917   0.68381   0.31341   0.00000  Uiso   1.00
N871   N     0.40821   0.74616   0.64277   0.00000  Uiso   1.00
N872   N     0.34762   0.92981   0.53250   0.00000  Uiso   1.00
N873   N     0.61078   0.01406   0.59109   0.00000  Uiso   1.00
N874   N     0.42316   0.74309   0.58711   0.00000  Uiso   1.00
C875   C     0.44423   0.89899   0.63078   0.00000  Uiso   1.00
C876   C     0.41714   0.90757   0.60543   0.00000  Uiso   1.00
C877   C     0.05270   0.24984   0.94845   0.00000  Uiso   1.00
C878   C     0.03145   0.25676   0.92130   0.00000  Uiso   1.00
C879   C     0.98794   0.27040   0.88735   0.00000  Uiso   1.00
C880   C     0.48966   0.93080   0.62158   0.00000  Uiso   1.00
C881   C     0.51954   0.95926   0.64485   0.00000  Uiso   1.00
C882   C     0.55935   0.98572   0.63129   0.00000  Uiso   1.00
C883   C     0.62845   0.03541   0.62241   0.00000  Uiso   1.00
C884   C     0.43795   0.85612   0.62048   0.00000  Uiso   1.00
C885   C     0.42435   0.82179   0.64283   0.00000  Uiso   1.00
C886   C     0.08730   0.11871   0.96168   0.00000  Uiso   1.00
C887   C     0.07610   0.05244   0.95110   0.00000  Uiso   1.00
C888   C     0.46182   0.89537   0.56533   0.00000  Uiso   1.00
C889   C     0.09335   0.23894   0.90322   0.00000  Uiso   1.00
C890   C     0.07215   0.24584   0.87604   0.00000  Uiso   1.00
C891   C     0.04102   0.25478   0.88569   0.00000  Uiso   1.00
C892   C     0.49922   0.92883   0.58603   0.00000  Uiso   1.00
C893   C     0.20566   0.28859   0.90577   0.00000  Uiso   1.00
C894   C     0.56892   0.98375   0.59567   0.00000  Uiso   1.00
C895   C     0.11416   0.18748   0.91827   0.00000  Uiso   1.00
C896   C     0.11047   0.15112   0.90375   0.00000  Uiso   1.00
C897   C     0.09687   0.11674   0.92607   0.00000  Uiso   1.00
H898   H     0.43680   0.90052   0.65846   0.00000  Uiso   1.00
H899   H     0.37865   0.91803   0.64264   0.00000  Uiso   1.00
H900   H     0.51214   0.96077   0.67236   0.00000  Uiso   1.00
H901   H     0.41696   0.82332   0.67034   0.00000  Uiso   1.00
H902   H     0.98507   0.26993   0.94275   0.00000  Uiso   1.00
H903   H     0.59988   0.02670   0.67208   0.00000  Uiso   1.00
H904   H     0.39918   0.73686   0.66783   0.00000  Uiso   1.00
H905   H     0.13592   0.22717   0.87099   0.00000  Uiso   1.00
H906   H     0.07955   0.24432   0.84854   0.00000  Uiso   1.00
H907   H     0.21304   0.28706   0.87826   0.00000  Uiso   1.00
H908   H     0.78453   0.48294   0.20957   0.00000  Uiso   1.00
H909   H     0.01285   0.26421   0.83932   0.00000  Uiso   1.00
H910   H     0.29433   0.35432   0.90199   0.00000  Uiso   1.00
H911   H     0.76030   0.39781   0.23107   0.00000  Uiso   1.00
O912   O     0.96130   0.27848   0.87844   0.00000  Uiso   1.00
O913   O     0.66392   0.06336   0.62733   0.00000  Uiso   1.00
O914   O     0.06728   0.01643   0.95508   0.00000  Uiso   1.00
N915   N     0.99934   0.26622   0.92149   0.00000  Uiso   1.00
N916   N     0.59583   0.01714   0.64674   0.00000  Uiso   1.00
N917   N     0.07488   0.07950   0.97610   0.00000  Uiso   1.00
N918   N     0.01429   0.26314   0.86583   0.00000  Uiso   1.00
N919   N     0.27745   0.34739   0.92442   0.00000  Uiso   1.00
N920   N     0.08983   0.07642   0.92045   0.00000  Uiso   1.00
C921   C     0.11090   0.23232   0.96412   0.00000  Uiso   1.00
C922   C     0.08380   0.24090   0.93877   0.00000  Uiso   1.00
C923   C     0.71936   0.58318   0.28179   0.00000  Uiso   1.00
C924   C     0.69812   0.59009   0.25464   0.00000  Uiso   1.00
C925   C     0.65460   0.60374   0.22068   0.00000  Uiso   1.00
C926   C     0.15633   0.26413   0.95491   0.00000  Uiso   1.00
C927   C     0.18621   0.29259   0.97818   0.00000  Uiso   1.00
C928   C     0.22602   0.31905   0.96462   0.00000  Uiso   1.00
C929   C     0.29511   0.36874   0.95574   0.00000  Uiso   1.00
C930   C     0.10462   0.18945   0.95382   0.00000  Uiso   1.00
C931   C     0.09102   0.15512   0.97616   0.00000  Uiso   1.00
C932   C     0.75396   0.45204   0.29501   0.00000  Uiso   1.00
C933   C     0.74277   0.38577   0.28443   0.00000  Uiso   1.00
C934   C     0.12848   0.22870   0.89867   0.00000  Uiso   1.00
C935   C     0.76002   0.57227   0.23655   0.00000  Uiso   1.00
C936   C     0.73882   0.57917   0.20938   0.00000  Uiso   1.00
C937   C     0.70768   0.58812   0.21902   0.00000  Uiso   1.00
C938   C     0.16588   0.26217   0.91937   0.00000  Uiso   1.00
C939   C     0.87233   0.62192   0.23910   0.00000  Uiso   1.00
C940   C     0.23559   0.31708   0.92901   0.00000  Uiso   1.00
C941   C     0.78083   0.52082   0.25160   0.00000  Uiso   1.00
C942   C     0.77714   0.48445   0.23708   0.00000  Uiso   1.00
C943   C     0.76353   0.45007   0.25940   0.00000  Uiso   1.00
H944   H     0.10347   0.23385   0.99179   0.00000  Uiso   1.00
H945   H     0.04532   0.25137   0.97597   0.00000  Uiso   1.00
H946   H     0.17881   0.29410   0.00569   0.00000  Uiso   1.00
H947   H     0.08363   0.15665   0.00367   0.00000  Uiso   1.00
H948   H     0.65174   0.60326   0.27608   0.00000  Uiso   1.00
H949   H     0.26654   0.36004   0.00542   0.00000  Uiso   1.00
H950   H     0.06585   0.07019   0.00116   0.00000  Uiso   1.00
H951   H     0.80259   0.56050   0.20432   0.00000  Uiso   1.00
H952   H     0.74621   0.57765   0.18187   0.00000  Uiso   1.00
H953   H     0.87970   0.62039   0.21159   0.00000  Uiso   1.00
H954   H     0.45120   0.81627   0.54290   0.00000  Uiso   1.00
H955   H     0.67952   0.59754   0.17265   0.00000  Uiso   1.00
H956   H     0.96100   0.68765   0.23532   0.00000  Uiso   1.00
H957   H     0.42697   0.73114   0.56440   0.00000  Uiso   1.00
O958   O     0.62797   0.61182   0.21177   0.00000  Uiso   1.00
O959   O     0.33059   0.39669   0.96066   0.00000  Uiso   1.00
O960   O     0.73395   0.34976   0.28841   0.00000  Uiso   1.00
N961   N     0.66601   0.59955   0.25482   0.00000  Uiso   1.00
N962   N     0.26250   0.35047   0.98008   0.00000  Uiso   1.00
N963   N     0.74154   0.41283   0.30944   0.00000  Uiso   1.00
N964   N     0.68096   0.59648   0.19917   0.00000  Uiso   1.00
N965   N     0.94412   0.68073   0.25776   0.00000  Uiso   1.00
N966   N     0.75649   0.40975   0.25378   0.00000  Uiso   1.00
C967   C     0.43435   0.21191   0.29745   0.00000  Uiso   1.00
C968   C     0.42576   0.17623   0.27210   0.00000  Uiso   1.00
C969   C     0.08349   0.46952   0.61512   0.00000  Uiso   1.00
C970   C     0.07658   0.44136   0.58797   0.00000  Uiso   1.00
C971   C     0.06293   0.38420   0.55402   0.00000  Uiso   1.00
C972   C     0.40254   0.22553   0.28825   0.00000  Uiso   1.00
C973   C     0.37407   0.22695   0.31151   0.00000  Uiso   1.00
C974   C     0.34761   0.24030   0.29795   0.00000  Uiso   1.00
C975   C     0.29793   0.25971   0.28907   0.00000  Uiso   1.00
C976   C     0.47722   0.24850   0.28715   0.00000  Uiso   1.00
C977   C     0.51155   0.26923   0.30950   0.00000  Uiso   1.00
C978   C     0.21463   0.63526   0.62835   0.00000  Uiso   1.00
C979   C     0.28089   0.69033   0.61776   0.00000  Uiso   1.00
C980   C     0.43797   0.23311   0.23200   0.00000  Uiso   1.00
C981   C     0.09439   0.52108   0.56988   0.00000  Uiso   1.00
C982   C     0.08749   0.49298   0.54271   0.00000  Uiso   1.00
C983   C     0.07855   0.45290   0.55236   0.00000  Uiso   1.00
C984   C     0.40450   0.23705   0.25270   0.00000  Uiso   1.00
C985   C     0.04474   0.58374   0.57243   0.00000  Uiso   1.00
C986   C     0.34958   0.25183   0.26234   0.00000  Uiso   1.00
C987   C     0.14585   0.59335   0.58493   0.00000  Uiso   1.00
C988   C     0.18222   0.62602   0.57042   0.00000  Uiso   1.00
C989   C     0.21660   0.64680   0.59273   0.00000  Uiso   1.00
H990   H     0.43281   0.20295   0.32513   0.00000  Uiso   1.00
H991   H     0.41530   0.12729   0.30930   0.00000  Uiso   1.00
H992   H     0.37256   0.21804   0.33902   0.00000  Uiso   1.00
H993   H     0.51001   0.26031   0.33700   0.00000  Uiso   1.00
H994   H     0.06340   0.38181   0.60941   0.00000  Uiso   1.00
H995   H     0.30663   0.23984   0.33875   0.00000  Uiso   1.00
H996   H     0.59647   0.32899   0.33449   0.00000  Uiso   1.00
H997   H     0.10616   0.57541   0.53766   0.00000  Uiso   1.00
H998   H     0.08902   0.50190   0.51520   0.00000  Uiso   1.00
H999   H     0.04628   0.59265   0.54492   0.00000  Uiso   1.00
H1000  H     0.85039   0.96826   0.87624   0.00000  Uiso   1.00
H1001  H     0.06912   0.41531   0.50598   0.00000  Uiso   1.00
H1002  H     0.97902   0.60668   0.56866   0.00000  Uiso   1.00
H1003  H     0.93553   0.02916   0.89773   0.00000  Uiso   1.00
O1004  O     0.05485   0.34949   0.54511   0.00000  Uiso   1.00
O1005  O     0.26997   0.26723   0.29400   0.00000  Uiso   1.00
O1006  O     0.31691   0.71752   0.62175   0.00000  Uiso   1.00
N1007  N     0.06711   0.39978   0.58815   0.00000  Uiso   1.00
N1008  N     0.31619   0.24536   0.31341   0.00000  Uiso   1.00
N1009  N     0.25384   0.66205   0.64277   0.00000  Uiso   1.00
N1010  N     0.07019   0.41781   0.53250   0.00000  Uiso   1.00
N1011  N     0.98594   0.59672   0.59109   0.00000  Uiso   1.00
N1012  N     0.25691   0.68007   0.58711   0.00000  Uiso   1.00
C1013  C     0.10101   0.54524   0.63078   0.00000  Uiso   1.00
C1014  C     0.09243   0.50956   0.60543   0.00000  Uiso   1.00
C1015  C     0.75016   0.80285   0.94845   0.00000  Uiso   1.00
C1016  C     0.74324   0.77469   0.92130   0.00000  Uiso   1.00
C1017  C     0.72960   0.71753   0.88735   0.00000  Uiso   1.00
C1018  C     0.06920   0.55887   0.62158   0.00000  Uiso   1.00
C1019  C     0.04074   0.56028   0.64485   0.00000  Uiso   1.00
C1020  C     0.01428   0.57363   0.63129   0.00000  Uiso   1.00
C1021  C     0.96459   0.59304   0.62241   0.00000  Uiso   1.00
C1022  C     0.14388   0.58183   0.62048   0.00000  Uiso   1.00
C1023  C     0.17821   0.60257   0.64283   0.00000  Uiso   1.00
C1024  C     0.88129   0.96859   0.96168   0.00000  Uiso   1.00
C1025  C     0.94756   0.02366   0.95110   0.00000  Uiso   1.00
C1026  C     0.10463   0.56645   0.56533   0.00000  Uiso   1.00
C1027  C     0.76106   0.85441   0.90322   0.00000  Uiso   1.00
C1028  C     0.75416   0.82631   0.87604   0.00000  Uiso   1.00
C1029  C     0.74522   0.78623   0.88569   0.00000  Uiso   1.00
C1030  C     0.07117   0.57038   0.58603   0.00000  Uiso   1.00
C1031  C     0.71141   0.91707   0.90577   0.00000  Uiso   1.00
C1032  C     0.01625   0.58517   0.59567   0.00000  Uiso   1.00
C1033  C     0.81252   0.92668   0.91827   0.00000  Uiso   1.00
C1034  C     0.84888   0.95935   0.90375   0.00000  Uiso   1.00
C1035  C     0.88326   0.98013   0.92607   0.00000  Uiso   1.00
H1036  H     0.09948   0.53628   0.65846   0.00000  Uiso   1.00
H1037  H     0.08197   0.46062   0.64264   0.00000  Uiso   1.00
H1038  H     0.03923   0.55137   0.67236   0.00000  Uiso   1.00
H1039  H     0.17668   0.59365   0.67034   0.00000  Uiso   1.00
H1040  H     0.73007   0.71514   0.94275   0.00000  Uiso   1.00
H1041  H     0.97330   0.57317   0.67208   0.00000  Uiso   1.00
H1042  H     0.26314   0.66232   0.66783   0.00000  Uiso   1.00
H1043  H     0.77283   0.90875   0.87099   0.00000  Uiso   1.00
H1044  H     0.75568   0.83523   0.84854   0.00000  Uiso   1.00
H1045  H     0.71294   0.92598   0.87826   0.00000  Uiso   1.00
H1046  H     0.51706   0.30159   0.20957   0.00000  Uiso   1.00
H1047  H     0.73579   0.74864   0.83932   0.00000  Uiso   1.00
H1048  H     0.64568   0.94001   0.90199   0.00000  Uiso   1.00
H1049  H     0.60219   0.36249   0.23107   0.00000  Uiso   1.00
O1050  O     0.72152   0.68282   0.87844   0.00000  Uiso   1.00
O1051  O     0.93664   0.60056   0.62733   0.00000  Uiso   1.00
O1052  O     0.98357   0.05085   0.95508   0.00000  Uiso   1.00
N1053  N     0.73378   0.73312   0.92149   0.00000  Uiso   1.00
N1054  N     0.98286   0.57869   0.64674   0.00000  Uiso   1.00
N1055  N     0.92050   0.99538   0.97610   0.00000  Uiso   1.00
N1056  N     0.73686   0.75115   0.86583   0.00000  Uiso   1.00
N1057  N     0.65261   0.93005   0.92442   0.00000  Uiso   1.00
N1058  N     0.92358   0.01341   0.92045   0.00000  Uiso   1.00
C1059  C     0.76768   0.87858   0.96412   0.00000  Uiso   1.00
C1060  C     0.75910   0.84290   0.93877   0.00000  Uiso   1.00
C1061  C     0.41682   0.13619   0.28179   0.00000  Uiso   1.00
C1062  C     0.40991   0.10803   0.25464   0.00000  Uiso   1.00
C1063  C     0.39626   0.05087   0.22068   0.00000  Uiso   1.00
C1064  C     0.73587   0.89220   0.95491   0.00000  Uiso   1.00
C1065  C     0.70741   0.89361   0.97818   0.00000  Uiso   1.00
C1066  C     0.68095   0.90696   0.96462   0.00000  Uiso   1.00
C1067  C     0.63126   0.92637   0.95574   0.00000  Uiso   1.00
C1068  C     0.81055   0.91517   0.95382   0.00000  Uiso   1.00
C1069  C     0.84488   0.93590   0.97616   0.00000  Uiso   1.00
C1070  C     0.54796   0.30193   0.29501   0.00000  Uiso   1.00
C1071  C     0.61423   0.35699   0.28443   0.00000  Uiso   1.00
C1072  C     0.77130   0.89978   0.89867   0.00000  Uiso   1.00
C1073  C     0.42773   0.18775   0.23655   0.00000  Uiso   1.00
C1074  C     0.42083   0.15964   0.20938   0.00000  Uiso   1.00
C1075  C     0.41188   0.11956   0.21902   0.00000  Uiso   1.00
C1076  C     0.73783   0.90372   0.91937   0.00000  Uiso   1.00
C1077  C     0.37808   0.25040   0.23910   0.00000  Uiso   1.00
C1078  C     0.68292   0.91850   0.92901   0.00000  Uiso   1.00
C1079  C     0.47918   0.26002   0.25160   0.00000  Uiso   1.00
C1080  C     0.51555   0.29269   0.23708   0.00000  Uiso   1.00
C1081  C     0.54993   0.31346   0.25940   0.00000  Uiso   1.00
H1082  H     0.76615   0.86961   0.99179   0.00000  Uiso   1.00
H1083  H     0.74863   0.79395   0.97597   0.00000  Uiso   1.00
H1084  H     0.70590   0.88470   0.00569   0.00000  Uiso   1.00
H1085  H     0.84335   0.92698   0.00367   0.00000  Uiso   1.00
H1086  H     0.39674   0.04847   0.27608   0.00000  Uiso   1.00
H1087  H     0.63996   0.90651   0.00542   0.00000  Uiso   1.00
H1088  H     0.92981   0.99566   0.00116   0.00000  Uiso   1.00
H1089  H     0.43950   0.24208   0.20432   0.00000  Uiso   1.00
H1090  H     0.42235   0.16856   0.18187   0.00000  Uiso   1.00
H1091  H     0.37961   0.25931   0.21159   0.00000  Uiso   1.00
H1092  H     0.18373   0.63492   0.54290   0.00000  Uiso   1.00
H1093  H     0.40246   0.08198   0.17265   0.00000  Uiso   1.00
H1094  H     0.31235   0.27335   0.23532   0.00000  Uiso   1.00
H1095  H     0.26886   0.69582   0.56440   0.00000  Uiso   1.00
O1096  O     0.38818   0.01615   0.21177   0.00000  Uiso   1.00
O1097  O     0.60331   0.93389   0.96066   0.00000  Uiso   1.00
O1098  O     0.65024   0.38418   0.28841   0.00000  Uiso   1.00
N1099  N     0.40045   0.06645   0.25482   0.00000  Uiso   1.00
N1100  N     0.64953   0.91203   0.98008   0.00000  Uiso   1.00
N1101  N     0.58717   0.32871   0.30944   0.00000  Uiso   1.00
N1102  N     0.40352   0.08448   0.19917   0.00000  Uiso   1.00
N1103  N     0.31927   0.26339   0.25776   0.00000  Uiso   1.00
N1104  N     0.59025   0.34674   0.25378   0.00000  Uiso   1.00
C1105  C     0.78809   0.22243   0.29745   0.00000  Uiso   1.00
C1106  C     0.82377   0.24953   0.27210   0.00000  Uiso   1.00
C1107  C     0.53048   0.61397   0.61512   0.00000  Uiso   1.00
C1108  C     0.55864   0.63522   0.58797   0.00000  Uiso   1.00
C1109  C     0.61580   0.67873   0.55402   0.00000  Uiso   1.00
C1110  C     0.77447   0.17700   0.28825   0.00000  Uiso   1.00
C1111  C     0.77305   0.14713   0.31151   0.00000  Uiso   1.00
C1112  C     0.75970   0.10732   0.29795   0.00000  Uiso   1.00
C1113  C     0.74029   0.03822   0.28907   0.00000  Uiso   1.00
C1114  C     0.75150   0.22872   0.28715   0.00000  Uiso   1.00
C1115  C     0.73077   0.24231   0.30950   0.00000  Uiso   1.00
C1116  C     0.36474   0.57937   0.62835   0.00000  Uiso   1.00
C1117  C     0.30967   0.59057   0.61776   0.00000  Uiso   1.00
C1118  C     0.76689   0.20485   0.23200   0.00000  Uiso   1.00
C1119  C     0.47892   0.57331   0.56988   0.00000  Uiso   1.00
C1120  C     0.50702   0.59452   0.54271   0.00000  Uiso   1.00
C1121  C     0.54710   0.62565   0.55236   0.00000  Uiso   1.00
C1122  C     0.76295   0.16745   0.25270   0.00000  Uiso   1.00
C1123  C     0.41626   0.46101   0.57243   0.00000  Uiso   1.00
C1124  C     0.74817   0.09775   0.26234   0.00000  Uiso   1.00
C1125  C     0.40665   0.55250   0.58493   0.00000  Uiso   1.00
C1126  C     0.37398   0.55620   0.57042   0.00000  Uiso   1.00
C1127  C     0.35320   0.56980   0.59273   0.00000  Uiso   1.00
H1128  H     0.79705   0.22987   0.32513   0.00000  Uiso   1.00
H1129  H     0.87271   0.28802   0.30930   0.00000  Uiso   1.00
H1130  H     0.78196   0.15453   0.33902   0.00000  Uiso   1.00
H1131  H     0.73969   0.24970   0.33700   0.00000  Uiso   1.00
H1132  H     0.61819   0.68160   0.60941   0.00000  Uiso   1.00
H1133  H     0.76016   0.06679   0.33875   0.00000  Uiso   1.00
H1134  H     0.67101   0.26748   0.33449   0.00000  Uiso   1.00
H1135  H     0.42459   0.53075   0.53766   0.00000  Uiso   1.00
H1136  H     0.49810   0.58712   0.51520   0.00000  Uiso   1.00
H1137  H     0.40735   0.45363   0.54492   0.00000  Uiso   1.00
H1138  H     0.03174   0.88214   0.87624   0.00000  Uiso   1.00
H1139  H     0.58469   0.65381   0.50598   0.00000  Uiso   1.00
H1140  H     0.39332   0.37234   0.56866   0.00000  Uiso   1.00
H1141  H     0.97084   0.90637   0.89773   0.00000  Uiso   1.00
O1142  O     0.65051   0.70536   0.54511   0.00000  Uiso   1.00
O1143  O     0.73277   0.00275   0.29400   0.00000  Uiso   1.00
O1144  O     0.28248   0.59939   0.62175   0.00000  Uiso   1.00
N1145  N     0.60022   0.66733   0.58815   0.00000  Uiso   1.00
N1146  N     0.75464   0.07083   0.31341   0.00000  Uiso   1.00
N1147  N     0.33795   0.59179   0.64277   0.00000  Uiso   1.00
N1148  N     0.58219   0.65238   0.53250   0.00000  Uiso   1.00
N1149  N     0.40328   0.38922   0.59109   0.00000  Uiso   1.00
N1150  N     0.31993   0.57684   0.58711   0.00000  Uiso   1.00
C1151  C     0.45476   0.55577   0.63078   0.00000  Uiso   1.00
C1152  C     0.49044   0.58286   0.60543   0.00000  Uiso   1.00
C1153  C     0.19715   0.94730   0.94845   0.00000  Uiso   1.00
C1154  C     0.22531   0.96855   0.92130   0.00000  Uiso   1.00
C1155  C     0.28247   0.01206   0.88735   0.00000  Uiso   1.00
C1156  C     0.44113   0.51034   0.62158   0.00000  Uiso   1.00
C1157  C     0.43972   0.48046   0.64485   0.00000  Uiso   1.00
C1158  C     0.42637   0.44065   0.63129   0.00000  Uiso   1.00
C1159  C     0.40696   0.37155   0.62241   0.00000  Uiso   1.00
C1160  C     0.41817   0.56205   0.62048   0.00000  Uiso   1.00
C1161  C     0.39743   0.57565   0.64283   0.00000  Uiso   1.00
C1162  C     0.03141   0.91270   0.96168   0.00000  Uiso   1.00
C1163  C     0.97634   0.92390   0.95110   0.00000  Uiso   1.00
C1164  C     0.43355   0.53818   0.56533   0.00000  Uiso   1.00
C1165  C     0.14559   0.90665   0.90322   0.00000  Uiso   1.00
C1166  C     0.17369   0.92785   0.87604   0.00000  Uiso   1.00
C1167  C     0.21377   0.95898   0.88569   0.00000  Uiso   1.00
C1168  C     0.42962   0.50078   0.58603   0.00000  Uiso   1.00
C1169  C     0.08293   0.79434   0.90577   0.00000  Uiso   1.00
C1170  C     0.41483   0.43108   0.59567   0.00000  Uiso   1.00
C1171  C     0.07332   0.88584   0.91827   0.00000  Uiso   1.00
C1172  C     0.04065   0.88953   0.90375   0.00000  Uiso   1.00
C1173  C     0.01987   0.90313   0.92607   0.00000  Uiso   1.00
H1174  H     0.46372   0.56320   0.65846   0.00000  Uiso   1.00
H1175  H     0.53938   0.62135   0.64264   0.00000  Uiso   1.00
H1176  H     0.44863   0.48786   0.67236   0.00000  Uiso   1.00
H1177  H     0.40635   0.58304   0.67034   0.00000  Uiso   1.00
H1178  H     0.28486   0.01493   0.94275   0.00000  Uiso   1.00
H1179  H     0.42683   0.40012   0.67208   0.00000  Uiso   1.00
H1180  H     0.33768   0.60082   0.66783   0.00000  Uiso   1.00
H1181  H     0.09125   0.86408   0.87099   0.00000  Uiso   1.00
H1182  H     0.16477   0.92045   0.84854   0.00000  Uiso   1.00
H1183  H     0.07402   0.78696   0.87826   0.00000  Uiso   1.00
H1184  H     0.69841   0.21547   0.20957   0.00000  Uiso   1.00
H1185  H     0.25136   0.98715   0.83932   0.00000  Uiso   1.00
H1186  H     0.05999   0.70567   0.90199   0.00000  Uiso   1.00
H1187  H     0.63751   0.23970   0.23107   0.00000  Uiso   1.00
O1188  O     0.31718   0.03870   0.87844   0.00000  Uiso   1.00
O1189  O     0.39944   0.33608   0.62733   0.00000  Uiso   1.00
O1190  O     0.94915   0.93272   0.95508   0.00000  Uiso   1.00
N1191  N     0.26688   0.00066   0.92149   0.00000  Uiso   1.00
N1192  N     0.42131   0.40417   0.64674   0.00000  Uiso   1.00
N1193  N     0.00462   0.92512   0.97610   0.00000  Uiso   1.00
N1194  N     0.24885   0.98571   0.86583   0.00000  Uiso   1.00
N1195  N     0.06995   0.72255   0.92442   0.00000  Uiso   1.00
N1196  N     0.98659   0.91017   0.92045   0.00000  Uiso   1.00
C1197  C     0.12142   0.88910   0.96412   0.00000  Uiso   1.00
C1198  C     0.15710   0.91620   0.93877   0.00000  Uiso   1.00
C1199  C     0.86381   0.28064   0.28179   0.00000  Uiso   1.00
C1200  C     0.89197   0.30188   0.25464   0.00000  Uiso   1.00
C1201  C     0.94913   0.34540   0.22068   0.00000  Uiso   1.00
C1202  C     0.10780   0.84367   0.95491   0.00000  Uiso   1.00
C1203  C     0.10639   0.81379   0.97818   0.00000  Uiso   1.00
C1204  C     0.09304   0.77398   0.96462   0.00000  Uiso   1.00
C1205  C     0.07363   0.70489   0.95574   0.00000  Uiso   1.00
C1206  C     0.08483   0.89538   0.95382   0.00000  Uiso   1.00
C1207  C     0.06410   0.90898   0.97616   0.00000  Uiso   1.00
C1208  C     0.69807   0.24604   0.29501   0.00000  Uiso   1.00
C1209  C     0.64301   0.25723   0.28443   0.00000  Uiso   1.00
C1210  C     0.10022   0.87152   0.89867   0.00000  Uiso   1.00
C1211  C     0.81225   0.23998   0.23655   0.00000  Uiso   1.00
C1212  C     0.84036   0.26118   0.20938   0.00000  Uiso   1.00
C1213  C     0.88044   0.29232   0.21902   0.00000  Uiso   1.00
C1214  C     0.09628   0.83412   0.91937   0.00000  Uiso   1.00
C1215  C     0.74960   0.12767   0.23910   0.00000  Uiso   1.00
C1216  C     0.08150   0.76441   0.92901   0.00000  Uiso   1.00
C1217  C     0.73998   0.21917   0.25160   0.00000  Uiso   1.00
C1218  C     0.70731   0.22286   0.23708   0.00000  Uiso   1.00
C1219  C     0.68654   0.23647   0.25940   0.00000  Uiso   1.00
H1220  H     0.13039   0.89653   0.99179   0.00000  Uiso   1.00
H1221  H     0.20605   0.95468   0.97597   0.00000  Uiso   1.00
H1222  H     0.11530   0.82119   0.00569   0.00000  Uiso   1.00
H1223  H     0.07302   0.91637   0.00367   0.00000  Uiso   1.00
H1224  H     0.95153   0.34826   0.27608   0.00000  Uiso   1.00
H1225  H     0.09349   0.73346   0.00542   0.00000  Uiso   1.00
H1226  H     0.00434   0.93415   0.00116   0.00000  Uiso   1.00
H1227  H     0.75792   0.19741   0.20432   0.00000  Uiso   1.00
H1228  H     0.83144   0.25379   0.18187   0.00000  Uiso   1.00
H1229  H     0.74069   0.12030   0.21159   0.00000  Uiso   1.00
H1230  H     0.36508   0.54880   0.54290   0.00000  Uiso   1.00
H1231  H     0.91802   0.32048   0.17265   0.00000  Uiso   1.00
H1232  H     0.72665   0.03900   0.23532   0.00000  Uiso   1.00
H1233  H     0.30418   0.57303   0.56440   0.00000  Uiso   1.00
O1234  O     0.98385   0.37203   0.21177   0.00000  Uiso   1.00
O1235  O     0.06611   0.66941   0.96066   0.00000  Uiso   1.00
O1236  O     0.61582   0.26605   0.28841   0.00000  Uiso   1.00
N1237  N     0.93355   0.33399   0.25482   0.00000  Uiso   1.00
N1238  N     0.08797   0.73750   0.98008   0.00000  Uiso   1.00
N1239  N     0.67129   0.25846   0.30944   0.00000  Uiso   1.00
N1240  N     0.91552   0.31904   0.19917   0.00000  Uiso   1.00
N1241  N     0.73661   0.05588   0.25776   0.00000  Uiso   1.00
N1242  N     0.65326   0.24351   0.25378   0.00000  Uiso   1.00
C1243  C     0.56565   0.77757   0.20255   0.00000  Uiso   1.00
C1244  C     0.57424   0.75047   0.22790   0.00000  Uiso   1.00
C1245  C     0.91651   0.38603   0.88488   0.00000  Uiso   1.00
C1246  C     0.92342   0.36478   0.91203   0.00000  Uiso   1.00
C1247  C     0.93707   0.32127   0.94598   0.00000  Uiso   1.00
C1248  C     0.59746   0.82300   0.21175   0.00000  Uiso   1.00
C1249  C     0.62593   0.85287   0.18849   0.00000  Uiso   1.00
C1250  C     0.65239   0.89268   0.20205   0.00000  Uiso   1.00
C1251  C     0.70207   0.96178   0.21093   0.00000  Uiso   1.00
C1252  C     0.52278   0.77128   0.21285   0.00000  Uiso   1.00
C1253  C     0.48845   0.75769   0.19050   0.00000  Uiso   1.00
C1254  C     0.78537   0.42063   0.87165   0.00000  Uiso   1.00
C1255  C     0.71911   0.40943   0.88224   0.00000  Uiso   1.00
C1256  C     0.56203   0.79515   0.26800   0.00000  Uiso   1.00
C1257  C     0.90561   0.42669   0.93012   0.00000  Uiso   1.00
C1258  C     0.91251   0.40548   0.95729   0.00000  Uiso   1.00
C1259  C     0.92145   0.37435   0.94764   0.00000  Uiso   1.00
C1260  C     0.59550   0.83255   0.24730   0.00000  Uiso   1.00
C1261  C     0.95526   0.53899   0.92757   0.00000  Uiso   1.00
C1262  C     0.65042   0.90225   0.23766   0.00000  Uiso   1.00
C1263  C     0.85415   0.44750   0.91507   0.00000  Uiso   1.00
C1264  C     0.81778   0.44380   0.92958   0.00000  Uiso   1.00
C1265  C     0.78340   0.43020   0.90727   0.00000  Uiso   1.00
H1266  H     0.56719   0.77013   0.17487   0.00000  Uiso   1.00
H1267  H     0.58470   0.71198   0.19070   0.00000  Uiso   1.00
H1268  H     0.62744   0.84547   0.16098   0.00000  Uiso   1.00
H1269  H     0.48999   0.75030   0.16300   0.00000  Uiso   1.00
H1270  H     0.93660   0.31840   0.89059   0.00000  Uiso   1.00
H1271  H     0.69337   0.93321   0.16125   0.00000  Uiso   1.00
H1272  H     0.40353   0.73252   0.16551   0.00000  Uiso   1.00
H1273  H     0.89384   0.46925   0.96234   0.00000  Uiso   1.00
H1274  H     0.91098   0.41288   0.98480   0.00000  Uiso   1.00
H1275  H     0.95372   0.54637   0.95508   0.00000  Uiso   1.00
H1276  H     0.14961   0.11786   0.62376   0.00000  Uiso   1.00
H1277  H     0.93088   0.34619   0.99402   0.00000  Uiso   1.00
H1278  H     0.02098   0.62766   0.93134   0.00000  Uiso   1.00
H1279  H     0.06447   0.09363   0.60227   0.00000  Uiso   1.00
O1280  O     0.94515   0.29464   0.95489   0.00000  Uiso   1.00
O1281  O     0.73003   0.99725   0.20600   0.00000  Uiso   1.00
O1282  O     0.68309   0.40061   0.87825   0.00000  Uiso   1.00
N1283  N     0.93289   0.33267   0.91185   0.00000  Uiso   1.00
N1284  N     0.68381   0.92917   0.18659   0.00000  Uiso   1.00
N1285  N     0.74616   0.40821   0.85723   0.00000  Uiso   1.00
N1286  N     0.92981   0.34762   0.96750   0.00000  Uiso   1.00
N1287  N     0.01406   0.61078   0.90891   0.00000  Uiso   1.00
N1288  N     0.74309   0.42316   0.91289   0.00000  Uiso   1.00
C1289  C     0.23232   0.11090   0.53588   0.00000  Uiso   1.00
C1290  C     0.24090   0.08380   0.56123   0.00000  Uiso   1.00
C1291  C     0.58318   0.71936   0.21821   0.00000  Uiso   1.00
C1292  C     0.59009   0.69812   0.24536   0.00000  Uiso   1.00
C1293  C     0.60374   0.65460   0.27932   0.00000  Uiso   1.00
C1294  C     0.26413   0.15633   0.54509   0.00000  Uiso   1.00
C1295  C     0.29259   0.18621   0.52182   0.00000  Uiso   1.00
C1296  C     0.31905   0.22602   0.53538   0.00000  Uiso   1.00
C1297  C     0.36874   0.29511   0.54426   0.00000  Uiso   1.00
C1298  C     0.18945   0.10462   0.54618   0.00000  Uiso   1.00
C1299  C     0.15512   0.09102   0.52384   0.00000  Uiso   1.00
C1300  C     0.45204   0.75396   0.20499   0.00000  Uiso   1.00
C1301  C     0.38577   0.74277   0.21557   0.00000  Uiso   1.00
C1302  C     0.22870   0.12848   0.60133   0.00000  Uiso   1.00
C1303  C     0.57227   0.76002   0.26345   0.00000  Uiso   1.00
C1304  C     0.57917   0.73882   0.29062   0.00000  Uiso   1.00
C1305  C     0.58812   0.70768   0.28098   0.00000  Uiso   1.00
C1306  C     0.26217   0.16588   0.58063   0.00000  Uiso   1.00
C1307  C     0.62192   0.87233   0.26090   0.00000  Uiso   1.00
C1308  C     0.31708   0.23559   0.57099   0.00000  Uiso   1.00
C1309  C     0.52082   0.78083   0.24840   0.00000  Uiso   1.00
C1310  C     0.48445   0.77714   0.26292   0.00000  Uiso   1.00
C1311  C     0.45007   0.76353   0.24060   0.00000  Uiso   1.00
H1312  H     0.23385   0.10347   0.50821   0.00000  Uiso   1.00
H1313  H     0.25137   0.04532   0.52403   0.00000  Uiso   1.00
H1314  H     0.29410   0.17881   0.49431   0.00000  Uiso   1.00
H1315  H     0.15665   0.08363   0.49633   0.00000  Uiso   1.00
H1316  H     0.60326   0.65174   0.22392   0.00000  Uiso   1.00
H1317  H     0.36004   0.26654   0.49458   0.00000  Uiso   1.00
H1318  H     0.07019   0.06585   0.49884   0.00000  Uiso   1.00
H1319  H     0.56050   0.80259   0.29568   0.00000  Uiso   1.00
H1320  H     0.57765   0.74621   0.31813   0.00000  Uiso   1.00
H1321  H     0.62039   0.87970   0.28841   0.00000  Uiso   1.00
H1322  H     0.81627   0.45120   0.95710   0.00000  Uiso   1.00
H1323  H     0.59754   0.67952   0.32735   0.00000  Uiso   1.00
H1324  H     0.68765   0.96100   0.26468   0.00000  Uiso   1.00
H1325  H     0.73114   0.42697   0.93560   0.00000  Uiso   1.00
O1326  O     0.61182   0.62797   0.28823   0.00000  Uiso   1.00
O1327  O     0.39669   0.33059   0.53934   0.00000  Uiso   1.00
O1328  O     0.34976   0.73395   0.21159   0.00000  Uiso   1.00
N1329  N     0.59955   0.66601   0.24518   0.00000  Uiso   1.00
N1330  N     0.35047   0.26250   0.51992   0.00000  Uiso   1.00
N1331  N     0.41283   0.74154   0.19056   0.00000  Uiso   1.00
N1332  N     0.59648   0.68096   0.30083   0.00000  Uiso   1.00
N1333  N     0.68073   0.94412   0.24224   0.00000  Uiso   1.00
N1334  N     0.40975   0.75649   0.24622   0.00000  Uiso   1.00
C1335  C     0.89899   0.44423   0.86922   0.00000  Uiso   1.00
C1336  C     0.90757   0.41714   0.89457   0.00000  Uiso   1.00
C1337  C     0.24984   0.05270   0.55155   0.00000  Uiso   1.00
C1338  C     0.25676   0.03145   0.57870   0.00000  Uiso   1.00
C1339  C     0.27040   0.98794   0.61265   0.00000  Uiso   1.00
C1340  C     0.93080   0.48966   0.87842   0.00000  Uiso   1.00
C1341  C     0.95926   0.51954   0.85515   0.00000  Uiso   1.00
C1342  C     0.98572   0.55935   0.86871   0.00000  Uiso   1.00
C1343  C     0.03541   0.62845   0.87759   0.00000  Uiso   1.00
C1344  C     0.85612   0.43795   0.87952   0.00000  Uiso   1.00
C1345  C     0.82179   0.42435   0.85717   0.00000  Uiso   1.00
C1346  C     0.11871   0.08730   0.53832   0.00000  Uiso   1.00
C1347  C     0.05244   0.07610   0.54890   0.00000  Uiso   1.00
C1348  C     0.89537   0.46182   0.93467   0.00000  Uiso   1.00
C1349  C     0.23894   0.09335   0.59678   0.00000  Uiso   1.00
C1350  C     0.24584   0.07215   0.62396   0.00000  Uiso   1.00
C1351  C     0.25478   0.04102   0.61431   0.00000  Uiso   1.00
C1352  C     0.92883   0.49922   0.91397   0.00000  Uiso   1.00
C1353  C     0.28859   0.20566   0.59423   0.00000  Uiso   1.00
C1354  C     0.98375   0.56892   0.90433   0.00000  Uiso   1.00
C1355  C     0.18748   0.11416   0.58173   0.00000  Uiso   1.00
C1356  C     0.15112   0.11047   0.59625   0.00000  Uiso   1.00
C1357  C     0.11674   0.09687   0.57393   0.00000  Uiso   1.00
H1358  H     0.90052   0.43680   0.84154   0.00000  Uiso   1.00
H1359  H     0.91803   0.37865   0.85736   0.00000  Uiso   1.00
H1360  H     0.96077   0.51214   0.82764   0.00000  Uiso   1.00
H1361  H     0.82332   0.41696   0.82966   0.00000  Uiso   1.00
H1362  H     0.26993   0.98507   0.55725   0.00000  Uiso   1.00
H1363  H     0.02670   0.59988   0.82792   0.00000  Uiso   1.00
H1364  H     0.73686   0.39918   0.83217   0.00000  Uiso   1.00
H1365  H     0.22717   0.13592   0.62901   0.00000  Uiso   1.00
H1366  H     0.24432   0.07955   0.65146   0.00000  Uiso   1.00
H1367  H     0.28706   0.21304   0.62174   0.00000  Uiso   1.00
H1368  H     0.48294   0.78453   0.29043   0.00000  Uiso   1.00
H1369  H     0.26421   0.01285   0.66068   0.00000  Uiso   1.00
H1370  H     0.35432   0.29433   0.59801   0.00000  Uiso   1.00
H1371  H     0.39781   0.76030   0.26893   0.00000  Uiso   1.00
O1372  O     0.27848   0.96130   0.62156   0.00000  Uiso   1.00
O1373  O     0.06336   0.66392   0.87267   0.00000  Uiso   1.00
O1374  O     0.01643   0.06728   0.54492   0.00000  Uiso   1.00
N1375  N     0.26622   0.99934   0.57851   0.00000  Uiso   1.00
N1376  N     0.01714   0.59583   0.85326   0.00000  Uiso   1.00
N1377  N     0.07950   0.07488   0.52390   0.00000  Uiso   1.00
N1378  N     0.26314   0.01429   0.63417   0.00000  Uiso   1.00
N1379  N     0.34739   0.27745   0.57558   0.00000  Uiso   1.00
N1380  N     0.07642   0.08983   0.57955   0.00000  Uiso   1.00
C1381  C     0.21191   0.43435   0.20255   0.00000  Uiso   1.00
C1382  C     0.17623   0.42576   0.22790   0.00000  Uiso   1.00
C1383  C     0.46952   0.08349   0.88488   0.00000  Uiso   1.00
C1384  C     0.44136   0.07658   0.91203   0.00000  Uiso   1.00
C1385  C     0.38420   0.06293   0.94598   0.00000  Uiso   1.00
C1386  C     0.22553   0.40254   0.21175   0.00000  Uiso   1.00
C1387  C     0.22695   0.37407   0.18849   0.00000  Uiso   1.00
C1388  C     0.24030   0.34761   0.20205   0.00000  Uiso   1.00
C1389  C     0.25971   0.29793   0.21093   0.00000  Uiso   1.00
C1390  C     0.24850   0.47722   0.21285   0.00000  Uiso   1.00
C1391  C     0.26923   0.51155   0.19050   0.00000  Uiso   1.00
C1392  C     0.63526   0.21463   0.87165   0.00000  Uiso   1.00
C1393  C     0.69033   0.28089   0.88224   0.00000  Uiso   1.00
C1394  C     0.23311   0.43797   0.26800   0.00000  Uiso   1.00
C1395  C     0.52108   0.09439   0.93012   0.00000  Uiso   1.00
C1396  C     0.49298   0.08749   0.95729   0.00000  Uiso   1.00
C1397  C     0.45290   0.07855   0.94764   0.00000  Uiso   1.00
C1398  C     0.23705   0.40450   0.24730   0.00000  Uiso   1.00
C1399  C     0.58374   0.04474   0.92757   0.00000  Uiso   1.00
C1400  C     0.25183   0.34958   0.23766   0.00000  Uiso   1.00
C1401  C     0.59335   0.14585   0.91507   0.00000  Uiso   1.00
C1402  C     0.62602   0.18222   0.92958   0.00000  Uiso   1.00
C1403  C     0.64680   0.21660   0.90727   0.00000  Uiso   1.00
H1404  H     0.20295   0.43281   0.17487   0.00000  Uiso   1.00
H1405  H     0.12729   0.41530   0.19070   0.00000  Uiso   1.00
H1406  H     0.21804   0.37256   0.16098   0.00000  Uiso   1.00
H1407  H     0.26031   0.51001   0.16300   0.00000  Uiso   1.00
H1408  H     0.38181   0.06340   0.89059   0.00000  Uiso   1.00
H1409  H     0.23984   0.30663   0.16125   0.00000  Uiso   1.00
H1410  H     0.32899   0.59647   0.16551   0.00000  Uiso   1.00
H1411  H     0.57541   0.10616   0.96234   0.00000  Uiso   1.00
H1412  H     0.50190   0.08902   0.98480   0.00000  Uiso   1.00
H1413  H     0.59265   0.04628   0.95508   0.00000  Uiso   1.00
H1414  H     0.96826   0.85039   0.62376   0.00000  Uiso   1.00
H1415  H     0.41531   0.06912   0.99402   0.00000  Uiso   1.00
H1416  H     0.60668   0.97902   0.93134   0.00000  Uiso   1.00
H1417  H     0.02916   0.93553   0.60227   0.00000  Uiso   1.00
O1418  O     0.34949   0.05485   0.95489   0.00000  Uiso   1.00
O1419  O     0.26723   0.26997   0.20600   0.00000  Uiso   1.00
O1420  O     0.71752   0.31691   0.87825   0.00000  Uiso   1.00
N1421  N     0.39978   0.06711   0.91185   0.00000  Uiso   1.00
N1422  N     0.24536   0.31619   0.18659   0.00000  Uiso   1.00
N1423  N     0.66205   0.25384   0.85723   0.00000  Uiso   1.00
N1424  N     0.41781   0.07019   0.96750   0.00000  Uiso   1.00
N1425  N     0.59672   0.98594   0.90891   0.00000  Uiso   1.00
N1426  N     0.68007   0.25691   0.91289   0.00000  Uiso   1.00
C1427  C     0.87858   0.76768   0.53588   0.00000  Uiso   1.00
C1428  C     0.84290   0.75910   0.56123   0.00000  Uiso   1.00
C1429  C     0.13619   0.41682   0.21821   0.00000  Uiso   1.00
C1430  C     0.10803   0.40991   0.24536   0.00000  Uiso   1.00
C1431  C     0.05087   0.39626   0.27932   0.00000  Uiso   1.00
C1432  C     0.89220   0.73587   0.54509   0.00000  Uiso   1.00
C1433  C     0.89361   0.70741   0.52182   0.00000  Uiso   1.00
C1434  C     0.90696   0.68095   0.53538   0.00000  Uiso   1.00
C1435  C     0.92637   0.63126   0.54426   0.00000  Uiso   1.00
C1436  C     0.91517   0.81055   0.54618   0.00000  Uiso   1.00
C1437  C     0.93590   0.84488   0.52384   0.00000  Uiso   1.00
C1438  C     0.30193   0.54796   0.20499   0.00000  Uiso   1.00
C1439  C     0.35699   0.61423   0.21557   0.00000  Uiso   1.00
C1440  C     0.89978   0.77130   0.60133   0.00000  Uiso   1.00
C1441  C     0.18775   0.42773   0.26345   0.00000  Uiso   1.00
C1442  C     0.15964   0.42083   0.29062   0.00000  Uiso   1.00
C1443  C     0.11956   0.41188   0.28098   0.00000  Uiso   1.00
C1444  C     0.90372   0.73783   0.58063   0.00000  Uiso   1.00
C1445  C     0.25040   0.37808   0.26090   0.00000  Uiso   1.00
C1446  C     0.91850   0.68292   0.57099   0.00000  Uiso   1.00
C1447  C     0.26002   0.47918   0.24840   0.00000  Uiso   1.00
C1448  C     0.29269   0.51555   0.26292   0.00000  Uiso   1.00
C1449  C     0.31346   0.54993   0.24060   0.00000  Uiso   1.00
H1450  H     0.86961   0.76615   0.50821   0.00000  Uiso   1.00
H1451  H     0.79395   0.74863   0.52403   0.00000  Uiso   1.00
H1452  H     0.88470   0.70590   0.49431   0.00000  Uiso   1.00
H1453  H     0.92698   0.84335   0.49633   0.00000  Uiso   1.00
H1454  H     0.04847   0.39674   0.22392   0.00000  Uiso   1.00
H1455  H     0.90651   0.63996   0.49458   0.00000  Uiso   1.00
H1456  H     0.99566   0.92981   0.49884   0.00000  Uiso   1.00
H1457  H     0.24208   0.43950   0.29568   0.00000  Uiso   1.00
H1458  H     0.16856   0.42235   0.31813   0.00000  Uiso   1.00
H1459  H     0.25931   0.37961   0.28841   0.00000  Uiso   1.00
H1460  H     0.63492   0.18373   0.95710   0.00000  Uiso   1.00
H1461  H     0.08198   0.40246   0.32735   0.00000  Uiso   1.00
H1462  H     0.27335   0.31235   0.26468   0.00000  Uiso   1.00
H1463  H     0.69582   0.26886   0.93560   0.00000  Uiso   1.00
O1464  O     0.01615   0.38818   0.28823   0.00000  Uiso   1.00
O1465  O     0.93389   0.60331   0.53934   0.00000  Uiso   1.00
O1466  O     0.38418   0.65024   0.21159   0.00000  Uiso   1.00
N1467  N     0.06645   0.40045   0.24518   0.00000  Uiso   1.00
N1468  N     0.91203   0.64953   0.51992   0.00000  Uiso   1.00
N1469  N     0.32871   0.58717   0.19056   0.00000  Uiso   1.00
N1470  N     0.08448   0.40352   0.30083   0.00000  Uiso   1.00
N1471  N     0.26339   0.31927   0.24224   0.00000  Uiso   1.00
N1472  N     0.34674   0.59025   0.24622   0.00000  Uiso   1.00
C1473  C     0.54524   0.10101   0.86922   0.00000  Uiso   1.00
C1474  C     0.50956   0.09243   0.89457   0.00000  Uiso   1.00
C1475  C     0.80285   0.75016   0.55155   0.00000  Uiso   1.00
C1476  C     0.77469   0.74324   0.57870   0.00000  Uiso   1.00
C1477  C     0.71753   0.72960   0.61265   0.00000  Uiso   1.00
C1478  C     0.55887   0.06920   0.87842   0.00000  Uiso   1.00
C1479  C     0.56028   0.04074   0.85515   0.00000  Uiso   1.00
C1480  C     0.57363   0.01428   0.86871   0.00000  Uiso   1.00
C1481  C     0.59304   0.96459   0.87759   0.00000  Uiso   1.00
C1482  C     0.58183   0.14388   0.87952   0.00000  Uiso   1.00
C1483  C     0.60257   0.17821   0.85717   0.00000  Uiso   1.00
C1484  C     0.96859   0.88129   0.53832   0.00000  Uiso   1.00
C1485  C     0.02366   0.94756   0.54890   0.00000  Uiso   1.00
C1486  C     0.56645   0.10463   0.93467   0.00000  Uiso   1.00
C1487  C     0.85441   0.76106   0.59678   0.00000  Uiso   1.00
C1488  C     0.82631   0.75416   0.62396   0.00000  Uiso   1.00
C1489  C     0.78623   0.74522   0.61431   0.00000  Uiso   1.00
C1490  C     0.57038   0.07117   0.91397   0.00000  Uiso   1.00
C1491  C     0.91707   0.71141   0.59423   0.00000  Uiso   1.00
C1492  C     0.58517   0.01625   0.90433   0.00000  Uiso   1.00
C1493  C     0.92668   0.81252   0.58173   0.00000  Uiso   1.00
C1494  C     0.95935   0.84888   0.59625   0.00000  Uiso   1.00
C1495  C     0.98013   0.88326   0.57393   0.00000  Uiso   1.00
H1496  H     0.53628   0.09948   0.84154   0.00000  Uiso   1.00
H1497  H     0.46062   0.08197   0.85736   0.00000  Uiso   1.00
H1498  H     0.55137   0.03923   0.82764   0.00000  Uiso   1.00
H1499  H     0.59365   0.17668   0.82966   0.00000  Uiso   1.00
H1500  H     0.71514   0.73007   0.55725   0.00000  Uiso   1.00
H1501  H     0.57317   0.97330   0.82792   0.00000  Uiso   1.00
H1502  H     0.66232   0.26314   0.83217   0.00000  Uiso   1.00
H1503  H     0.90875   0.77283   0.62901   0.00000  Uiso   1.00
H1504  H     0.83523   0.75568   0.65146   0.00000  Uiso   1.00
H1505  H     0.92598   0.71294   0.62174   0.00000  Uiso   1.00
H1506  H     0.30159   0.51706   0.29043   0.00000  Uiso   1.00
H1507  H     0.74864   0.73579   0.66068   0.00000  Uiso   1.00
H1508  H     0.94001   0.64568   0.59801   0.00000  Uiso   1.00
H1509  H     0.36249   0.60219   0.26893   0.00000  Uiso   1.00
O1510  O     0.68282   0.72152   0.62156   0.00000  Uiso   1.00
O1511  O     0.60056   0.93664   0.87267   0.00000  Uiso   1.00
O1512  O     0.05085   0.98357   0.54492   0.00000  Uiso   1.00
N1513  N     0.73312   0.73378   0.57851   0.00000  Uiso   1.00
N1514  N     0.57869   0.98286   0.85326   0.00000  Uiso   1.00
N1515  N     0.99538   0.92050   0.52390   0.00000  Uiso   1.00
N1516  N     0.75115   0.73686   0.63417   0.00000  Uiso   1.00
N1517  N     0.93005   0.65261   0.57558   0.00000  Uiso   1.00
N1518  N     0.01341   0.92358   0.57955   0.00000  Uiso   1.00
C1519  C     0.22243   0.78809   0.20255   0.00000  Uiso   1.00
C1520  C     0.24953   0.82377   0.22790   0.00000  Uiso   1.00
C1521  C     0.61397   0.53048   0.88488   0.00000  Uiso   1.00
C1522  C     0.63522   0.55864   0.91203   0.00000  Uiso   1.00
C1523  C     0.67873   0.61580   0.94598   0.00000  Uiso   1.00
C1524  C     0.17700   0.77447   0.21175   0.00000  Uiso   1.00
C1525  C     0.14713   0.77305   0.18849   0.00000  Uiso   1.00
C1526  C     0.10732   0.75970   0.20205   0.00000  Uiso   1.00
C1527  C     0.03822   0.74029   0.21093   0.00000  Uiso   1.00
C1528  C     0.22872   0.75150   0.21285   0.00000  Uiso   1.00
C1529  C     0.24231   0.73077   0.19050   0.00000  Uiso   1.00
C1530  C     0.57937   0.36474   0.87165   0.00000  Uiso   1.00
C1531  C     0.59057   0.30967   0.88224   0.00000  Uiso   1.00
C1532  C     0.20485   0.76689   0.26800   0.00000  Uiso   1.00
C1533  C     0.57331   0.47892   0.93012   0.00000  Uiso   1.00
C1534  C     0.59452   0.50702   0.95729   0.00000  Uiso   1.00
C1535  C     0.62565   0.54710   0.94764   0.00000  Uiso   1.00
C1536  C     0.16745   0.76295   0.24730   0.00000  Uiso   1.00
C1537  C     0.46101   0.41626   0.92757   0.00000  Uiso   1.00
C1538  C     0.09775   0.74817   0.23766   0.00000  Uiso   1.00
C1539  C     0.55250   0.40665   0.91507   0.00000  Uiso   1.00
C1540  C     0.55620   0.37398   0.92958   0.00000  Uiso   1.00
C1541  C     0.56980   0.35320   0.90727   0.00000  Uiso   1.00
H1542  H     0.22987   0.79705   0.17487   0.00000  Uiso   1.00
H1543  H     0.28802   0.87271   0.19070   0.00000  Uiso   1.00
H1544  H     0.15453   0.78196   0.16098   0.00000  Uiso   1.00
H1545  H     0.24970   0.73969   0.16300   0.00000  Uiso   1.00
H1546  H     0.68160   0.61819   0.89059   0.00000  Uiso   1.00
H1547  H     0.06679   0.76016   0.16125   0.00000  Uiso   1.00
H1548  H     0.26748   0.67101   0.16551   0.00000  Uiso   1.00
H1549  H     0.53075   0.42459   0.96234   0.00000  Uiso   1.00
H1550  H     0.58712   0.49810   0.98480   0.00000  Uiso   1.00
H1551  H     0.45363   0.40735   0.95508   0.00000  Uiso   1.00
H1552  H     0.88214   0.03174   0.62376   0.00000  Uiso   1.00
H1553  H     0.65381   0.58469   0.99402   0.00000  Uiso   1.00
H1554  H     0.37234   0.39332   0.93134   0.00000  Uiso   1.00
H1555  H     0.90637   0.97084   0.60227   0.00000  Uiso   1.00
O1556  O     0.70536   0.65051   0.95489   0.00000  Uiso   1.00
O1557  O     0.00275   0.73277   0.20600   0.00000  Uiso   1.00
O1558  O     0.59939   0.28248   0.87825   0.00000  Uiso   1.00
N1559  N     0.66733   0.60022   0.91185   0.00000  Uiso   1.00
N1560  N     0.07083   0.75464   0.18659   0.00000  Uiso   1.00
N1561  N     0.59179   0.33795   0.85723   0.00000  Uiso   1.00
N1562  N     0.65238   0.58219   0.96750   0.00000  Uiso   1.00
N1563  N     0.38922   0.40328   0.90891   0.00000  Uiso   1.00
N1564  N     0.57684   0.31993   0.91289   0.00000  Uiso   1.00
C1565  C     0.88910   0.12142   0.53588   0.00000  Uiso   1.00
C1566  C     0.91620   0.15710   0.56123   0.00000  Uiso   1.00
C1567  C     0.28064   0.86381   0.21821   0.00000  Uiso   1.00
C1568  C     0.30188   0.89197   0.24536   0.00000  Uiso   1.00
C1569  C     0.34540   0.94913   0.27932   0.00000  Uiso   1.00
C1570  C     0.84367   0.10780   0.54509   0.00000  Uiso   1.00
C1571  C     0.81379   0.10639   0.52182   0.00000  Uiso   1.00
C1572  C     0.77398   0.09304   0.53538   0.00000  Uiso   1.00
C1573  C     0.70489   0.07363   0.54426   0.00000  Uiso   1.00
C1574  C     0.89538   0.08483   0.54618   0.00000  Uiso   1.00
C1575  C     0.90898   0.06410   0.52384   0.00000  Uiso   1.00
C1576  C     0.24604   0.69807   0.20499   0.00000  Uiso   1.00
C1577  C     0.25723   0.64301   0.21557   0.00000  Uiso   1.00
C1578  C     0.87152   0.10022   0.60133   0.00000  Uiso   1.00
C1579  C     0.23998   0.81225   0.26345   0.00000  Uiso   1.00
C1580  C     0.26118   0.84036   0.29062   0.00000  Uiso   1.00
C1581  C     0.29232   0.88044   0.28098   0.00000  Uiso   1.00
C1582  C     0.83412   0.09628   0.58063   0.00000  Uiso   1.00
C1583  C     0.12767   0.74960   0.26090   0.00000  Uiso   1.00
C1584  C     0.76441   0.08150   0.57099   0.00000  Uiso   1.00
C1585  C     0.21917   0.73998   0.24840   0.00000  Uiso   1.00
C1586  C     0.22286   0.70731   0.26292   0.00000  Uiso   1.00
C1587  C     0.23647   0.68654   0.24060   0.00000  Uiso   1.00
H1588  H     0.89653   0.13039   0.50821   0.00000  Uiso   1.00
H1589  H     0.95468   0.20605   0.52403   0.00000  Uiso   1.00
H1590  H     0.82119   0.11530   0.49431   0.00000  Uiso   1.00
H1591  H     0.91637   0.07302   0.49633   0.00000  Uiso   1.00
H1592  H     0.34826   0.95153   0.22392   0.00000  Uiso   1.00
H1593  H     0.73346   0.09349   0.49458   0.00000  Uiso   1.00
H1594  H     0.93415   0.00434   0.49884   0.00000  Uiso   1.00
H1595  H     0.19741   0.75792   0.29568   0.00000  Uiso   1.00
H1596  H     0.25379   0.83144   0.31813   0.00000  Uiso   1.00
H1597  H     0.12030   0.74069   0.28841   0.00000  Uiso   1.00
H1598  H     0.54880   0.36508   0.95710   0.00000  Uiso   1.00
H1599  H     0.32048   0.91802   0.32735   0.00000  Uiso   1.00
H1600  H     0.03900   0.72665   0.26468   0.00000  Uiso   1.00
H1601  H     0.57303   0.30418   0.93560   0.00000  Uiso   1.00
O1602  O     0.37203   0.98385   0.28823   0.00000  Uiso   1.00
O1603  O     0.66941   0.06611   0.53934   0.00000  Uiso   1.00
O1604  O     0.26605   0.61582   0.21159   0.00000  Uiso   1.00
N1605  N     0.33399   0.93355   0.24518   0.00000  Uiso   1.00
N1606  N     0.73750   0.08797   0.51992   0.00000  Uiso   1.00
N1607  N     0.25846   0.67129   0.19056   0.00000  Uiso   1.00
N1608  N     0.31904   0.91552   0.30083   0.00000  Uiso   1.00
N1609  N     0.05588   0.73661   0.24224   0.00000  Uiso   1.00
N1610  N     0.24351   0.65326   0.24622   0.00000  Uiso   1.00
C1611  C     0.55577   0.45476   0.86922   0.00000  Uiso   1.00
C1612  C     0.58286   0.49044   0.89457   0.00000  Uiso   1.00
C1613  C     0.94730   0.19715   0.55155   0.00000  Uiso   1.00
C1614  C     0.96855   0.22531   0.57870   0.00000  Uiso   1.00
C1615  C     0.01206   0.28247   0.61265   0.00000  Uiso   1.00
C1616  C     0.51034   0.44113   0.87842   0.00000  Uiso   1.00
C1617  C     0.48046   0.43972   0.85515   0.00000  Uiso   1.00
C1618  C     0.44065   0.42637   0.86871   0.00000  Uiso   1.00
C1619  C     0.37155   0.40696   0.87759   0.00000  Uiso   1.00
C1620  C     0.56205   0.41817   0.87952   0.00000  Uiso   1.00
C1621  C     0.57565   0.39743   0.85717   0.00000  Uiso   1.00
C1622  C     0.91270   0.03141   0.53832   0.00000  Uiso   1.00
C1623  C     0.92390   0.97634   0.54890   0.00000  Uiso   1.00
C1624  C     0.53818   0.43355   0.93467   0.00000  Uiso   1.00
C1625  C     0.90665   0.14559   0.59678   0.00000  Uiso   1.00
C1626  C     0.92785   0.17369   0.62396   0.00000  Uiso   1.00
C1627  C     0.95898   0.21377   0.61431   0.00000  Uiso   1.00
C1628  C     0.50078   0.42962   0.91397   0.00000  Uiso   1.00
C1629  C     0.79434   0.08293   0.59423   0.00000  Uiso   1.00
C1630  C     0.43108   0.41483   0.90433   0.00000  Uiso   1.00
C1631  C     0.88584   0.07332   0.58173   0.00000  Uiso   1.00
C1632  C     0.88953   0.04065   0.59625   0.00000  Uiso   1.00
C1633  C     0.90313   0.01987   0.57393   0.00000  Uiso   1.00
H1634  H     0.56320   0.46372   0.84154   0.00000  Uiso   1.00
H1635  H     0.62135   0.53938   0.85736   0.00000  Uiso   1.00
H1636  H     0.48786   0.44863   0.82764   0.00000  Uiso   1.00
H1637  H     0.58304   0.40635   0.82966   0.00000  Uiso   1.00
H1638  H     0.01493   0.28486   0.55725   0.00000  Uiso   1.00
H1639  H     0.40012   0.42683   0.82792   0.00000  Uiso   1.00
H1640  H     0.60082   0.33768   0.83217   0.00000  Uiso   1.00
H1641  H     0.86408   0.09125   0.62901   0.00000  Uiso   1.00
H1642  H     0.92045   0.16477   0.65146   0.00000  Uiso   1.00
H1643  H     0.78696   0.07402   0.62174   0.00000  Uiso   1.00
H1644  H     0.21547   0.69841   0.29043   0.00000  Uiso   1.00
H1645  H     0.98715   0.25136   0.66068   0.00000  Uiso   1.00
H1646  H     0.70567   0.05999   0.59801   0.00000  Uiso   1.00
H1647  H     0.23970   0.63751   0.26893   0.00000  Uiso   1.00
O1648  O     0.03870   0.31718   0.62156   0.00000  Uiso   1.00
O1649  O     0.33608   0.39944   0.87267   0.00000  Uiso   1.00
O1650  O     0.93272   0.94915   0.54492   0.00000  Uiso   1.00
N1651  N     0.00066   0.26688   0.57851   0.00000  Uiso   1.00
N1652  N     0.40417   0.42131   0.85326   0.00000  Uiso   1.00
N1653  N     0.92512   0.00462   0.52390   0.00000  Uiso   1.00
N1654  N     0.98571   0.24885   0.63417   0.00000  Uiso   1.00
N1655  N     0.72255   0.06995   0.57558   0.00000  Uiso   1.00
N1656  N     0.91017   0.98659   0.57955   0.00000  Uiso   1.00
