data_job_06773
_audit_creation_date              2018-12-19
_audit_creation_method            'Materials Studio'
_symmetry_space_group_name_H-M    'P1'
_symmetry_Int_Tables_number       1
_symmetry_cell_setting            triclinic
loop_
_symmetry_equiv_pos_as_xyz
  x,y,z
_cell_length_a                    23.0503
_cell_length_b                    23.0503
_cell_length_c                    49.6064
_cell_angle_alpha                 90.0000
_cell_angle_beta                  90.0000
_cell_angle_gamma                 120.0000
loop_
_atom_site_label
_atom_site_type_symbol
_atom_site_fract_x
_atom_site_fract_y
_atom_site_fract_z
_atom_site_U_iso_or_equiv
_atom_site_adp_type
_atom_site_occupancy
C1     C     0.58716   0.08587   0.48437   0.00000  Uiso   1.00
C2     C     0.90797   0.80002   0.16824   0.00000  Uiso   1.00
C3     C     0.88669   0.78946   0.19487   0.00000  Uiso   1.00
C4     C     0.87815   0.83889   0.20707   0.00000  Uiso   1.00
C5     C     0.85680   0.90380   0.23591   0.00000  Uiso   1.00
C6     C     0.54311   0.07059   0.45945   0.00000  Uiso   1.00
C7     C     0.49532   0.00726   0.45067   0.00000  Uiso   1.00
C8     C     0.12691   0.33720   0.76075   0.00000  Uiso   1.00
C9     C     0.05664   0.30466   0.72417   0.00000  Uiso   1.00
C10    C     0.65928   0.12670   0.47448   0.00000  Uiso   1.00
C11    C     0.70917   0.11053   0.47832   0.00000  Uiso   1.00
C12    C     0.77189   0.15436   0.46770   0.00000  Uiso   1.00
C13    C     0.88199   0.20894   0.45445   0.00000  Uiso   1.00
C14    C     0.60984   0.19244   0.45868   0.00000  Uiso   1.00
C15    C     0.92029   0.85791   0.15428   0.00000  Uiso   1.00
C16    C     0.91178   0.90737   0.16645   0.00000  Uiso   1.00
C17    C     0.89050   0.89688   0.19310   0.00000  Uiso   1.00
C18    C     0.55542   0.12847   0.44550   0.00000  Uiso   1.00
C19    C     0.52041   0.12517   0.42225   0.00000  Uiso   1.00
C20    C     0.13925   0.39518   0.74676   0.00000  Uiso   1.00
C21    C     0.67160   0.18458   0.46052   0.00000  Uiso   1.00
C22    C     0.73426   0.22844   0.44989   0.00000  Uiso   1.00
C23    C     0.78423   0.21235   0.45372   0.00000  Uiso   1.00
H24    H     0.57757   0.04081   0.49523   0.00000  Uiso   1.00
H25    H     0.87716   0.74466   0.20567   0.00000  Uiso   1.00
H26    H     0.48581   0.96248   0.46147   0.00000  Uiso   1.00
H27    H     0.69962   0.06574   0.48912   0.00000  Uiso   1.00
H28    H     0.84516   0.81140   0.24803   0.00000  Uiso   1.00
H29    H     0.05616   0.23450   0.75123   0.00000  Uiso   1.00
H30    H     0.84036   0.11890   0.47618   0.00000  Uiso   1.00
H31    H     0.95276   0.90418   0.11448   0.00000  Uiso   1.00
H32    H     0.92132   0.95216   0.15564   0.00000  Uiso   1.00
H33    H     0.86329   0.83664   0.07812   0.00000  Uiso   1.00
H34    H     0.74377   0.27323   0.43910   0.00000  Uiso   1.00
H35    H     0.88099   0.97981   0.20743   0.00000  Uiso   1.00
H36    H     0.09200   0.40291   0.71062   0.00000  Uiso   1.00
H37    H     0.87620   0.28732   0.43558   0.00000  Uiso   1.00
O38    O     0.84161   0.92361   0.25566   0.00000  Uiso   1.00
O39    O     0.01447   0.27072   0.70786   0.00000  Uiso   1.00
O40    O     0.93932   0.22306   0.45100   0.00000  Uiso   1.00
N41    N     0.85792   0.84446   0.23283   0.00000  Uiso   1.00
N42    N     0.07688   0.28340   0.74666   0.00000  Uiso   1.00
N43    N     0.83172   0.15363   0.46782   0.00000  Uiso   1.00
N44    N     0.87721   0.93508   0.21098   0.00000  Uiso   1.00
N45    N     0.09616   0.37402   0.72481   0.00000  Uiso   1.00
N46    N     0.85101   0.24425   0.44597   0.00000  Uiso   1.00
C47    C     0.75190   0.57594   0.22875   0.00000  Uiso   1.00
C48    C     0.43968   0.87873   0.53954   0.00000  Uiso   1.00
C49    C     0.48604   0.91412   0.51948   0.00000  Uiso   1.00
C50    C     0.49846   0.87696   0.50072   0.00000  Uiso   1.00
C51    C     0.53627   0.84019   0.46553   0.00000  Uiso   1.00
C52    C     0.43201   0.88378   0.58838   0.00000  Uiso   1.00
C53    C     0.80524   0.59010   0.27605   0.00000  Uiso   1.00
C54    C     0.47786   0.89052   0.63174   0.00000  Uiso   1.00
C55    C     0.50371   0.86161   0.67239   0.00000  Uiso   1.00
C56    C     0.34264   0.87694   0.55993   0.00000  Uiso   1.00
C57    C     0.30739   0.91083   0.55702   0.00000  Uiso   1.00
C58    C     0.23811   0.87216   0.55543   0.00000  Uiso   1.00
C59    C     0.12520   0.83261   0.55190   0.00000  Uiso   1.00
C60    C     0.35820   0.78033   0.56443   0.00000  Uiso   1.00
C61    C     0.40689   0.80869   0.54082   0.00000  Uiso   1.00
C62    C     0.41925   0.77146   0.52208   0.00000  Uiso   1.00
C63    C     0.46562   0.80680   0.50199   0.00000  Uiso   1.00
C64    C     0.39922   0.81375   0.58966   0.00000  Uiso   1.00
C65    C     0.40512   0.78078   0.61199   0.00000  Uiso   1.00
C66    C     0.44502   0.82036   0.63302   0.00000  Uiso   1.00
C67    C     0.30985   0.80690   0.56121   0.00000  Uiso   1.00
C68    C     0.24061   0.76817   0.55962   0.00000  Uiso   1.00
C69    C     0.20526   0.80200   0.55670   0.00000  Uiso   1.00
H70    H     0.77743   0.63046   0.22776   0.00000  Uiso   1.00
H71    H     0.51141   0.96832   0.51850   0.00000  Uiso   1.00
H72    H     0.83060   0.64430   0.27506   0.00000  Uiso   1.00
H73    H     0.33278   0.96503   0.55604   0.00000  Uiso   1.00
H74    H     0.57159   0.94246   0.47186   0.00000  Uiso   1.00
H75    H     0.87510   0.62875   0.32807   0.00000  Uiso   1.00
H76    H     0.19491   0.93551   0.55099   0.00000  Uiso   1.00
H77    H     0.99934   0.05914   0.89876   0.00000  Uiso   1.00
H78    H     0.39387   0.71727   0.52307   0.00000  Uiso   1.00
H79    H     0.37974   0.72658   0.61297   0.00000  Uiso   1.00
H80    H     0.21525   0.71397   0.56061   0.00000  Uiso   1.00
H81    H     0.47620   0.73869   0.47556   0.00000  Uiso   1.00
H82    H     0.44637   0.75832   0.66511   0.00000  Uiso   1.00
H83    H     0.09952   0.73174   0.55470   0.00000  Uiso   1.00
O84    O     0.56618   0.83926   0.44578   0.00000  Uiso   1.00
O85    O     0.52704   0.86501   0.69446   0.00000  Uiso   1.00
O86    O     0.07198   0.83014   0.54960   0.00000  Uiso   1.00
N87    N     0.54073   0.89567   0.47854   0.00000  Uiso   1.00
N88    N     0.84619   0.58069   0.32242   0.00000  Uiso   1.00
N89    N     0.18858   0.88918   0.55253   0.00000  Uiso   1.00
N90    N     0.48940   0.78603   0.48053   0.00000  Uiso   1.00
N91    N     0.46152   0.80438   0.65775   0.00000  Uiso   1.00
N92    N     0.13725   0.77953   0.55453   0.00000  Uiso   1.00
C93    C     0.25383   0.41921   0.81770   0.00000  Uiso   1.00
C94    C     0.57464   0.13336   0.50157   0.00000  Uiso   1.00
C95    C     0.55336   0.12280   0.52821   0.00000  Uiso   1.00
C96    C     0.54482   0.17223   0.54041   0.00000  Uiso   1.00
C97    C     0.52347   0.23713   0.56924   0.00000  Uiso   1.00
C98    C     0.20977   0.40393   0.79279   0.00000  Uiso   1.00
C99    C     0.16199   0.34060   0.78400   0.00000  Uiso   1.00
C100   C     0.79358   0.67053   0.09408   0.00000  Uiso   1.00
C101   C     0.72331   0.63799   0.05751   0.00000  Uiso   1.00
C102   C     0.32594   0.46003   0.80781   0.00000  Uiso   1.00
C103   C     0.37583   0.44387   0.81165   0.00000  Uiso   1.00
C104   C     0.43856   0.48770   0.80103   0.00000  Uiso   1.00
C105   C     0.54866   0.54227   0.78779   0.00000  Uiso   1.00
C106   C     0.27651   0.52578   0.79201   0.00000  Uiso   1.00
C107   C     0.58696   0.19124   0.48762   0.00000  Uiso   1.00
C108   C     0.57845   0.24070   0.49978   0.00000  Uiso   1.00
C109   C     0.55716   0.23022   0.52643   0.00000  Uiso   1.00
C110   C     0.22209   0.46181   0.77883   0.00000  Uiso   1.00
C111   C     0.18708   0.45850   0.75558   0.00000  Uiso   1.00
C112   C     0.80592   0.72852   0.08010   0.00000  Uiso   1.00
C113   C     0.33826   0.51792   0.79385   0.00000  Uiso   1.00
C114   C     0.40092   0.56178   0.78323   0.00000  Uiso   1.00
C115   C     0.45090   0.54569   0.78705   0.00000  Uiso   1.00
H116   H     0.24424   0.37414   0.82857   0.00000  Uiso   1.00
H117   H     0.54383   0.07799   0.53900   0.00000  Uiso   1.00
H118   H     0.15247   0.29581   0.79481   0.00000  Uiso   1.00
H119   H     0.36628   0.39907   0.82245   0.00000  Uiso   1.00
H120   H     0.51182   0.14473   0.58136   0.00000  Uiso   1.00
H121   H     0.72283   0.56783   0.08456   0.00000  Uiso   1.00
H122   H     0.50703   0.45224   0.80952   0.00000  Uiso   1.00
H123   H     0.61943   0.23751   0.44781   0.00000  Uiso   1.00
H124   H     0.58799   0.28549   0.48898   0.00000  Uiso   1.00
H125   H     0.52996   0.16997   0.41145   0.00000  Uiso   1.00
H126   H     0.41044   0.60657   0.77243   0.00000  Uiso   1.00
H127   H     0.54766   0.31314   0.54076   0.00000  Uiso   1.00
H128   H     0.75867   0.73624   0.04396   0.00000  Uiso   1.00
H129   H     0.54286   0.62065   0.76892   0.00000  Uiso   1.00
O130   O     0.50828   0.25694   0.58900   0.00000  Uiso   1.00
O131   O     0.68113   0.60405   0.04119   0.00000  Uiso   1.00
O132   O     0.60599   0.55639   0.78434   0.00000  Uiso   1.00
N133   N     0.52459   0.17779   0.56616   0.00000  Uiso   1.00
N134   N     0.74354   0.61673   0.07999   0.00000  Uiso   1.00
N135   N     0.49839   0.48696   0.80115   0.00000  Uiso   1.00
N136   N     0.54387   0.26841   0.54431   0.00000  Uiso   1.00
N137   N     0.76283   0.70736   0.05815   0.00000  Uiso   1.00
N138   N     0.51767   0.57758   0.77931   0.00000  Uiso   1.00
C139   C     0.41857   0.90927   0.56208   0.00000  Uiso   1.00
C140   C     0.10635   0.21206   0.87288   0.00000  Uiso   1.00
C141   C     0.15270   0.24746   0.85282   0.00000  Uiso   1.00
C142   C     0.16513   0.21029   0.83405   0.00000  Uiso   1.00
C143   C     0.20293   0.17352   0.79887   0.00000  Uiso   1.00
C144   C     0.09868   0.21712   0.92172   0.00000  Uiso   1.00
C145   C     0.47191   0.92343   0.60939   0.00000  Uiso   1.00
C146   C     0.14453   0.22386   0.96507   0.00000  Uiso   1.00
C147   C     0.17038   0.19494   0.00572   0.00000  Uiso   1.00
C148   C     0.00931   0.21027   0.89327   0.00000  Uiso   1.00
C149   C     0.97406   0.24416   0.89036   0.00000  Uiso   1.00
C150   C     0.90477   0.20549   0.88876   0.00000  Uiso   1.00
C151   C     0.79187   0.16594   0.88523   0.00000  Uiso   1.00
C152   C     0.02487   0.11366   0.89776   0.00000  Uiso   1.00
C153   C     0.07356   0.14202   0.87415   0.00000  Uiso   1.00
C154   C     0.08592   0.10480   0.85541   0.00000  Uiso   1.00
C155   C     0.13228   0.14013   0.83533   0.00000  Uiso   1.00
C156   C     0.06589   0.14708   0.92299   0.00000  Uiso   1.00
C157   C     0.07179   0.11411   0.94532   0.00000  Uiso   1.00
C158   C     0.11168   0.15370   0.96635   0.00000  Uiso   1.00
C159   C     0.97652   0.14024   0.89454   0.00000  Uiso   1.00
C160   C     0.90727   0.10150   0.89295   0.00000  Uiso   1.00
C161   C     0.87193   0.13533   0.89004   0.00000  Uiso   1.00
H162   H     0.44409   0.96380   0.56109   0.00000  Uiso   1.00
H163   H     0.17807   0.30166   0.85184   0.00000  Uiso   1.00
H164   H     0.49727   0.97763   0.60840   0.00000  Uiso   1.00
H165   H     0.99945   0.29836   0.88937   0.00000  Uiso   1.00
H166   H     0.23826   0.27579   0.80519   0.00000  Uiso   1.00
H167   H     0.54176   0.96208   0.66140   0.00000  Uiso   1.00
H168   H     0.86158   0.26884   0.88433   0.00000  Uiso   1.00
H169   H     0.66601   0.39247   0.23209   0.00000  Uiso   1.00
H170   H     0.06054   0.05060   0.85641   0.00000  Uiso   1.00
H171   H     0.04640   0.05991   0.94630   0.00000  Uiso   1.00
H172   H     0.88192   0.04731   0.89394   0.00000  Uiso   1.00
H173   H     0.14287   0.07203   0.80890   0.00000  Uiso   1.00
H174   H     0.11304   0.09165   0.99845   0.00000  Uiso   1.00
H175   H     0.76619   0.06508   0.88804   0.00000  Uiso   1.00
O176   O     0.23285   0.17259   0.77911   0.00000  Uiso   1.00
O177   O     0.19370   0.19834   0.02779   0.00000  Uiso   1.00
O178   O     0.73865   0.16347   0.88293   0.00000  Uiso   1.00
N179   N     0.20740   0.22900   0.81187   0.00000  Uiso   1.00
N180   N     0.51285   0.91402   0.65575   0.00000  Uiso   1.00
N181   N     0.85524   0.22251   0.88587   0.00000  Uiso   1.00
N182   N     0.15607   0.11936   0.81387   0.00000  Uiso   1.00
N183   N     0.12819   0.13771   0.99108   0.00000  Uiso   1.00
N184   N     0.80391   0.11287   0.88786   0.00000  Uiso   1.00
C185   C     0.92050   0.75254   0.15104   0.00000  Uiso   1.00
C186   C     0.24131   0.46669   0.83491   0.00000  Uiso   1.00
C187   C     0.22003   0.45613   0.86154   0.00000  Uiso   1.00
C188   C     0.21149   0.50556   0.87374   0.00000  Uiso   1.00
C189   C     0.19014   0.57047   0.90257   0.00000  Uiso   1.00
C190   C     0.87644   0.73726   0.12612   0.00000  Uiso   1.00
C191   C     0.82866   0.67393   0.11734   0.00000  Uiso   1.00
C192   C     0.46024   0.00386   0.42741   0.00000  Uiso   1.00
C193   C     0.38997   0.97133   0.39084   0.00000  Uiso   1.00
C194   C     0.99261   0.79337   0.14114   0.00000  Uiso   1.00
C195   C     0.04250   0.77720   0.14498   0.00000  Uiso   1.00
C196   C     0.10523   0.82103   0.13437   0.00000  Uiso   1.00
C197   C     0.21532   0.87561   0.12112   0.00000  Uiso   1.00
C198   C     0.94317   0.85911   0.12534   0.00000  Uiso   1.00
C199   C     0.25362   0.52457   0.82095   0.00000  Uiso   1.00
C200   C     0.24512   0.57404   0.83312   0.00000  Uiso   1.00
C201   C     0.22383   0.56355   0.85976   0.00000  Uiso   1.00
C202   C     0.88876   0.79514   0.11217   0.00000  Uiso   1.00
C203   C     0.85375   0.79184   0.08891   0.00000  Uiso   1.00
C204   C     0.47258   0.06185   0.41343   0.00000  Uiso   1.00
C205   C     0.00493   0.85125   0.12719   0.00000  Uiso   1.00
C206   C     0.06759   0.89511   0.11656   0.00000  Uiso   1.00
C207   C     0.11757   0.87902   0.12039   0.00000  Uiso   1.00
H208   H     0.91090   0.70747   0.16190   0.00000  Uiso   1.00
H209   H     0.21049   0.41132   0.87233   0.00000  Uiso   1.00
H210   H     0.81914   0.62914   0.12814   0.00000  Uiso   1.00
H211   H     0.03295   0.73240   0.15578   0.00000  Uiso   1.00
H212   H     0.17849   0.47806   0.91470   0.00000  Uiso   1.00
H213   H     0.38950   0.90116   0.41789   0.00000  Uiso   1.00
H214   H     0.17369   0.78557   0.14285   0.00000  Uiso   1.00
H215   H     0.28610   0.57084   0.78115   0.00000  Uiso   1.00
H216   H     0.25465   0.61882   0.82231   0.00000  Uiso   1.00
H217   H     0.19663   0.50331   0.74478   0.00000  Uiso   1.00
H218   H     0.07710   0.93990   0.10576   0.00000  Uiso   1.00
H219   H     0.21433   0.64648   0.87410   0.00000  Uiso   1.00
H220   H     0.42533   0.06957   0.37729   0.00000  Uiso   1.00
H221   H     0.20953   0.95398   0.10225   0.00000  Uiso   1.00
O222   O     0.17495   0.59027   0.92233   0.00000  Uiso   1.00
O223   O     0.34780   0.93739   0.37452   0.00000  Uiso   1.00
O224   O     0.27265   0.88973   0.11767   0.00000  Uiso   1.00
N225   N     0.19125   0.51112   0.89949   0.00000  Uiso   1.00
N226   N     0.41021   0.95007   0.41333   0.00000  Uiso   1.00
N227   N     0.16506   0.82029   0.13449   0.00000  Uiso   1.00
N228   N     0.21054   0.60174   0.87765   0.00000  Uiso   1.00
N229   N     0.42949   0.04069   0.39148   0.00000  Uiso   1.00
N230   N     0.18434   0.91092   0.11264   0.00000  Uiso   1.00
C231   C     0.08523   0.24260   0.89542   0.00000  Uiso   1.00
C232   C     0.77302   0.54539   0.20621   0.00000  Uiso   1.00
C233   C     0.81937   0.58079   0.18615   0.00000  Uiso   1.00
C234   C     0.83180   0.54363   0.16738   0.00000  Uiso   1.00
C235   C     0.86960   0.50686   0.13220   0.00000  Uiso   1.00
C236   C     0.76534   0.55045   0.25505   0.00000  Uiso   1.00
C237   C     0.13857   0.25677   0.94272   0.00000  Uiso   1.00
C238   C     0.81120   0.55719   0.29841   0.00000  Uiso   1.00
C239   C     0.83705   0.52827   0.33906   0.00000  Uiso   1.00
C240   C     0.67598   0.54361   0.22660   0.00000  Uiso   1.00
C241   C     0.64073   0.57750   0.22369   0.00000  Uiso   1.00
C242   C     0.57144   0.53882   0.22209   0.00000  Uiso   1.00
C243   C     0.45853   0.49928   0.21857   0.00000  Uiso   1.00
C244   C     0.69153   0.44700   0.23110   0.00000  Uiso   1.00
C245   C     0.74023   0.47536   0.20749   0.00000  Uiso   1.00
C246   C     0.75258   0.43813   0.18875   0.00000  Uiso   1.00
C247   C     0.79895   0.47347   0.16866   0.00000  Uiso   1.00
C248   C     0.73256   0.48042   0.25633   0.00000  Uiso   1.00
C249   C     0.73845   0.44744   0.27865   0.00000  Uiso   1.00
C250   C     0.77835   0.48703   0.29968   0.00000  Uiso   1.00
C251   C     0.64319   0.47357   0.22787   0.00000  Uiso   1.00
C252   C     0.57394   0.43484   0.22629   0.00000  Uiso   1.00
C253   C     0.53859   0.46866   0.22337   0.00000  Uiso   1.00
H254   H     0.11076   0.29713   0.89442   0.00000  Uiso   1.00
H255   H     0.84474   0.63499   0.18517   0.00000  Uiso   1.00
H256   H     0.16393   0.31096   0.94173   0.00000  Uiso   1.00
H257   H     0.66612   0.63169   0.22270   0.00000  Uiso   1.00
H258   H     0.90493   0.60912   0.13852   0.00000  Uiso   1.00
H259   H     0.20843   0.29542   0.99474   0.00000  Uiso   1.00
H260   H     0.52825   0.60218   0.21766   0.00000  Uiso   1.00
H261   H     0.33267   0.72580   0.56543   0.00000  Uiso   1.00
H262   H     0.72720   0.38393   0.18974   0.00000  Uiso   1.00
H263   H     0.71307   0.39324   0.27963   0.00000  Uiso   1.00
H264   H     0.54858   0.38064   0.22727   0.00000  Uiso   1.00
H265   H     0.80953   0.40536   0.14223   0.00000  Uiso   1.00
H266   H     0.77970   0.42499   0.33178   0.00000  Uiso   1.00
H267   H     0.43285   0.39841   0.22137   0.00000  Uiso   1.00
O268   O     0.89952   0.50592   0.11244   0.00000  Uiso   1.00
O269   O     0.86037   0.53167   0.36112   0.00000  Uiso   1.00
O270   O     0.40531   0.49681   0.21627   0.00000  Uiso   1.00
N271   N     0.87407   0.56234   0.14520   0.00000  Uiso   1.00
N272   N     0.17952   0.24735   0.98908   0.00000  Uiso   1.00
N273   N     0.52191   0.55584   0.21920   0.00000  Uiso   1.00
N274   N     0.82274   0.45269   0.14720   0.00000  Uiso   1.00
N275   N     0.79486   0.47104   0.32441   0.00000  Uiso   1.00
N276   N     0.47058   0.44620   0.22120   0.00000  Uiso   1.00
C277   C     0.91413   0.50129   0.48437   0.00000  Uiso   1.00
C278   C     0.19998   0.10795   0.16824   0.00000  Uiso   1.00
C279   C     0.21054   0.09723   0.19487   0.00000  Uiso   1.00
C280   C     0.16111   0.03926   0.20707   0.00000  Uiso   1.00
C281   C     0.09620   0.95300   0.23591   0.00000  Uiso   1.00
C282   C     0.92941   0.47251   0.45945   0.00000  Uiso   1.00
C283   C     0.99274   0.48806   0.45067   0.00000  Uiso   1.00
C284   C     0.66280   0.78971   0.76075   0.00000  Uiso   1.00
C285   C     0.69534   0.75198   0.72417   0.00000  Uiso   1.00
C286   C     0.87330   0.53258   0.47448   0.00000  Uiso   1.00
C287   C     0.88947   0.59863   0.47832   0.00000  Uiso   1.00
C288   C     0.84564   0.61753   0.46770   0.00000  Uiso   1.00
C289   C     0.79106   0.67305   0.45445   0.00000  Uiso   1.00
C290   C     0.80756   0.41740   0.45868   0.00000  Uiso   1.00
C291   C     0.14209   0.06238   0.15428   0.00000  Uiso   1.00
C292   C     0.09263   0.00441   0.16645   0.00000  Uiso   1.00
C293   C     0.10312   0.99361   0.19310   0.00000  Uiso   1.00
C294   C     0.87153   0.42695   0.44550   0.00000  Uiso   1.00
C295   C     0.87483   0.39524   0.42225   0.00000  Uiso   1.00
C296   C     0.60482   0.74407   0.74676   0.00000  Uiso   1.00
C297   C     0.81542   0.48701   0.46052   0.00000  Uiso   1.00
C298   C     0.77156   0.50581   0.44989   0.00000  Uiso   1.00
C299   C     0.78765   0.57188   0.45372   0.00000  Uiso   1.00
H300   H     0.95919   0.53676   0.49523   0.00000  Uiso   1.00
H301   H     0.25534   0.13250   0.20567   0.00000  Uiso   1.00
H302   H     0.03752   0.52333   0.46147   0.00000  Uiso   1.00
H303   H     0.93426   0.63388   0.48912   0.00000  Uiso   1.00
H304   H     0.18860   0.03376   0.24803   0.00000  Uiso   1.00
H305   H     0.76550   0.82167   0.75123   0.00000  Uiso   1.00
H306   H     0.88110   0.72146   0.47618   0.00000  Uiso   1.00
H307   H     0.09582   0.04859   0.11448   0.00000  Uiso   1.00
H308   H     0.04784   0.96916   0.15564   0.00000  Uiso   1.00
H309   H     0.16336   0.02665   0.07812   0.00000  Uiso   1.00
H310   H     0.72677   0.47054   0.43910   0.00000  Uiso   1.00
H311   H     0.02019   0.90118   0.20743   0.00000  Uiso   1.00
H312   H     0.59709   0.68909   0.71062   0.00000  Uiso   1.00
H313   H     0.71268   0.58888   0.43558   0.00000  Uiso   1.00
O314   O     0.07639   0.91801   0.25566   0.00000  Uiso   1.00
O315   O     0.72928   0.74375   0.70786   0.00000  Uiso   1.00
O316   O     0.77694   0.71626   0.45100   0.00000  Uiso   1.00
N317   N     0.15554   0.01347   0.23283   0.00000  Uiso   1.00
N318   N     0.71660   0.79348   0.74666   0.00000  Uiso   1.00
N319   N     0.84637   0.67810   0.46782   0.00000  Uiso   1.00
N320   N     0.06492   0.94213   0.21098   0.00000  Uiso   1.00
N321   N     0.62598   0.72214   0.72481   0.00000  Uiso   1.00
N322   N     0.75575   0.60676   0.44597   0.00000  Uiso   1.00
C323   C     0.42406   0.17596   0.22875   0.00000  Uiso   1.00
C324   C     0.12127   0.56095   0.53954   0.00000  Uiso   1.00
C325   C     0.08588   0.57192   0.51948   0.00000  Uiso   1.00
C326   C     0.12304   0.62150   0.50072   0.00000  Uiso   1.00
C327   C     0.15981   0.69608   0.46553   0.00000  Uiso   1.00
C328   C     0.11622   0.54822   0.58838   0.00000  Uiso   1.00
C329   C     0.40990   0.21514   0.27605   0.00000  Uiso   1.00
C330   C     0.10948   0.58734   0.63174   0.00000  Uiso   1.00
C331   C     0.13839   0.64211   0.67239   0.00000  Uiso   1.00
C332   C     0.12306   0.46570   0.55993   0.00000  Uiso   1.00
C333   C     0.08917   0.39656   0.55702   0.00000  Uiso   1.00
C334   C     0.12784   0.36595   0.55543   0.00000  Uiso   1.00
C335   C     0.16739   0.29259   0.55190   0.00000  Uiso   1.00
C336   C     0.21967   0.57787   0.56443   0.00000  Uiso   1.00
C337   C     0.19131   0.59820   0.54082   0.00000  Uiso   1.00
C338   C     0.22854   0.64779   0.52208   0.00000  Uiso   1.00
C339   C     0.19320   0.65882   0.50199   0.00000  Uiso   1.00
C340   C     0.18625   0.58547   0.58966   0.00000  Uiso   1.00
C341   C     0.21922   0.62434   0.61199   0.00000  Uiso   1.00
C342   C     0.17964   0.62465   0.63302   0.00000  Uiso   1.00
C343   C     0.19310   0.50295   0.56121   0.00000  Uiso   1.00
C344   C     0.23183   0.47244   0.55962   0.00000  Uiso   1.00
C345   C     0.19800   0.40326   0.55670   0.00000  Uiso   1.00
H346   H     0.36954   0.14696   0.22776   0.00000  Uiso   1.00
H347   H     0.03168   0.54308   0.51850   0.00000  Uiso   1.00
H348   H     0.35570   0.18630   0.27506   0.00000  Uiso   1.00
H349   H     0.03497   0.36776   0.55604   0.00000  Uiso   1.00
H350   H     0.05754   0.62914   0.47186   0.00000  Uiso   1.00
H351   H     0.37125   0.24635   0.32807   0.00000  Uiso   1.00
H352   H     0.06449   0.25940   0.55099   0.00000  Uiso   1.00
H353   H     0.94086   0.94020   0.89876   0.00000  Uiso   1.00
H354   H     0.28273   0.67660   0.52307   0.00000  Uiso   1.00
H355   H     0.27342   0.65316   0.61297   0.00000  Uiso   1.00
H356   H     0.28603   0.50128   0.56061   0.00000  Uiso   1.00
H357   H     0.26131   0.73751   0.47556   0.00000  Uiso   1.00
H358   H     0.24168   0.68805   0.66511   0.00000  Uiso   1.00
H359   H     0.26826   0.36778   0.55470   0.00000  Uiso   1.00
O360   O     0.16074   0.72693   0.44578   0.00000  Uiso   1.00
O361   O     0.13499   0.66203   0.69446   0.00000  Uiso   1.00
O362   O     0.16986   0.24184   0.54960   0.00000  Uiso   1.00
N363   N     0.10433   0.64506   0.47854   0.00000  Uiso   1.00
N364   N     0.41931   0.26550   0.32242   0.00000  Uiso   1.00
N365   N     0.11082   0.29940   0.55253   0.00000  Uiso   1.00
N366   N     0.21397   0.70338   0.48053   0.00000  Uiso   1.00
N367   N     0.19562   0.65715   0.65775   0.00000  Uiso   1.00
N368   N     0.22047   0.35771   0.55453   0.00000  Uiso   1.00
C369   C     0.58079   0.83462   0.81770   0.00000  Uiso   1.00
C370   C     0.86664   0.44128   0.50157   0.00000  Uiso   1.00
C371   C     0.87720   0.43056   0.52821   0.00000  Uiso   1.00
C372   C     0.82777   0.37259   0.54041   0.00000  Uiso   1.00
C373   C     0.76287   0.28633   0.56924   0.00000  Uiso   1.00
C374   C     0.59607   0.80585   0.79279   0.00000  Uiso   1.00
C375   C     0.65940   0.82139   0.78400   0.00000  Uiso   1.00
C376   C     0.32947   0.12305   0.09408   0.00000  Uiso   1.00
C377   C     0.36201   0.08531   0.05751   0.00000  Uiso   1.00
C378   C     0.53997   0.86591   0.80781   0.00000  Uiso   1.00
C379   C     0.55613   0.93197   0.81165   0.00000  Uiso   1.00
C380   C     0.51230   0.95086   0.80103   0.00000  Uiso   1.00
C381   C     0.45773   0.00638   0.78779   0.00000  Uiso   1.00
C382   C     0.47422   0.75073   0.79201   0.00000  Uiso   1.00
C383   C     0.80876   0.39572   0.48762   0.00000  Uiso   1.00
C384   C     0.75930   0.33775   0.49978   0.00000  Uiso   1.00
C385   C     0.76978   0.32694   0.52643   0.00000  Uiso   1.00
C386   C     0.53819   0.76028   0.77883   0.00000  Uiso   1.00
C387   C     0.54150   0.72858   0.75558   0.00000  Uiso   1.00
C388   C     0.27148   0.07740   0.08010   0.00000  Uiso   1.00
C389   C     0.48208   0.82034   0.79385   0.00000  Uiso   1.00
C390   C     0.43822   0.83915   0.78323   0.00000  Uiso   1.00
C391   C     0.45431   0.90521   0.78705   0.00000  Uiso   1.00
H392   H     0.62586   0.87010   0.82857   0.00000  Uiso   1.00
H393   H     0.92201   0.46584   0.53900   0.00000  Uiso   1.00
H394   H     0.70419   0.85666   0.79481   0.00000  Uiso   1.00
H395   H     0.60093   0.96721   0.82245   0.00000  Uiso   1.00
H396   H     0.85527   0.36709   0.58136   0.00000  Uiso   1.00
H397   H     0.43217   0.15500   0.08456   0.00000  Uiso   1.00
H398   H     0.54776   0.05479   0.80952   0.00000  Uiso   1.00
H399   H     0.76249   0.38192   0.44781   0.00000  Uiso   1.00
H400   H     0.71451   0.30250   0.48898   0.00000  Uiso   1.00
H401   H     0.83003   0.35999   0.41145   0.00000  Uiso   1.00
H402   H     0.39343   0.80387   0.77243   0.00000  Uiso   1.00
H403   H     0.68686   0.23452   0.54076   0.00000  Uiso   1.00
H404   H     0.26376   0.02243   0.04396   0.00000  Uiso   1.00
H405   H     0.37935   0.92221   0.76892   0.00000  Uiso   1.00
O406   O     0.74306   0.25134   0.58900   0.00000  Uiso   1.00
O407   O     0.39595   0.07708   0.04119   0.00000  Uiso   1.00
O408   O     0.44361   0.04959   0.78434   0.00000  Uiso   1.00
N409   N     0.82221   0.34680   0.56616   0.00000  Uiso   1.00
N410   N     0.38327   0.12681   0.07999   0.00000  Uiso   1.00
N411   N     0.51304   0.01143   0.80115   0.00000  Uiso   1.00
N412   N     0.73159   0.27546   0.54431   0.00000  Uiso   1.00
N413   N     0.29264   0.05547   0.05815   0.00000  Uiso   1.00
N414   N     0.42242   0.94009   0.77931   0.00000  Uiso   1.00
C415   C     0.09073   0.50929   0.56208   0.00000  Uiso   1.00
C416   C     0.78794   0.89429   0.87288   0.00000  Uiso   1.00
C417   C     0.75254   0.90525   0.85282   0.00000  Uiso   1.00
C418   C     0.78971   0.95484   0.83405   0.00000  Uiso   1.00
C419   C     0.82648   0.02941   0.79887   0.00000  Uiso   1.00
C420   C     0.78288   0.88156   0.92172   0.00000  Uiso   1.00
C421   C     0.07657   0.54847   0.60939   0.00000  Uiso   1.00
C422   C     0.77614   0.92067   0.96507   0.00000  Uiso   1.00
C423   C     0.80506   0.97544   0.00572   0.00000  Uiso   1.00
C424   C     0.78973   0.79904   0.89327   0.00000  Uiso   1.00
C425   C     0.75584   0.72989   0.89036   0.00000  Uiso   1.00
C426   C     0.79451   0.69928   0.88876   0.00000  Uiso   1.00
C427   C     0.83406   0.62592   0.88523   0.00000  Uiso   1.00
C428   C     0.88634   0.91120   0.89776   0.00000  Uiso   1.00
C429   C     0.85798   0.93154   0.87415   0.00000  Uiso   1.00
C430   C     0.89520   0.98112   0.85541   0.00000  Uiso   1.00
C431   C     0.85987   0.99215   0.83533   0.00000  Uiso   1.00
C432   C     0.85292   0.91881   0.92299   0.00000  Uiso   1.00
C433   C     0.88589   0.95768   0.94532   0.00000  Uiso   1.00
C434   C     0.84630   0.95799   0.96635   0.00000  Uiso   1.00
C435   C     0.85976   0.83628   0.89454   0.00000  Uiso   1.00
C436   C     0.89850   0.80577   0.89295   0.00000  Uiso   1.00
C437   C     0.86467   0.73660   0.89004   0.00000  Uiso   1.00
H438   H     0.03620   0.48030   0.56109   0.00000  Uiso   1.00
H439   H     0.69834   0.87642   0.85184   0.00000  Uiso   1.00
H440   H     0.02237   0.51964   0.60840   0.00000  Uiso   1.00
H441   H     0.70164   0.70109   0.88937   0.00000  Uiso   1.00
H442   H     0.72421   0.96247   0.80519   0.00000  Uiso   1.00
H443   H     0.03792   0.57968   0.66140   0.00000  Uiso   1.00
H444   H     0.73116   0.59274   0.88433   0.00000  Uiso   1.00
H445   H     0.60753   0.27354   0.23209   0.00000  Uiso   1.00
H446   H     0.94940   0.00994   0.85641   0.00000  Uiso   1.00
H447   H     0.94009   0.98649   0.94630   0.00000  Uiso   1.00
H448   H     0.95269   0.83461   0.89394   0.00000  Uiso   1.00
H449   H     0.92797   0.07084   0.80890   0.00000  Uiso   1.00
H450   H     0.90835   0.02138   0.99845   0.00000  Uiso   1.00
H451   H     0.93492   0.70111   0.88804   0.00000  Uiso   1.00
O452   O     0.82741   0.06026   0.77911   0.00000  Uiso   1.00
O453   O     0.80166   0.99536   0.02779   0.00000  Uiso   1.00
O454   O     0.83653   0.57517   0.88293   0.00000  Uiso   1.00
N455   N     0.77100   0.97840   0.81187   0.00000  Uiso   1.00
N456   N     0.08598   0.59883   0.65575   0.00000  Uiso   1.00
N457   N     0.77749   0.63273   0.88587   0.00000  Uiso   1.00
N458   N     0.88064   0.03671   0.81387   0.00000  Uiso   1.00
N459   N     0.86229   0.99048   0.99108   0.00000  Uiso   1.00
N460   N     0.88713   0.69105   0.88786   0.00000  Uiso   1.00
C461   C     0.24746   0.16796   0.15104   0.00000  Uiso   1.00
C462   C     0.53331   0.77462   0.83491   0.00000  Uiso   1.00
C463   C     0.54387   0.76390   0.86154   0.00000  Uiso   1.00
C464   C     0.49444   0.70593   0.87374   0.00000  Uiso   1.00
C465   C     0.42953   0.61967   0.90257   0.00000  Uiso   1.00
C466   C     0.26274   0.13918   0.12612   0.00000  Uiso   1.00
C467   C     0.32607   0.15473   0.11734   0.00000  Uiso   1.00
C468   C     0.99614   0.45638   0.42741   0.00000  Uiso   1.00
C469   C     0.02867   0.41865   0.39084   0.00000  Uiso   1.00
C470   C     0.20663   0.19924   0.14114   0.00000  Uiso   1.00
C471   C     0.22280   0.26530   0.14498   0.00000  Uiso   1.00
C472   C     0.17897   0.28420   0.13437   0.00000  Uiso   1.00
C473   C     0.12439   0.33972   0.12112   0.00000  Uiso   1.00
C474   C     0.14089   0.08407   0.12534   0.00000  Uiso   1.00
C475   C     0.47543   0.72905   0.82095   0.00000  Uiso   1.00
C476   C     0.42596   0.67108   0.83312   0.00000  Uiso   1.00
C477   C     0.43645   0.66028   0.85976   0.00000  Uiso   1.00
C478   C     0.20486   0.09361   0.11217   0.00000  Uiso   1.00
C479   C     0.20816   0.06191   0.08891   0.00000  Uiso   1.00
C480   C     0.93815   0.41073   0.41343   0.00000  Uiso   1.00
C481   C     0.14875   0.15368   0.12719   0.00000  Uiso   1.00
C482   C     0.10489   0.17248   0.11656   0.00000  Uiso   1.00
C483   C     0.12098   0.23855   0.12039   0.00000  Uiso   1.00
H484   H     0.29253   0.20343   0.16190   0.00000  Uiso   1.00
H485   H     0.58868   0.79917   0.87233   0.00000  Uiso   1.00
H486   H     0.37086   0.18999   0.12814   0.00000  Uiso   1.00
H487   H     0.26760   0.30055   0.15578   0.00000  Uiso   1.00
H488   H     0.52194   0.70043   0.91470   0.00000  Uiso   1.00
H489   H     0.09884   0.48833   0.41789   0.00000  Uiso   1.00
H490   H     0.21443   0.38812   0.14285   0.00000  Uiso   1.00
H491   H     0.42916   0.71525   0.78115   0.00000  Uiso   1.00
H492   H     0.38118   0.63583   0.82231   0.00000  Uiso   1.00
H493   H     0.49669   0.69332   0.74478   0.00000  Uiso   1.00
H494   H     0.06010   0.13720   0.10576   0.00000  Uiso   1.00
H495   H     0.35352   0.56785   0.87410   0.00000  Uiso   1.00
H496   H     0.93043   0.35576   0.37729   0.00000  Uiso   1.00
H497   H     0.04602   0.25555   0.10225   0.00000  Uiso   1.00
O498   O     0.40973   0.58467   0.92233   0.00000  Uiso   1.00
O499   O     0.06261   0.41041   0.37452   0.00000  Uiso   1.00
O500   O     0.11027   0.38293   0.11767   0.00000  Uiso   1.00
N501   N     0.48888   0.68013   0.89949   0.00000  Uiso   1.00
N502   N     0.04993   0.46014   0.41333   0.00000  Uiso   1.00
N503   N     0.17971   0.34476   0.13449   0.00000  Uiso   1.00
N504   N     0.39826   0.60879   0.87765   0.00000  Uiso   1.00
N505   N     0.95931   0.38881   0.39148   0.00000  Uiso   1.00
N506   N     0.08908   0.27343   0.11264   0.00000  Uiso   1.00
C507   C     0.75740   0.84263   0.89542   0.00000  Uiso   1.00
C508   C     0.45461   0.22762   0.20621   0.00000  Uiso   1.00
C509   C     0.41921   0.23858   0.18615   0.00000  Uiso   1.00
C510   C     0.45637   0.28817   0.16738   0.00000  Uiso   1.00
C511   C     0.49314   0.36274   0.13220   0.00000  Uiso   1.00
C512   C     0.44955   0.21489   0.25505   0.00000  Uiso   1.00
C513   C     0.74323   0.88180   0.94272   0.00000  Uiso   1.00
C514   C     0.44281   0.25400   0.29841   0.00000  Uiso   1.00
C515   C     0.47173   0.30877   0.33906   0.00000  Uiso   1.00
C516   C     0.45639   0.13237   0.22660   0.00000  Uiso   1.00
C517   C     0.42250   0.06323   0.22369   0.00000  Uiso   1.00
C518   C     0.46118   0.03261   0.22209   0.00000  Uiso   1.00
C519   C     0.50072   0.95926   0.21857   0.00000  Uiso   1.00
C520   C     0.55300   0.24454   0.23110   0.00000  Uiso   1.00
C521   C     0.52464   0.26487   0.20749   0.00000  Uiso   1.00
C522   C     0.56187   0.31445   0.18875   0.00000  Uiso   1.00
C523   C     0.52653   0.32548   0.16866   0.00000  Uiso   1.00
C524   C     0.51958   0.25214   0.25633   0.00000  Uiso   1.00
C525   C     0.55256   0.29101   0.27865   0.00000  Uiso   1.00
C526   C     0.51297   0.29132   0.29968   0.00000  Uiso   1.00
C527   C     0.52643   0.16962   0.22787   0.00000  Uiso   1.00
C528   C     0.56516   0.13910   0.22629   0.00000  Uiso   1.00
C529   C     0.53134   0.06993   0.22337   0.00000  Uiso   1.00
H530   H     0.70287   0.81363   0.89442   0.00000  Uiso   1.00
H531   H     0.36501   0.20975   0.18517   0.00000  Uiso   1.00
H532   H     0.68904   0.85297   0.94173   0.00000  Uiso   1.00
H533   H     0.36831   0.03442   0.22270   0.00000  Uiso   1.00
H534   H     0.39088   0.29580   0.13852   0.00000  Uiso   1.00
H535   H     0.70458   0.91302   0.99474   0.00000  Uiso   1.00
H536   H     0.39782   0.92607   0.21766   0.00000  Uiso   1.00
H537   H     0.27420   0.60687   0.56543   0.00000  Uiso   1.00
H538   H     0.61607   0.34327   0.18974   0.00000  Uiso   1.00
H539   H     0.60676   0.31982   0.27963   0.00000  Uiso   1.00
H540   H     0.61936   0.16794   0.22727   0.00000  Uiso   1.00
H541   H     0.59464   0.40417   0.14223   0.00000  Uiso   1.00
H542   H     0.57501   0.35472   0.33178   0.00000  Uiso   1.00
H543   H     0.60159   0.03444   0.22137   0.00000  Uiso   1.00
O544   O     0.49408   0.39359   0.11244   0.00000  Uiso   1.00
O545   O     0.46833   0.32870   0.36112   0.00000  Uiso   1.00
O546   O     0.50319   0.90851   0.21627   0.00000  Uiso   1.00
N547   N     0.43766   0.31173   0.14520   0.00000  Uiso   1.00
N548   N     0.75265   0.93217   0.98908   0.00000  Uiso   1.00
N549   N     0.44416   0.96607   0.21920   0.00000  Uiso   1.00
N550   N     0.54731   0.37004   0.14720   0.00000  Uiso   1.00
N551   N     0.52896   0.32381   0.32441   0.00000  Uiso   1.00
N552   N     0.55380   0.02438   0.22120   0.00000  Uiso   1.00
C553   C     0.49871   0.41284   0.48437   0.00000  Uiso   1.00
C554   C     0.89205   0.09203   0.16824   0.00000  Uiso   1.00
C555   C     0.90277   0.11331   0.19487   0.00000  Uiso   1.00
C556   C     0.96074   0.12185   0.20707   0.00000  Uiso   1.00
C557   C     0.04700   0.14320   0.23591   0.00000  Uiso   1.00
C558   C     0.52749   0.45689   0.45945   0.00000  Uiso   1.00
C559   C     0.51194   0.50468   0.45067   0.00000  Uiso   1.00
C560   C     0.21029   0.87309   0.76075   0.00000  Uiso   1.00
C561   C     0.24802   0.94336   0.72417   0.00000  Uiso   1.00
C562   C     0.46742   0.34072   0.47448   0.00000  Uiso   1.00
C563   C     0.40137   0.29083   0.47832   0.00000  Uiso   1.00
C564   C     0.38247   0.22811   0.46770   0.00000  Uiso   1.00
C565   C     0.32695   0.11801   0.45445   0.00000  Uiso   1.00
C566   C     0.58260   0.39016   0.45868   0.00000  Uiso   1.00
C567   C     0.93762   0.07971   0.15428   0.00000  Uiso   1.00
C568   C     0.99559   0.08822   0.16645   0.00000  Uiso   1.00
C569   C     0.00639   0.10950   0.19310   0.00000  Uiso   1.00
C570   C     0.57305   0.44458   0.44550   0.00000  Uiso   1.00
C571   C     0.60476   0.47959   0.42225   0.00000  Uiso   1.00
C572   C     0.25593   0.86075   0.74676   0.00000  Uiso   1.00
C573   C     0.51299   0.32840   0.46052   0.00000  Uiso   1.00
C574   C     0.49419   0.26574   0.44989   0.00000  Uiso   1.00
C575   C     0.42812   0.21577   0.45372   0.00000  Uiso   1.00
H576   H     0.46324   0.42243   0.49523   0.00000  Uiso   1.00
H577   H     0.86750   0.12284   0.20567   0.00000  Uiso   1.00
H578   H     0.47667   0.51419   0.46147   0.00000  Uiso   1.00
H579   H     0.36612   0.30038   0.48912   0.00000  Uiso   1.00
H580   H     0.96624   0.15484   0.24803   0.00000  Uiso   1.00
H581   H     0.17833   0.94384   0.75123   0.00000  Uiso   1.00
H582   H     0.27854   0.15964   0.47618   0.00000  Uiso   1.00
H583   H     0.95141   0.04724   0.11448   0.00000  Uiso   1.00
H584   H     0.03084   0.07868   0.15564   0.00000  Uiso   1.00
H585   H     0.97335   0.13671   0.07812   0.00000  Uiso   1.00
H586   H     0.52946   0.25623   0.43910   0.00000  Uiso   1.00
H587   H     0.09882   0.11901   0.20743   0.00000  Uiso   1.00
H588   H     0.31091   0.90800   0.71062   0.00000  Uiso   1.00
H589   H     0.41112   0.12380   0.43558   0.00000  Uiso   1.00
O590   O     0.08199   0.15839   0.25566   0.00000  Uiso   1.00
O591   O     0.25625   0.98553   0.70786   0.00000  Uiso   1.00
O592   O     0.28374   0.06068   0.45100   0.00000  Uiso   1.00
N593   N     0.98653   0.14208   0.23283   0.00000  Uiso   1.00
N594   N     0.20652   0.92312   0.74666   0.00000  Uiso   1.00
N595   N     0.32190   0.16828   0.46782   0.00000  Uiso   1.00
N596   N     0.05787   0.12279   0.21098   0.00000  Uiso   1.00
N597   N     0.27786   0.90384   0.72481   0.00000  Uiso   1.00
N598   N     0.39324   0.14899   0.44597   0.00000  Uiso   1.00
C599   C     0.82404   0.24810   0.22875   0.00000  Uiso   1.00
C600   C     0.43905   0.56032   0.53954   0.00000  Uiso   1.00
C601   C     0.42808   0.51396   0.51948   0.00000  Uiso   1.00
C602   C     0.37850   0.50154   0.50072   0.00000  Uiso   1.00
C603   C     0.30392   0.46373   0.46553   0.00000  Uiso   1.00
C604   C     0.45178   0.56799   0.58838   0.00000  Uiso   1.00
C605   C     0.78486   0.19476   0.27605   0.00000  Uiso   1.00
C606   C     0.41266   0.52214   0.63174   0.00000  Uiso   1.00
C607   C     0.35789   0.49629   0.67239   0.00000  Uiso   1.00
C608   C     0.53430   0.65736   0.55993   0.00000  Uiso   1.00
C609   C     0.60344   0.69261   0.55702   0.00000  Uiso   1.00
C610   C     0.63405   0.76189   0.55543   0.00000  Uiso   1.00
C611   C     0.70741   0.87480   0.55190   0.00000  Uiso   1.00
C612   C     0.42213   0.64180   0.56443   0.00000  Uiso   1.00
C613   C     0.40180   0.59311   0.54082   0.00000  Uiso   1.00
C614   C     0.35221   0.58075   0.52208   0.00000  Uiso   1.00
C615   C     0.34118   0.53438   0.50199   0.00000  Uiso   1.00
C616   C     0.41453   0.60078   0.58966   0.00000  Uiso   1.00
C617   C     0.37566   0.59488   0.61199   0.00000  Uiso   1.00
C618   C     0.37535   0.55498   0.63302   0.00000  Uiso   1.00
C619   C     0.49705   0.69015   0.56121   0.00000  Uiso   1.00
C620   C     0.52756   0.75939   0.55962   0.00000  Uiso   1.00
C621   C     0.59674   0.79474   0.55670   0.00000  Uiso   1.00
H622   H     0.85304   0.22257   0.22776   0.00000  Uiso   1.00
H623   H     0.45692   0.48859   0.51850   0.00000  Uiso   1.00
H624   H     0.81370   0.16940   0.27506   0.00000  Uiso   1.00
H625   H     0.63224   0.66722   0.55604   0.00000  Uiso   1.00
H626   H     0.37086   0.42841   0.47186   0.00000  Uiso   1.00
H627   H     0.75365   0.12490   0.32807   0.00000  Uiso   1.00
H628   H     0.74060   0.80509   0.55099   0.00000  Uiso   1.00
H629   H     0.05980   0.00066   0.89876   0.00000  Uiso   1.00
H630   H     0.32340   0.60613   0.52307   0.00000  Uiso   1.00
H631   H     0.34684   0.62026   0.61297   0.00000  Uiso   1.00
H632   H     0.49872   0.78475   0.56061   0.00000  Uiso   1.00
H633   H     0.26249   0.52380   0.47556   0.00000  Uiso   1.00
H634   H     0.31195   0.55363   0.66511   0.00000  Uiso   1.00
H635   H     0.63222   0.90048   0.55470   0.00000  Uiso   1.00
O636   O     0.27307   0.43382   0.44578   0.00000  Uiso   1.00
O637   O     0.33797   0.47296   0.69446   0.00000  Uiso   1.00
O638   O     0.75816   0.92802   0.54960   0.00000  Uiso   1.00
N639   N     0.35494   0.45927   0.47854   0.00000  Uiso   1.00
N640   N     0.73450   0.15381   0.32242   0.00000  Uiso   1.00
N641   N     0.70060   0.81142   0.55253   0.00000  Uiso   1.00
N642   N     0.29662   0.51060   0.48053   0.00000  Uiso   1.00
N643   N     0.34285   0.53848   0.65775   0.00000  Uiso   1.00
N644   N     0.64229   0.86275   0.55453   0.00000  Uiso   1.00
C645   C     0.16538   0.74617   0.81770   0.00000  Uiso   1.00
C646   C     0.55872   0.42536   0.50157   0.00000  Uiso   1.00
C647   C     0.56944   0.44664   0.52821   0.00000  Uiso   1.00
C648   C     0.62741   0.45518   0.54041   0.00000  Uiso   1.00
C649   C     0.71367   0.47653   0.56924   0.00000  Uiso   1.00
C650   C     0.19415   0.79023   0.79279   0.00000  Uiso   1.00
C651   C     0.17861   0.83801   0.78400   0.00000  Uiso   1.00
C652   C     0.87695   0.20642   0.09408   0.00000  Uiso   1.00
C653   C     0.91469   0.27669   0.05751   0.00000  Uiso   1.00
C654   C     0.13409   0.67406   0.80781   0.00000  Uiso   1.00
C655   C     0.06803   0.62417   0.81165   0.00000  Uiso   1.00
C656   C     0.04914   0.56144   0.80103   0.00000  Uiso   1.00
C657   C     0.99362   0.45134   0.78779   0.00000  Uiso   1.00
C658   C     0.24927   0.72349   0.79201   0.00000  Uiso   1.00
C659   C     0.60428   0.41304   0.48762   0.00000  Uiso   1.00
C660   C     0.66225   0.42155   0.49978   0.00000  Uiso   1.00
C661   C     0.67306   0.44284   0.52643   0.00000  Uiso   1.00
C662   C     0.23972   0.77791   0.77883   0.00000  Uiso   1.00
C663   C     0.27142   0.81292   0.75558   0.00000  Uiso   1.00
C664   C     0.92260   0.19408   0.08010   0.00000  Uiso   1.00
C665   C     0.17966   0.66174   0.79385   0.00000  Uiso   1.00
C666   C     0.16085   0.59908   0.78323   0.00000  Uiso   1.00
C667   C     0.09479   0.54910   0.78705   0.00000  Uiso   1.00
H668   H     0.12990   0.75576   0.82857   0.00000  Uiso   1.00
H669   H     0.53416   0.45617   0.53900   0.00000  Uiso   1.00
H670   H     0.14334   0.84753   0.79481   0.00000  Uiso   1.00
H671   H     0.03279   0.63372   0.82245   0.00000  Uiso   1.00
H672   H     0.63291   0.48818   0.58136   0.00000  Uiso   1.00
H673   H     0.84500   0.27717   0.08456   0.00000  Uiso   1.00
H674   H     0.94521   0.49297   0.80952   0.00000  Uiso   1.00
H675   H     0.61808   0.38057   0.44781   0.00000  Uiso   1.00
H676   H     0.69750   0.41201   0.48898   0.00000  Uiso   1.00
H677   H     0.64001   0.47004   0.41145   0.00000  Uiso   1.00
H678   H     0.19613   0.58956   0.77243   0.00000  Uiso   1.00
H679   H     0.76548   0.45234   0.54076   0.00000  Uiso   1.00
H680   H     0.97757   0.24133   0.04396   0.00000  Uiso   1.00
H681   H     0.07779   0.45714   0.76892   0.00000  Uiso   1.00
O682   O     0.74866   0.49172   0.58900   0.00000  Uiso   1.00
O683   O     0.92292   0.31887   0.04119   0.00000  Uiso   1.00
O684   O     0.95041   0.39401   0.78434   0.00000  Uiso   1.00
N685   N     0.65320   0.47541   0.56616   0.00000  Uiso   1.00
N686   N     0.87319   0.25646   0.07999   0.00000  Uiso   1.00
N687   N     0.98857   0.50161   0.80115   0.00000  Uiso   1.00
N688   N     0.72454   0.45613   0.54431   0.00000  Uiso   1.00
N689   N     0.94453   0.23717   0.05815   0.00000  Uiso   1.00
N690   N     0.05991   0.48233   0.77931   0.00000  Uiso   1.00
C691   C     0.49071   0.58143   0.56208   0.00000  Uiso   1.00
C692   C     0.10571   0.89365   0.87288   0.00000  Uiso   1.00
C693   C     0.09475   0.84730   0.85282   0.00000  Uiso   1.00
C694   C     0.04516   0.83487   0.83405   0.00000  Uiso   1.00
C695   C     0.97059   0.79707   0.79887   0.00000  Uiso   1.00
C696   C     0.11844   0.90132   0.92172   0.00000  Uiso   1.00
C697   C     0.45153   0.52809   0.60939   0.00000  Uiso   1.00
C698   C     0.07933   0.85547   0.96507   0.00000  Uiso   1.00
C699   C     0.02456   0.82962   0.00572   0.00000  Uiso   1.00
C700   C     0.20096   0.99069   0.89327   0.00000  Uiso   1.00
C701   C     0.27011   0.02594   0.89036   0.00000  Uiso   1.00
C702   C     0.30072   0.09523   0.88876   0.00000  Uiso   1.00
C703   C     0.37408   0.20813   0.88523   0.00000  Uiso   1.00
C704   C     0.08880   0.97513   0.89776   0.00000  Uiso   1.00
C705   C     0.06846   0.92644   0.87415   0.00000  Uiso   1.00
C706   C     0.01888   0.91408   0.85541   0.00000  Uiso   1.00
C707   C     0.00785   0.86772   0.83533   0.00000  Uiso   1.00
C708   C     0.08119   0.93411   0.92299   0.00000  Uiso   1.00
C709   C     0.04232   0.92821   0.94532   0.00000  Uiso   1.00
C710   C     0.04201   0.88832   0.96635   0.00000  Uiso   1.00
C711   C     0.16372   0.02348   0.89454   0.00000  Uiso   1.00
C712   C     0.19423   0.09273   0.89295   0.00000  Uiso   1.00
C713   C     0.26340   0.12807   0.89004   0.00000  Uiso   1.00
H714   H     0.51970   0.55591   0.56109   0.00000  Uiso   1.00
H715   H     0.12358   0.82193   0.85184   0.00000  Uiso   1.00
H716   H     0.48036   0.50273   0.60840   0.00000  Uiso   1.00
H717   H     0.29891   0.00055   0.88937   0.00000  Uiso   1.00
H718   H     0.03753   0.76174   0.80519   0.00000  Uiso   1.00
H719   H     0.42032   0.45824   0.66140   0.00000  Uiso   1.00
H720   H     0.40726   0.13842   0.88433   0.00000  Uiso   1.00
H721   H     0.72646   0.33399   0.23209   0.00000  Uiso   1.00
H722   H     0.99006   0.93946   0.85641   0.00000  Uiso   1.00
H723   H     0.01351   0.95360   0.94630   0.00000  Uiso   1.00
H724   H     0.16539   0.11808   0.89394   0.00000  Uiso   1.00
H725   H     0.92916   0.85713   0.80890   0.00000  Uiso   1.00
H726   H     0.97862   0.88696   0.99845   0.00000  Uiso   1.00
H727   H     0.29889   0.23381   0.88804   0.00000  Uiso   1.00
O728   O     0.93974   0.76715   0.77911   0.00000  Uiso   1.00
O729   O     0.00464   0.80630   0.02779   0.00000  Uiso   1.00
O730   O     0.42483   0.26135   0.88293   0.00000  Uiso   1.00
N731   N     0.02160   0.79260   0.81187   0.00000  Uiso   1.00
N732   N     0.40117   0.48715   0.65575   0.00000  Uiso   1.00
N733   N     0.36727   0.14476   0.88587   0.00000  Uiso   1.00
N734   N     0.96329   0.84393   0.81387   0.00000  Uiso   1.00
N735   N     0.00952   0.87181   0.99108   0.00000  Uiso   1.00
N736   N     0.30895   0.19609   0.88786   0.00000  Uiso   1.00
C737   C     0.83204   0.07950   0.15104   0.00000  Uiso   1.00
C738   C     0.22538   0.75869   0.83491   0.00000  Uiso   1.00
C739   C     0.23610   0.77997   0.86154   0.00000  Uiso   1.00
C740   C     0.29407   0.78851   0.87374   0.00000  Uiso   1.00
C741   C     0.38033   0.80986   0.90257   0.00000  Uiso   1.00
C742   C     0.86082   0.12356   0.12612   0.00000  Uiso   1.00
C743   C     0.84527   0.17134   0.11734   0.00000  Uiso   1.00
C744   C     0.54362   0.53976   0.42741   0.00000  Uiso   1.00
C745   C     0.58135   0.61003   0.39084   0.00000  Uiso   1.00
C746   C     0.80076   0.00739   0.14114   0.00000  Uiso   1.00
C747   C     0.73470   0.95750   0.14498   0.00000  Uiso   1.00
C748   C     0.71580   0.89477   0.13437   0.00000  Uiso   1.00
C749   C     0.66028   0.78468   0.12112   0.00000  Uiso   1.00
C750   C     0.91593   0.05683   0.12534   0.00000  Uiso   1.00
C751   C     0.27095   0.74638   0.82095   0.00000  Uiso   1.00
C752   C     0.32892   0.75488   0.83312   0.00000  Uiso   1.00
C753   C     0.33972   0.77617   0.85976   0.00000  Uiso   1.00
C754   C     0.90639   0.11124   0.11217   0.00000  Uiso   1.00
C755   C     0.93809   0.14625   0.08891   0.00000  Uiso   1.00
C756   C     0.58927   0.52742   0.41343   0.00000  Uiso   1.00
C757   C     0.84632   0.99507   0.12719   0.00000  Uiso   1.00
C758   C     0.82752   0.93241   0.11656   0.00000  Uiso   1.00
C759   C     0.76145   0.88243   0.12039   0.00000  Uiso   1.00
H760   H     0.79657   0.08910   0.16190   0.00000  Uiso   1.00
H761   H     0.20083   0.78951   0.87233   0.00000  Uiso   1.00
H762   H     0.81001   0.18086   0.12814   0.00000  Uiso   1.00
H763   H     0.69945   0.96705   0.15578   0.00000  Uiso   1.00
H764   H     0.29957   0.82151   0.91470   0.00000  Uiso   1.00
H765   H     0.51167   0.61050   0.41789   0.00000  Uiso   1.00
H766   H     0.61188   0.82631   0.14285   0.00000  Uiso   1.00
H767   H     0.28475   0.71390   0.78115   0.00000  Uiso   1.00
H768   H     0.36417   0.74535   0.82231   0.00000  Uiso   1.00
H769   H     0.30668   0.80337   0.74478   0.00000  Uiso   1.00
H770   H     0.86280   0.92290   0.10576   0.00000  Uiso   1.00
H771   H     0.43215   0.78567   0.87410   0.00000  Uiso   1.00
H772   H     0.64424   0.57467   0.37729   0.00000  Uiso   1.00
H773   H     0.74445   0.79047   0.10225   0.00000  Uiso   1.00
O774   O     0.41533   0.82505   0.92233   0.00000  Uiso   1.00
O775   O     0.58959   0.65220   0.37452   0.00000  Uiso   1.00
O776   O     0.61707   0.72735   0.11767   0.00000  Uiso   1.00
N777   N     0.31987   0.80875   0.89949   0.00000  Uiso   1.00
N778   N     0.53986   0.58979   0.41333   0.00000  Uiso   1.00
N779   N     0.65524   0.83494   0.13449   0.00000  Uiso   1.00
N780   N     0.39121   0.78946   0.87765   0.00000  Uiso   1.00
N781   N     0.61119   0.57051   0.39148   0.00000  Uiso   1.00
N782   N     0.72657   0.81566   0.11264   0.00000  Uiso   1.00
C783   C     0.15737   0.91477   0.89542   0.00000  Uiso   1.00
C784   C     0.77238   0.22698   0.20621   0.00000  Uiso   1.00
C785   C     0.76142   0.18063   0.18615   0.00000  Uiso   1.00
C786   C     0.71183   0.16820   0.16738   0.00000  Uiso   1.00
C787   C     0.63726   0.13040   0.13220   0.00000  Uiso   1.00
C788   C     0.78511   0.23466   0.25505   0.00000  Uiso   1.00
C789   C     0.11820   0.86143   0.94272   0.00000  Uiso   1.00
C790   C     0.74600   0.18880   0.29841   0.00000  Uiso   1.00
C791   C     0.69123   0.16295   0.33906   0.00000  Uiso   1.00
C792   C     0.86763   0.32402   0.22660   0.00000  Uiso   1.00
C793   C     0.93677   0.35927   0.22369   0.00000  Uiso   1.00
C794   C     0.96739   0.42856   0.22209   0.00000  Uiso   1.00
C795   C     0.04074   0.54147   0.21857   0.00000  Uiso   1.00
C796   C     0.75546   0.30847   0.23110   0.00000  Uiso   1.00
C797   C     0.73513   0.25977   0.20749   0.00000  Uiso   1.00
C798   C     0.68555   0.24742   0.18875   0.00000  Uiso   1.00
C799   C     0.67452   0.20105   0.16866   0.00000  Uiso   1.00
C800   C     0.74786   0.26744   0.25633   0.00000  Uiso   1.00
C801   C     0.70899   0.26155   0.27865   0.00000  Uiso   1.00
C802   C     0.70868   0.22165   0.29968   0.00000  Uiso   1.00
C803   C     0.83038   0.35681   0.22787   0.00000  Uiso   1.00
C804   C     0.86090   0.42606   0.22629   0.00000  Uiso   1.00
C805   C     0.93007   0.46141   0.22337   0.00000  Uiso   1.00
H806   H     0.18637   0.88924   0.89442   0.00000  Uiso   1.00
H807   H     0.79025   0.15526   0.18517   0.00000  Uiso   1.00
H808   H     0.14703   0.83607   0.94173   0.00000  Uiso   1.00
H809   H     0.96558   0.33388   0.22270   0.00000  Uiso   1.00
H810   H     0.70420   0.09507   0.13852   0.00000  Uiso   1.00
H811   H     0.08698   0.79157   0.99474   0.00000  Uiso   1.00
H812   H     0.07393   0.47175   0.21766   0.00000  Uiso   1.00
H813   H     0.39313   0.66733   0.56543   0.00000  Uiso   1.00
H814   H     0.65673   0.27280   0.18974   0.00000  Uiso   1.00
H815   H     0.68018   0.28693   0.27963   0.00000  Uiso   1.00
H816   H     0.83206   0.45142   0.22727   0.00000  Uiso   1.00
H817   H     0.59583   0.19047   0.14223   0.00000  Uiso   1.00
H818   H     0.64528   0.22030   0.33178   0.00000  Uiso   1.00
H819   H     0.96556   0.56715   0.22137   0.00000  Uiso   1.00
O820   O     0.60641   0.10048   0.11244   0.00000  Uiso   1.00
O821   O     0.67130   0.13963   0.36112   0.00000  Uiso   1.00
O822   O     0.09149   0.59469   0.21627   0.00000  Uiso   1.00
N823   N     0.68827   0.12593   0.14520   0.00000  Uiso   1.00
N824   N     0.06783   0.82048   0.98908   0.00000  Uiso   1.00
N825   N     0.03393   0.47809   0.21920   0.00000  Uiso   1.00
N826   N     0.62996   0.17726   0.14720   0.00000  Uiso   1.00
N827   N     0.67619   0.20514   0.32441   0.00000  Uiso   1.00
N828   N     0.97562   0.52942   0.22120   0.00000  Uiso   1.00
C829   C     0.91413   0.41284   0.98437   0.00000  Uiso   1.00
C830   C     0.19998   0.09203   0.66824   0.00000  Uiso   1.00
C831   C     0.21054   0.11331   0.69487   0.00000  Uiso   1.00
C832   C     0.16111   0.12185   0.70707   0.00000  Uiso   1.00
C833   C     0.09620   0.14320   0.73591   0.00000  Uiso   1.00
C834   C     0.92941   0.45689   0.95945   0.00000  Uiso   1.00
C835   C     0.99274   0.50468   0.95067   0.00000  Uiso   1.00
C836   C     0.66280   0.87309   0.26075   0.00000  Uiso   1.00
C837   C     0.69534   0.94336   0.22417   0.00000  Uiso   1.00
C838   C     0.87330   0.34072   0.97448   0.00000  Uiso   1.00
C839   C     0.88947   0.29083   0.97832   0.00000  Uiso   1.00
C840   C     0.84564   0.22811   0.96770   0.00000  Uiso   1.00
C841   C     0.79106   0.11801   0.95445   0.00000  Uiso   1.00
C842   C     0.80756   0.39016   0.95868   0.00000  Uiso   1.00
C843   C     0.14209   0.07971   0.65428   0.00000  Uiso   1.00
C844   C     0.09263   0.08822   0.66645   0.00000  Uiso   1.00
C845   C     0.10312   0.10950   0.69310   0.00000  Uiso   1.00
C846   C     0.87153   0.44458   0.94550   0.00000  Uiso   1.00
C847   C     0.87483   0.47959   0.92225   0.00000  Uiso   1.00
C848   C     0.60482   0.86075   0.24676   0.00000  Uiso   1.00
C849   C     0.81542   0.32840   0.96052   0.00000  Uiso   1.00
C850   C     0.77156   0.26574   0.94989   0.00000  Uiso   1.00
C851   C     0.78765   0.21577   0.95372   0.00000  Uiso   1.00
H852   H     0.95919   0.42243   0.99523   0.00000  Uiso   1.00
H853   H     0.25534   0.12284   0.70567   0.00000  Uiso   1.00
H854   H     0.03752   0.51419   0.96147   0.00000  Uiso   1.00
H855   H     0.93426   0.30038   0.98912   0.00000  Uiso   1.00
H856   H     0.18860   0.15484   0.74803   0.00000  Uiso   1.00
H857   H     0.76550   0.94384   0.25123   0.00000  Uiso   1.00
H858   H     0.88110   0.15964   0.97618   0.00000  Uiso   1.00
H859   H     0.09582   0.04724   0.61448   0.00000  Uiso   1.00
H860   H     0.04784   0.07868   0.65564   0.00000  Uiso   1.00
H861   H     0.16336   0.13671   0.57812   0.00000  Uiso   1.00
H862   H     0.72677   0.25623   0.93910   0.00000  Uiso   1.00
H863   H     0.02019   0.11901   0.70743   0.00000  Uiso   1.00
H864   H     0.59709   0.90800   0.21062   0.00000  Uiso   1.00
H865   H     0.71268   0.12380   0.93558   0.00000  Uiso   1.00
O866   O     0.07639   0.15839   0.75566   0.00000  Uiso   1.00
O867   O     0.72928   0.98553   0.20786   0.00000  Uiso   1.00
O868   O     0.77694   0.06068   0.95100   0.00000  Uiso   1.00
N869   N     0.15554   0.14208   0.73283   0.00000  Uiso   1.00
N870   N     0.71660   0.92312   0.24666   0.00000  Uiso   1.00
N871   N     0.84637   0.16828   0.96782   0.00000  Uiso   1.00
N872   N     0.06492   0.12279   0.71098   0.00000  Uiso   1.00
N873   N     0.62598   0.90384   0.22481   0.00000  Uiso   1.00
N874   N     0.75575   0.14899   0.94597   0.00000  Uiso   1.00
C875   C     0.42406   0.24810   0.72875   0.00000  Uiso   1.00
C876   C     0.12127   0.56032   0.03954   0.00000  Uiso   1.00
C877   C     0.08588   0.51396   0.01948   0.00000  Uiso   1.00
C878   C     0.12304   0.50154   0.00072   0.00000  Uiso   1.00
C879   C     0.15981   0.46373   0.96553   0.00000  Uiso   1.00
C880   C     0.11622   0.56799   0.08838   0.00000  Uiso   1.00
C881   C     0.40990   0.19476   0.77605   0.00000  Uiso   1.00
C882   C     0.10948   0.52214   0.13174   0.00000  Uiso   1.00
C883   C     0.13839   0.49629   0.17239   0.00000  Uiso   1.00
C884   C     0.12306   0.65736   0.05993   0.00000  Uiso   1.00
C885   C     0.08917   0.69261   0.05702   0.00000  Uiso   1.00
C886   C     0.12784   0.76189   0.05543   0.00000  Uiso   1.00
C887   C     0.16739   0.87480   0.05190   0.00000  Uiso   1.00
C888   C     0.21967   0.64180   0.06443   0.00000  Uiso   1.00
C889   C     0.19131   0.59311   0.04082   0.00000  Uiso   1.00
C890   C     0.22854   0.58075   0.02208   0.00000  Uiso   1.00
C891   C     0.19320   0.53438   0.00199   0.00000  Uiso   1.00
C892   C     0.18625   0.60078   0.08966   0.00000  Uiso   1.00
C893   C     0.21922   0.59488   0.11199   0.00000  Uiso   1.00
C894   C     0.17964   0.55498   0.13302   0.00000  Uiso   1.00
C895   C     0.19310   0.69015   0.06121   0.00000  Uiso   1.00
C896   C     0.23183   0.75939   0.05962   0.00000  Uiso   1.00
C897   C     0.19800   0.79474   0.05670   0.00000  Uiso   1.00
H898   H     0.36954   0.22257   0.72776   0.00000  Uiso   1.00
H899   H     0.03168   0.48859   0.01850   0.00000  Uiso   1.00
H900   H     0.35570   0.16940   0.77506   0.00000  Uiso   1.00
H901   H     0.03497   0.66722   0.05604   0.00000  Uiso   1.00
H902   H     0.05754   0.42841   0.97186   0.00000  Uiso   1.00
H903   H     0.37125   0.12490   0.82807   0.00000  Uiso   1.00
H904   H     0.06449   0.80509   0.05099   0.00000  Uiso   1.00
H905   H     0.94086   0.00066   0.39876   0.00000  Uiso   1.00
H906   H     0.28273   0.60613   0.02307   0.00000  Uiso   1.00
H907   H     0.27342   0.62026   0.11297   0.00000  Uiso   1.00
H908   H     0.28603   0.78475   0.06061   0.00000  Uiso   1.00
H909   H     0.26131   0.52380   0.97556   0.00000  Uiso   1.00
H910   H     0.24168   0.55363   0.16511   0.00000  Uiso   1.00
H911   H     0.26826   0.90048   0.05470   0.00000  Uiso   1.00
O912   O     0.16074   0.43382   0.94578   0.00000  Uiso   1.00
O913   O     0.13499   0.47296   0.19446   0.00000  Uiso   1.00
O914   O     0.16986   0.92802   0.04960   0.00000  Uiso   1.00
N915   N     0.10433   0.45927   0.97854   0.00000  Uiso   1.00
N916   N     0.41931   0.15381   0.82242   0.00000  Uiso   1.00
N917   N     0.11082   0.81142   0.05253   0.00000  Uiso   1.00
N918   N     0.21397   0.51060   0.98053   0.00000  Uiso   1.00
N919   N     0.19562   0.53848   0.15775   0.00000  Uiso   1.00
N920   N     0.22047   0.86275   0.05453   0.00000  Uiso   1.00
C921   C     0.58079   0.74617   0.31770   0.00000  Uiso   1.00
C922   C     0.86664   0.42536   0.00157   0.00000  Uiso   1.00
C923   C     0.87720   0.44664   0.02821   0.00000  Uiso   1.00
C924   C     0.82777   0.45518   0.04041   0.00000  Uiso   1.00
C925   C     0.76287   0.47653   0.06924   0.00000  Uiso   1.00
C926   C     0.59607   0.79023   0.29279   0.00000  Uiso   1.00
C927   C     0.65940   0.83801   0.28400   0.00000  Uiso   1.00
C928   C     0.32947   0.20642   0.59408   0.00000  Uiso   1.00
C929   C     0.36201   0.27669   0.55751   0.00000  Uiso   1.00
C930   C     0.53997   0.67406   0.30781   0.00000  Uiso   1.00
C931   C     0.55613   0.62417   0.31165   0.00000  Uiso   1.00
C932   C     0.51230   0.56144   0.30103   0.00000  Uiso   1.00
C933   C     0.45773   0.45134   0.28779   0.00000  Uiso   1.00
C934   C     0.47422   0.72349   0.29201   0.00000  Uiso   1.00
C935   C     0.80876   0.41304   0.98762   0.00000  Uiso   1.00
C936   C     0.75930   0.42155   0.99978   0.00000  Uiso   1.00
C937   C     0.76978   0.44284   0.02643   0.00000  Uiso   1.00
C938   C     0.53819   0.77791   0.27883   0.00000  Uiso   1.00
C939   C     0.54150   0.81292   0.25558   0.00000  Uiso   1.00
C940   C     0.27148   0.19408   0.58010   0.00000  Uiso   1.00
C941   C     0.48208   0.66174   0.29385   0.00000  Uiso   1.00
C942   C     0.43822   0.59908   0.28323   0.00000  Uiso   1.00
C943   C     0.45431   0.54910   0.28705   0.00000  Uiso   1.00
H944   H     0.62586   0.75576   0.32857   0.00000  Uiso   1.00
H945   H     0.92201   0.45617   0.03900   0.00000  Uiso   1.00
H946   H     0.70419   0.84753   0.29481   0.00000  Uiso   1.00
H947   H     0.60093   0.63372   0.32245   0.00000  Uiso   1.00
H948   H     0.85527   0.48818   0.08136   0.00000  Uiso   1.00
H949   H     0.43217   0.27717   0.58456   0.00000  Uiso   1.00
H950   H     0.54776   0.49297   0.30952   0.00000  Uiso   1.00
H951   H     0.76249   0.38057   0.94781   0.00000  Uiso   1.00
H952   H     0.71451   0.41201   0.98898   0.00000  Uiso   1.00
H953   H     0.83003   0.47004   0.91145   0.00000  Uiso   1.00
H954   H     0.39343   0.58956   0.27243   0.00000  Uiso   1.00
H955   H     0.68686   0.45234   0.04076   0.00000  Uiso   1.00
H956   H     0.26376   0.24133   0.54396   0.00000  Uiso   1.00
H957   H     0.37935   0.45714   0.26892   0.00000  Uiso   1.00
O958   O     0.74306   0.49172   0.08900   0.00000  Uiso   1.00
O959   O     0.39595   0.31887   0.54119   0.00000  Uiso   1.00
O960   O     0.44361   0.39401   0.28434   0.00000  Uiso   1.00
N961   N     0.82221   0.47541   0.06616   0.00000  Uiso   1.00
N962   N     0.38327   0.25646   0.57999   0.00000  Uiso   1.00
N963   N     0.51304   0.50161   0.30115   0.00000  Uiso   1.00
N964   N     0.73159   0.45613   0.04431   0.00000  Uiso   1.00
N965   N     0.29264   0.23717   0.55815   0.00000  Uiso   1.00
N966   N     0.42242   0.48233   0.27931   0.00000  Uiso   1.00
C967   C     0.09073   0.58143   0.06208   0.00000  Uiso   1.00
C968   C     0.78794   0.89365   0.37288   0.00000  Uiso   1.00
C969   C     0.75254   0.84730   0.35282   0.00000  Uiso   1.00
C970   C     0.78971   0.83487   0.33405   0.00000  Uiso   1.00
C971   C     0.82648   0.79707   0.29887   0.00000  Uiso   1.00
C972   C     0.78288   0.90132   0.42172   0.00000  Uiso   1.00
C973   C     0.07657   0.52809   0.10939   0.00000  Uiso   1.00
C974   C     0.77614   0.85547   0.46507   0.00000  Uiso   1.00
C975   C     0.80506   0.82962   0.50572   0.00000  Uiso   1.00
C976   C     0.78973   0.99069   0.39327   0.00000  Uiso   1.00
C977   C     0.75584   0.02594   0.39036   0.00000  Uiso   1.00
C978   C     0.79451   0.09523   0.38876   0.00000  Uiso   1.00
C979   C     0.83406   0.20813   0.38523   0.00000  Uiso   1.00
C980   C     0.88634   0.97513   0.39776   0.00000  Uiso   1.00
C981   C     0.85798   0.92644   0.37415   0.00000  Uiso   1.00
C982   C     0.89520   0.91408   0.35541   0.00000  Uiso   1.00
C983   C     0.85987   0.86772   0.33533   0.00000  Uiso   1.00
C984   C     0.85292   0.93411   0.42299   0.00000  Uiso   1.00
C985   C     0.88589   0.92821   0.44532   0.00000  Uiso   1.00
C986   C     0.84630   0.88832   0.46635   0.00000  Uiso   1.00
C987   C     0.85976   0.02348   0.39454   0.00000  Uiso   1.00
C988   C     0.89850   0.09273   0.39295   0.00000  Uiso   1.00
C989   C     0.86467   0.12807   0.39004   0.00000  Uiso   1.00
H990   H     0.03620   0.55591   0.06109   0.00000  Uiso   1.00
H991   H     0.69834   0.82193   0.35184   0.00000  Uiso   1.00
H992   H     0.02237   0.50273   0.10840   0.00000  Uiso   1.00
H993   H     0.70164   0.00055   0.38937   0.00000  Uiso   1.00
H994   H     0.72421   0.76174   0.30519   0.00000  Uiso   1.00
H995   H     0.03792   0.45824   0.16140   0.00000  Uiso   1.00
H996   H     0.73116   0.13842   0.38433   0.00000  Uiso   1.00
H997   H     0.60753   0.33399   0.73209   0.00000  Uiso   1.00
H998   H     0.94940   0.93946   0.35641   0.00000  Uiso   1.00
H999   H     0.94009   0.95360   0.44630   0.00000  Uiso   1.00
H1000  H     0.95269   0.11808   0.39394   0.00000  Uiso   1.00
H1001  H     0.92797   0.85713   0.30890   0.00000  Uiso   1.00
H1002  H     0.90835   0.88696   0.49845   0.00000  Uiso   1.00
H1003  H     0.93492   0.23381   0.38804   0.00000  Uiso   1.00
O1004  O     0.82741   0.76715   0.27911   0.00000  Uiso   1.00
O1005  O     0.80166   0.80630   0.52779   0.00000  Uiso   1.00
O1006  O     0.83653   0.26135   0.38293   0.00000  Uiso   1.00
N1007  N     0.77100   0.79260   0.31187   0.00000  Uiso   1.00
N1008  N     0.08598   0.48715   0.15575   0.00000  Uiso   1.00
N1009  N     0.77749   0.14476   0.38587   0.00000  Uiso   1.00
N1010  N     0.88064   0.84393   0.31387   0.00000  Uiso   1.00
N1011  N     0.86229   0.87181   0.49108   0.00000  Uiso   1.00
N1012  N     0.88713   0.19609   0.38786   0.00000  Uiso   1.00
C1013  C     0.24746   0.07950   0.65104   0.00000  Uiso   1.00
C1014  C     0.53331   0.75869   0.33491   0.00000  Uiso   1.00
C1015  C     0.54387   0.77997   0.36154   0.00000  Uiso   1.00
C1016  C     0.49444   0.78851   0.37374   0.00000  Uiso   1.00
C1017  C     0.42953   0.80986   0.40257   0.00000  Uiso   1.00
C1018  C     0.26274   0.12356   0.62612   0.00000  Uiso   1.00
C1019  C     0.32607   0.17134   0.61734   0.00000  Uiso   1.00
C1020  C     0.99614   0.53976   0.92741   0.00000  Uiso   1.00
C1021  C     0.02867   0.61003   0.89084   0.00000  Uiso   1.00
C1022  C     0.20663   0.00739   0.64114   0.00000  Uiso   1.00
C1023  C     0.22280   0.95750   0.64498   0.00000  Uiso   1.00
C1024  C     0.17897   0.89477   0.63437   0.00000  Uiso   1.00
C1025  C     0.12439   0.78468   0.62112   0.00000  Uiso   1.00
C1026  C     0.14089   0.05683   0.62534   0.00000  Uiso   1.00
C1027  C     0.47543   0.74638   0.32095   0.00000  Uiso   1.00
C1028  C     0.42596   0.75488   0.33312   0.00000  Uiso   1.00
C1029  C     0.43645   0.77617   0.35976   0.00000  Uiso   1.00
C1030  C     0.20486   0.11124   0.61217   0.00000  Uiso   1.00
C1031  C     0.20816   0.14625   0.58891   0.00000  Uiso   1.00
C1032  C     0.93815   0.52742   0.91343   0.00000  Uiso   1.00
C1033  C     0.14875   0.99507   0.62719   0.00000  Uiso   1.00
C1034  C     0.10489   0.93241   0.61656   0.00000  Uiso   1.00
C1035  C     0.12098   0.88243   0.62039   0.00000  Uiso   1.00
H1036  H     0.29253   0.08910   0.66190   0.00000  Uiso   1.00
H1037  H     0.58868   0.78951   0.37233   0.00000  Uiso   1.00
H1038  H     0.37086   0.18086   0.62814   0.00000  Uiso   1.00
H1039  H     0.26760   0.96705   0.65578   0.00000  Uiso   1.00
H1040  H     0.52194   0.82151   0.41470   0.00000  Uiso   1.00
H1041  H     0.09884   0.61050   0.91789   0.00000  Uiso   1.00
H1042  H     0.21443   0.82631   0.64285   0.00000  Uiso   1.00
H1043  H     0.42916   0.71390   0.28115   0.00000  Uiso   1.00
H1044  H     0.38118   0.74535   0.32231   0.00000  Uiso   1.00
H1045  H     0.49669   0.80337   0.24478   0.00000  Uiso   1.00
H1046  H     0.06010   0.92290   0.60576   0.00000  Uiso   1.00
H1047  H     0.35352   0.78567   0.37410   0.00000  Uiso   1.00
H1048  H     0.93043   0.57467   0.87729   0.00000  Uiso   1.00
H1049  H     0.04602   0.79047   0.60225   0.00000  Uiso   1.00
O1050  O     0.40973   0.82505   0.42233   0.00000  Uiso   1.00
O1051  O     0.06261   0.65220   0.87452   0.00000  Uiso   1.00
O1052  O     0.11027   0.72735   0.61767   0.00000  Uiso   1.00
N1053  N     0.48888   0.80875   0.39949   0.00000  Uiso   1.00
N1054  N     0.04993   0.58979   0.91333   0.00000  Uiso   1.00
N1055  N     0.17971   0.83494   0.63449   0.00000  Uiso   1.00
N1056  N     0.39826   0.78946   0.37765   0.00000  Uiso   1.00
N1057  N     0.95931   0.57051   0.89148   0.00000  Uiso   1.00
N1058  N     0.08908   0.81566   0.61264   0.00000  Uiso   1.00
C1059  C     0.75740   0.91477   0.39542   0.00000  Uiso   1.00
C1060  C     0.45461   0.22698   0.70621   0.00000  Uiso   1.00
C1061  C     0.41921   0.18063   0.68615   0.00000  Uiso   1.00
C1062  C     0.45637   0.16820   0.66738   0.00000  Uiso   1.00
C1063  C     0.49314   0.13040   0.63220   0.00000  Uiso   1.00
C1064  C     0.44955   0.23466   0.75505   0.00000  Uiso   1.00
C1065  C     0.74323   0.86143   0.44272   0.00000  Uiso   1.00
C1066  C     0.44281   0.18880   0.79841   0.00000  Uiso   1.00
C1067  C     0.47173   0.16295   0.83906   0.00000  Uiso   1.00
C1068  C     0.45639   0.32402   0.72660   0.00000  Uiso   1.00
C1069  C     0.42250   0.35927   0.72369   0.00000  Uiso   1.00
C1070  C     0.46118   0.42856   0.72209   0.00000  Uiso   1.00
C1071  C     0.50072   0.54147   0.71857   0.00000  Uiso   1.00
C1072  C     0.55300   0.30847   0.73110   0.00000  Uiso   1.00
C1073  C     0.52464   0.25977   0.70749   0.00000  Uiso   1.00
C1074  C     0.56187   0.24742   0.68875   0.00000  Uiso   1.00
C1075  C     0.52653   0.20105   0.66866   0.00000  Uiso   1.00
C1076  C     0.51958   0.26744   0.75633   0.00000  Uiso   1.00
C1077  C     0.55256   0.26155   0.77865   0.00000  Uiso   1.00
C1078  C     0.51297   0.22165   0.79968   0.00000  Uiso   1.00
C1079  C     0.52643   0.35681   0.72787   0.00000  Uiso   1.00
C1080  C     0.56516   0.42606   0.72629   0.00000  Uiso   1.00
C1081  C     0.53134   0.46141   0.72337   0.00000  Uiso   1.00
H1082  H     0.70287   0.88924   0.39442   0.00000  Uiso   1.00
H1083  H     0.36501   0.15526   0.68517   0.00000  Uiso   1.00
H1084  H     0.68904   0.83607   0.44173   0.00000  Uiso   1.00
H1085  H     0.36831   0.33388   0.72270   0.00000  Uiso   1.00
H1086  H     0.39088   0.09507   0.63852   0.00000  Uiso   1.00
H1087  H     0.70458   0.79157   0.49474   0.00000  Uiso   1.00
H1088  H     0.39782   0.47175   0.71766   0.00000  Uiso   1.00
H1089  H     0.27420   0.66733   0.06543   0.00000  Uiso   1.00
H1090  H     0.61607   0.27280   0.68974   0.00000  Uiso   1.00
H1091  H     0.60676   0.28693   0.77963   0.00000  Uiso   1.00
H1092  H     0.61936   0.45142   0.72727   0.00000  Uiso   1.00
H1093  H     0.59464   0.19047   0.64223   0.00000  Uiso   1.00
H1094  H     0.57501   0.22030   0.83178   0.00000  Uiso   1.00
H1095  H     0.60159   0.56715   0.72137   0.00000  Uiso   1.00
O1096  O     0.49408   0.10048   0.61244   0.00000  Uiso   1.00
O1097  O     0.46833   0.13963   0.86112   0.00000  Uiso   1.00
O1098  O     0.50319   0.59469   0.71627   0.00000  Uiso   1.00
N1099  N     0.43766   0.12593   0.64520   0.00000  Uiso   1.00
N1100  N     0.75265   0.82048   0.48908   0.00000  Uiso   1.00
N1101  N     0.44416   0.47809   0.71920   0.00000  Uiso   1.00
N1102  N     0.54731   0.17726   0.64720   0.00000  Uiso   1.00
N1103  N     0.52896   0.20514   0.82441   0.00000  Uiso   1.00
N1104  N     0.55380   0.52942   0.72120   0.00000  Uiso   1.00
C1105  C     0.49871   0.08587   0.98437   0.00000  Uiso   1.00
C1106  C     0.89205   0.80002   0.66824   0.00000  Uiso   1.00
C1107  C     0.90277   0.78946   0.69487   0.00000  Uiso   1.00
C1108  C     0.96074   0.83889   0.70707   0.00000  Uiso   1.00
C1109  C     0.04700   0.90380   0.73591   0.00000  Uiso   1.00
C1110  C     0.52749   0.07059   0.95945   0.00000  Uiso   1.00
C1111  C     0.51194   0.00726   0.95067   0.00000  Uiso   1.00
C1112  C     0.21029   0.33720   0.26075   0.00000  Uiso   1.00
C1113  C     0.24802   0.30466   0.22417   0.00000  Uiso   1.00
C1114  C     0.46742   0.12670   0.97448   0.00000  Uiso   1.00
C1115  C     0.40137   0.11053   0.97832   0.00000  Uiso   1.00
C1116  C     0.38247   0.15436   0.96770   0.00000  Uiso   1.00
C1117  C     0.32695   0.20894   0.95445   0.00000  Uiso   1.00
C1118  C     0.58260   0.19244   0.95868   0.00000  Uiso   1.00
C1119  C     0.93762   0.85791   0.65428   0.00000  Uiso   1.00
C1120  C     0.99559   0.90737   0.66645   0.00000  Uiso   1.00
C1121  C     0.00639   0.89688   0.69310   0.00000  Uiso   1.00
C1122  C     0.57305   0.12847   0.94550   0.00000  Uiso   1.00
C1123  C     0.60476   0.12517   0.92225   0.00000  Uiso   1.00
C1124  C     0.25593   0.39518   0.24676   0.00000  Uiso   1.00
C1125  C     0.51299   0.18458   0.96052   0.00000  Uiso   1.00
C1126  C     0.49419   0.22844   0.94989   0.00000  Uiso   1.00
C1127  C     0.42812   0.21235   0.95372   0.00000  Uiso   1.00
H1128  H     0.46324   0.04081   0.99523   0.00000  Uiso   1.00
H1129  H     0.86750   0.74466   0.70567   0.00000  Uiso   1.00
H1130  H     0.47667   0.96248   0.96147   0.00000  Uiso   1.00
H1131  H     0.36612   0.06574   0.98912   0.00000  Uiso   1.00
H1132  H     0.96624   0.81140   0.74803   0.00000  Uiso   1.00
H1133  H     0.17833   0.23450   0.25123   0.00000  Uiso   1.00
H1134  H     0.27854   0.11890   0.97618   0.00000  Uiso   1.00
H1135  H     0.95141   0.90418   0.61448   0.00000  Uiso   1.00
H1136  H     0.03084   0.95216   0.65564   0.00000  Uiso   1.00
H1137  H     0.97335   0.83664   0.57812   0.00000  Uiso   1.00
H1138  H     0.52946   0.27323   0.93910   0.00000  Uiso   1.00
H1139  H     0.09882   0.97981   0.70743   0.00000  Uiso   1.00
H1140  H     0.31091   0.40291   0.21062   0.00000  Uiso   1.00
H1141  H     0.41112   0.28732   0.93558   0.00000  Uiso   1.00
O1142  O     0.08199   0.92361   0.75566   0.00000  Uiso   1.00
O1143  O     0.25625   0.27072   0.20786   0.00000  Uiso   1.00
O1144  O     0.28374   0.22306   0.95100   0.00000  Uiso   1.00
N1145  N     0.98653   0.84446   0.73283   0.00000  Uiso   1.00
N1146  N     0.20652   0.28340   0.24666   0.00000  Uiso   1.00
N1147  N     0.32190   0.15363   0.96782   0.00000  Uiso   1.00
N1148  N     0.05787   0.93508   0.71098   0.00000  Uiso   1.00
N1149  N     0.27786   0.37402   0.22481   0.00000  Uiso   1.00
N1150  N     0.39324   0.24425   0.94597   0.00000  Uiso   1.00
C1151  C     0.82404   0.57594   0.72875   0.00000  Uiso   1.00
C1152  C     0.43905   0.87873   0.03954   0.00000  Uiso   1.00
C1153  C     0.42808   0.91412   0.01948   0.00000  Uiso   1.00
C1154  C     0.37850   0.87696   0.00072   0.00000  Uiso   1.00
C1155  C     0.30392   0.84019   0.96553   0.00000  Uiso   1.00
C1156  C     0.45178   0.88378   0.08838   0.00000  Uiso   1.00
C1157  C     0.78486   0.59010   0.77605   0.00000  Uiso   1.00
C1158  C     0.41266   0.89052   0.13174   0.00000  Uiso   1.00
C1159  C     0.35789   0.86161   0.17239   0.00000  Uiso   1.00
C1160  C     0.53430   0.87694   0.05993   0.00000  Uiso   1.00
C1161  C     0.60344   0.91083   0.05702   0.00000  Uiso   1.00
C1162  C     0.63405   0.87216   0.05543   0.00000  Uiso   1.00
C1163  C     0.70741   0.83261   0.05190   0.00000  Uiso   1.00
C1164  C     0.42213   0.78033   0.06443   0.00000  Uiso   1.00
C1165  C     0.40180   0.80869   0.04082   0.00000  Uiso   1.00
C1166  C     0.35221   0.77146   0.02208   0.00000  Uiso   1.00
C1167  C     0.34118   0.80680   0.00199   0.00000  Uiso   1.00
C1168  C     0.41453   0.81375   0.08966   0.00000  Uiso   1.00
C1169  C     0.37566   0.78078   0.11199   0.00000  Uiso   1.00
C1170  C     0.37535   0.82036   0.13302   0.00000  Uiso   1.00
C1171  C     0.49705   0.80690   0.06121   0.00000  Uiso   1.00
C1172  C     0.52756   0.76817   0.05962   0.00000  Uiso   1.00
C1173  C     0.59674   0.80200   0.05670   0.00000  Uiso   1.00
H1174  H     0.85304   0.63046   0.72776   0.00000  Uiso   1.00
H1175  H     0.45692   0.96832   0.01850   0.00000  Uiso   1.00
H1176  H     0.81370   0.64430   0.77506   0.00000  Uiso   1.00
H1177  H     0.63224   0.96503   0.05604   0.00000  Uiso   1.00
H1178  H     0.37086   0.94246   0.97186   0.00000  Uiso   1.00
H1179  H     0.75365   0.62875   0.82807   0.00000  Uiso   1.00
H1180  H     0.74060   0.93551   0.05099   0.00000  Uiso   1.00
H1181  H     0.05980   0.05914   0.39876   0.00000  Uiso   1.00
H1182  H     0.32340   0.71727   0.02307   0.00000  Uiso   1.00
H1183  H     0.34684   0.72658   0.11297   0.00000  Uiso   1.00
H1184  H     0.49872   0.71397   0.06061   0.00000  Uiso   1.00
H1185  H     0.26249   0.73869   0.97556   0.00000  Uiso   1.00
H1186  H     0.31195   0.75832   0.16511   0.00000  Uiso   1.00
H1187  H     0.63222   0.73174   0.05470   0.00000  Uiso   1.00
O1188  O     0.27307   0.83926   0.94578   0.00000  Uiso   1.00
O1189  O     0.33797   0.86501   0.19446   0.00000  Uiso   1.00
O1190  O     0.75816   0.83014   0.04960   0.00000  Uiso   1.00
N1191  N     0.35494   0.89567   0.97854   0.00000  Uiso   1.00
N1192  N     0.73450   0.58069   0.82242   0.00000  Uiso   1.00
N1193  N     0.70060   0.88918   0.05253   0.00000  Uiso   1.00
N1194  N     0.29662   0.78603   0.98053   0.00000  Uiso   1.00
N1195  N     0.34285   0.80438   0.15775   0.00000  Uiso   1.00
N1196  N     0.64229   0.77953   0.05453   0.00000  Uiso   1.00
C1197  C     0.16538   0.41921   0.31770   0.00000  Uiso   1.00
C1198  C     0.55872   0.13336   0.00157   0.00000  Uiso   1.00
C1199  C     0.56944   0.12280   0.02821   0.00000  Uiso   1.00
C1200  C     0.62741   0.17223   0.04041   0.00000  Uiso   1.00
C1201  C     0.71367   0.23713   0.06924   0.00000  Uiso   1.00
C1202  C     0.19415   0.40393   0.29279   0.00000  Uiso   1.00
C1203  C     0.17861   0.34060   0.28400   0.00000  Uiso   1.00
C1204  C     0.87695   0.67053   0.59408   0.00000  Uiso   1.00
C1205  C     0.91469   0.63799   0.55751   0.00000  Uiso   1.00
C1206  C     0.13409   0.46003   0.30781   0.00000  Uiso   1.00
C1207  C     0.06803   0.44387   0.31165   0.00000  Uiso   1.00
C1208  C     0.04914   0.48770   0.30103   0.00000  Uiso   1.00
C1209  C     0.99362   0.54227   0.28779   0.00000  Uiso   1.00
C1210  C     0.24927   0.52578   0.29201   0.00000  Uiso   1.00
C1211  C     0.60428   0.19124   0.98762   0.00000  Uiso   1.00
C1212  C     0.66225   0.24070   0.99978   0.00000  Uiso   1.00
C1213  C     0.67306   0.23022   0.02643   0.00000  Uiso   1.00
C1214  C     0.23972   0.46181   0.27883   0.00000  Uiso   1.00
C1215  C     0.27142   0.45850   0.25558   0.00000  Uiso   1.00
C1216  C     0.92260   0.72852   0.58010   0.00000  Uiso   1.00
C1217  C     0.17966   0.51792   0.29385   0.00000  Uiso   1.00
C1218  C     0.16085   0.56178   0.28323   0.00000  Uiso   1.00
C1219  C     0.09479   0.54569   0.28705   0.00000  Uiso   1.00
H1220  H     0.12990   0.37414   0.32857   0.00000  Uiso   1.00
H1221  H     0.53416   0.07799   0.03900   0.00000  Uiso   1.00
H1222  H     0.14334   0.29581   0.29481   0.00000  Uiso   1.00
H1223  H     0.03279   0.39907   0.32245   0.00000  Uiso   1.00
H1224  H     0.63291   0.14473   0.08136   0.00000  Uiso   1.00
H1225  H     0.84500   0.56783   0.58456   0.00000  Uiso   1.00
H1226  H     0.94521   0.45224   0.30952   0.00000  Uiso   1.00
H1227  H     0.61808   0.23751   0.94781   0.00000  Uiso   1.00
H1228  H     0.69750   0.28549   0.98898   0.00000  Uiso   1.00
H1229  H     0.64001   0.16997   0.91145   0.00000  Uiso   1.00
H1230  H     0.19613   0.60657   0.27243   0.00000  Uiso   1.00
H1231  H     0.76548   0.31314   0.04076   0.00000  Uiso   1.00
H1232  H     0.97757   0.73624   0.54396   0.00000  Uiso   1.00
H1233  H     0.07779   0.62065   0.26892   0.00000  Uiso   1.00
O1234  O     0.74866   0.25694   0.08900   0.00000  Uiso   1.00
O1235  O     0.92292   0.60405   0.54119   0.00000  Uiso   1.00
O1236  O     0.95041   0.55639   0.28434   0.00000  Uiso   1.00
N1237  N     0.65320   0.17779   0.06616   0.00000  Uiso   1.00
N1238  N     0.87319   0.61673   0.57999   0.00000  Uiso   1.00
N1239  N     0.98857   0.48696   0.30115   0.00000  Uiso   1.00
N1240  N     0.72454   0.26841   0.04431   0.00000  Uiso   1.00
N1241  N     0.94453   0.70736   0.55815   0.00000  Uiso   1.00
N1242  N     0.05991   0.57758   0.27931   0.00000  Uiso   1.00
C1243  C     0.49071   0.90927   0.06208   0.00000  Uiso   1.00
C1244  C     0.10571   0.21206   0.37288   0.00000  Uiso   1.00
C1245  C     0.09475   0.24746   0.35282   0.00000  Uiso   1.00
C1246  C     0.04516   0.21029   0.33405   0.00000  Uiso   1.00
C1247  C     0.97059   0.17352   0.29887   0.00000  Uiso   1.00
C1248  C     0.11844   0.21712   0.42172   0.00000  Uiso   1.00
C1249  C     0.45153   0.92343   0.10939   0.00000  Uiso   1.00
C1250  C     0.07933   0.22386   0.46507   0.00000  Uiso   1.00
C1251  C     0.02456   0.19494   0.50572   0.00000  Uiso   1.00
C1252  C     0.20096   0.21027   0.39327   0.00000  Uiso   1.00
C1253  C     0.27011   0.24416   0.39036   0.00000  Uiso   1.00
C1254  C     0.30072   0.20549   0.38876   0.00000  Uiso   1.00
C1255  C     0.37408   0.16594   0.38523   0.00000  Uiso   1.00
C1256  C     0.08880   0.11366   0.39776   0.00000  Uiso   1.00
C1257  C     0.06846   0.14202   0.37415   0.00000  Uiso   1.00
C1258  C     0.01888   0.10480   0.35541   0.00000  Uiso   1.00
C1259  C     0.00785   0.14013   0.33533   0.00000  Uiso   1.00
C1260  C     0.08119   0.14708   0.42299   0.00000  Uiso   1.00
C1261  C     0.04232   0.11411   0.44532   0.00000  Uiso   1.00
C1262  C     0.04201   0.15370   0.46635   0.00000  Uiso   1.00
C1263  C     0.16372   0.14024   0.39454   0.00000  Uiso   1.00
C1264  C     0.19423   0.10150   0.39295   0.00000  Uiso   1.00
C1265  C     0.26340   0.13533   0.39004   0.00000  Uiso   1.00
H1266  H     0.51970   0.96380   0.06109   0.00000  Uiso   1.00
H1267  H     0.12358   0.30166   0.35184   0.00000  Uiso   1.00
H1268  H     0.48036   0.97763   0.10840   0.00000  Uiso   1.00
H1269  H     0.29891   0.29836   0.38937   0.00000  Uiso   1.00
H1270  H     0.03753   0.27579   0.30519   0.00000  Uiso   1.00
H1271  H     0.42032   0.96208   0.16140   0.00000  Uiso   1.00
H1272  H     0.40726   0.26884   0.38433   0.00000  Uiso   1.00
H1273  H     0.72646   0.39247   0.73209   0.00000  Uiso   1.00
H1274  H     0.99006   0.05060   0.35641   0.00000  Uiso   1.00
H1275  H     0.01351   0.05991   0.44630   0.00000  Uiso   1.00
H1276  H     0.16539   0.04731   0.39394   0.00000  Uiso   1.00
H1277  H     0.92916   0.07203   0.30890   0.00000  Uiso   1.00
H1278  H     0.97862   0.09165   0.49845   0.00000  Uiso   1.00
H1279  H     0.29889   0.06508   0.38804   0.00000  Uiso   1.00
O1280  O     0.93974   0.17259   0.27911   0.00000  Uiso   1.00
O1281  O     0.00464   0.19834   0.52779   0.00000  Uiso   1.00
O1282  O     0.42483   0.16347   0.38293   0.00000  Uiso   1.00
N1283  N     0.02160   0.22900   0.31187   0.00000  Uiso   1.00
N1284  N     0.40117   0.91402   0.15575   0.00000  Uiso   1.00
N1285  N     0.36727   0.22251   0.38587   0.00000  Uiso   1.00
N1286  N     0.96329   0.11936   0.31387   0.00000  Uiso   1.00
N1287  N     0.00952   0.13771   0.49108   0.00000  Uiso   1.00
N1288  N     0.30895   0.11287   0.38786   0.00000  Uiso   1.00
C1289  C     0.83204   0.75254   0.65104   0.00000  Uiso   1.00
C1290  C     0.22538   0.46669   0.33491   0.00000  Uiso   1.00
C1291  C     0.23610   0.45613   0.36154   0.00000  Uiso   1.00
C1292  C     0.29407   0.50556   0.37374   0.00000  Uiso   1.00
C1293  C     0.38033   0.57047   0.40257   0.00000  Uiso   1.00
C1294  C     0.86082   0.73726   0.62612   0.00000  Uiso   1.00
C1295  C     0.84527   0.67393   0.61734   0.00000  Uiso   1.00
C1296  C     0.54362   0.00386   0.92741   0.00000  Uiso   1.00
C1297  C     0.58135   0.97133   0.89084   0.00000  Uiso   1.00
C1298  C     0.80076   0.79337   0.64114   0.00000  Uiso   1.00
C1299  C     0.73470   0.77720   0.64498   0.00000  Uiso   1.00
C1300  C     0.71580   0.82103   0.63437   0.00000  Uiso   1.00
C1301  C     0.66028   0.87561   0.62112   0.00000  Uiso   1.00
C1302  C     0.91593   0.85911   0.62534   0.00000  Uiso   1.00
C1303  C     0.27095   0.52457   0.32095   0.00000  Uiso   1.00
C1304  C     0.32892   0.57404   0.33312   0.00000  Uiso   1.00
C1305  C     0.33972   0.56355   0.35976   0.00000  Uiso   1.00
C1306  C     0.90639   0.79514   0.61217   0.00000  Uiso   1.00
C1307  C     0.93809   0.79184   0.58891   0.00000  Uiso   1.00
C1308  C     0.58927   0.06185   0.91343   0.00000  Uiso   1.00
C1309  C     0.84632   0.85125   0.62719   0.00000  Uiso   1.00
C1310  C     0.82752   0.89511   0.61656   0.00000  Uiso   1.00
C1311  C     0.76145   0.87902   0.62039   0.00000  Uiso   1.00
H1312  H     0.79657   0.70747   0.66190   0.00000  Uiso   1.00
H1313  H     0.20083   0.41132   0.37233   0.00000  Uiso   1.00
H1314  H     0.81001   0.62914   0.62814   0.00000  Uiso   1.00
H1315  H     0.69945   0.73240   0.65578   0.00000  Uiso   1.00
H1316  H     0.29957   0.47806   0.41470   0.00000  Uiso   1.00
H1317  H     0.51167   0.90116   0.91789   0.00000  Uiso   1.00
H1318  H     0.61188   0.78557   0.64285   0.00000  Uiso   1.00
H1319  H     0.28475   0.57084   0.28115   0.00000  Uiso   1.00
H1320  H     0.36417   0.61882   0.32231   0.00000  Uiso   1.00
H1321  H     0.30668   0.50331   0.24478   0.00000  Uiso   1.00
H1322  H     0.86280   0.93990   0.60576   0.00000  Uiso   1.00
H1323  H     0.43215   0.64648   0.37410   0.00000  Uiso   1.00
H1324  H     0.64424   0.06957   0.87729   0.00000  Uiso   1.00
H1325  H     0.74445   0.95398   0.60225   0.00000  Uiso   1.00
O1326  O     0.41533   0.59027   0.42233   0.00000  Uiso   1.00
O1327  O     0.58959   0.93739   0.87452   0.00000  Uiso   1.00
O1328  O     0.61707   0.88973   0.61767   0.00000  Uiso   1.00
N1329  N     0.31987   0.51112   0.39949   0.00000  Uiso   1.00
N1330  N     0.53986   0.95007   0.91333   0.00000  Uiso   1.00
N1331  N     0.65524   0.82029   0.63449   0.00000  Uiso   1.00
N1332  N     0.39121   0.60174   0.37765   0.00000  Uiso   1.00
N1333  N     0.61119   0.04069   0.89148   0.00000  Uiso   1.00
N1334  N     0.72657   0.91092   0.61264   0.00000  Uiso   1.00
C1335  C     0.15737   0.24260   0.39542   0.00000  Uiso   1.00
C1336  C     0.77238   0.54539   0.70621   0.00000  Uiso   1.00
C1337  C     0.76142   0.58079   0.68615   0.00000  Uiso   1.00
C1338  C     0.71183   0.54363   0.66738   0.00000  Uiso   1.00
C1339  C     0.63726   0.50686   0.63220   0.00000  Uiso   1.00
C1340  C     0.78511   0.55045   0.75505   0.00000  Uiso   1.00
C1341  C     0.11820   0.25677   0.44272   0.00000  Uiso   1.00
C1342  C     0.74600   0.55719   0.79841   0.00000  Uiso   1.00
C1343  C     0.69123   0.52827   0.83906   0.00000  Uiso   1.00
C1344  C     0.86763   0.54361   0.72660   0.00000  Uiso   1.00
C1345  C     0.93677   0.57750   0.72369   0.00000  Uiso   1.00
C1346  C     0.96739   0.53882   0.72209   0.00000  Uiso   1.00
C1347  C     0.04074   0.49928   0.71857   0.00000  Uiso   1.00
C1348  C     0.75546   0.44700   0.73110   0.00000  Uiso   1.00
C1349  C     0.73513   0.47536   0.70749   0.00000  Uiso   1.00
C1350  C     0.68555   0.43813   0.68875   0.00000  Uiso   1.00
C1351  C     0.67452   0.47347   0.66866   0.00000  Uiso   1.00
C1352  C     0.74786   0.48042   0.75633   0.00000  Uiso   1.00
C1353  C     0.70899   0.44744   0.77865   0.00000  Uiso   1.00
C1354  C     0.70868   0.48703   0.79968   0.00000  Uiso   1.00
C1355  C     0.83038   0.47357   0.72787   0.00000  Uiso   1.00
C1356  C     0.86090   0.43484   0.72629   0.00000  Uiso   1.00
C1357  C     0.93007   0.46866   0.72337   0.00000  Uiso   1.00
H1358  H     0.18637   0.29713   0.39442   0.00000  Uiso   1.00
H1359  H     0.79025   0.63499   0.68517   0.00000  Uiso   1.00
H1360  H     0.14703   0.31096   0.44173   0.00000  Uiso   1.00
H1361  H     0.96558   0.63169   0.72270   0.00000  Uiso   1.00
H1362  H     0.70420   0.60912   0.63852   0.00000  Uiso   1.00
H1363  H     0.08698   0.29542   0.49474   0.00000  Uiso   1.00
H1364  H     0.07393   0.60218   0.71766   0.00000  Uiso   1.00
H1365  H     0.39313   0.72580   0.06543   0.00000  Uiso   1.00
H1366  H     0.65673   0.38393   0.68974   0.00000  Uiso   1.00
H1367  H     0.68018   0.39324   0.77963   0.00000  Uiso   1.00
H1368  H     0.83206   0.38064   0.72727   0.00000  Uiso   1.00
H1369  H     0.59583   0.40536   0.64223   0.00000  Uiso   1.00
H1370  H     0.64528   0.42499   0.83178   0.00000  Uiso   1.00
H1371  H     0.96556   0.39841   0.72137   0.00000  Uiso   1.00
O1372  O     0.60641   0.50592   0.61244   0.00000  Uiso   1.00
O1373  O     0.67130   0.53167   0.86112   0.00000  Uiso   1.00
O1374  O     0.09149   0.49681   0.71627   0.00000  Uiso   1.00
N1375  N     0.68827   0.56234   0.64520   0.00000  Uiso   1.00
N1376  N     0.06783   0.24735   0.48908   0.00000  Uiso   1.00
N1377  N     0.03393   0.55584   0.71920   0.00000  Uiso   1.00
N1378  N     0.62996   0.45269   0.64720   0.00000  Uiso   1.00
N1379  N     0.67619   0.47104   0.82441   0.00000  Uiso   1.00
N1380  N     0.97562   0.44620   0.72120   0.00000  Uiso   1.00
C1381  C     0.58716   0.50129   0.98437   0.00000  Uiso   1.00
C1382  C     0.90797   0.10795   0.66824   0.00000  Uiso   1.00
C1383  C     0.88669   0.09723   0.69487   0.00000  Uiso   1.00
C1384  C     0.87815   0.03926   0.70707   0.00000  Uiso   1.00
C1385  C     0.85680   0.95300   0.73591   0.00000  Uiso   1.00
C1386  C     0.54311   0.47251   0.95945   0.00000  Uiso   1.00
C1387  C     0.49532   0.48806   0.95067   0.00000  Uiso   1.00
C1388  C     0.12691   0.78971   0.26075   0.00000  Uiso   1.00
C1389  C     0.05664   0.75198   0.22417   0.00000  Uiso   1.00
C1390  C     0.65928   0.53258   0.97448   0.00000  Uiso   1.00
C1391  C     0.70917   0.59863   0.97832   0.00000  Uiso   1.00
C1392  C     0.77189   0.61753   0.96770   0.00000  Uiso   1.00
C1393  C     0.88199   0.67305   0.95445   0.00000  Uiso   1.00
C1394  C     0.60984   0.41740   0.95868   0.00000  Uiso   1.00
C1395  C     0.92029   0.06238   0.65428   0.00000  Uiso   1.00
C1396  C     0.91178   0.00441   0.66645   0.00000  Uiso   1.00
C1397  C     0.89050   0.99361   0.69310   0.00000  Uiso   1.00
C1398  C     0.55542   0.42695   0.94550   0.00000  Uiso   1.00
C1399  C     0.52041   0.39524   0.92225   0.00000  Uiso   1.00
C1400  C     0.13925   0.74407   0.24676   0.00000  Uiso   1.00
C1401  C     0.67160   0.48701   0.96052   0.00000  Uiso   1.00
C1402  C     0.73426   0.50581   0.94989   0.00000  Uiso   1.00
C1403  C     0.78423   0.57188   0.95372   0.00000  Uiso   1.00
H1404  H     0.57757   0.53676   0.99523   0.00000  Uiso   1.00
H1405  H     0.87716   0.13250   0.70567   0.00000  Uiso   1.00
H1406  H     0.48581   0.52333   0.96147   0.00000  Uiso   1.00
H1407  H     0.69962   0.63388   0.98912   0.00000  Uiso   1.00
H1408  H     0.84516   0.03376   0.74803   0.00000  Uiso   1.00
H1409  H     0.05616   0.82167   0.25123   0.00000  Uiso   1.00
H1410  H     0.84036   0.72146   0.97618   0.00000  Uiso   1.00
H1411  H     0.95276   0.04859   0.61448   0.00000  Uiso   1.00
H1412  H     0.92132   0.96916   0.65564   0.00000  Uiso   1.00
H1413  H     0.86329   0.02665   0.57812   0.00000  Uiso   1.00
H1414  H     0.74377   0.47054   0.93910   0.00000  Uiso   1.00
H1415  H     0.88099   0.90118   0.70743   0.00000  Uiso   1.00
H1416  H     0.09200   0.68909   0.21062   0.00000  Uiso   1.00
H1417  H     0.87620   0.58888   0.93558   0.00000  Uiso   1.00
O1418  O     0.84161   0.91801   0.75566   0.00000  Uiso   1.00
O1419  O     0.01447   0.74375   0.20786   0.00000  Uiso   1.00
O1420  O     0.93932   0.71626   0.95100   0.00000  Uiso   1.00
N1421  N     0.85792   0.01347   0.73283   0.00000  Uiso   1.00
N1422  N     0.07688   0.79348   0.24666   0.00000  Uiso   1.00
N1423  N     0.83172   0.67810   0.96782   0.00000  Uiso   1.00
N1424  N     0.87721   0.94213   0.71098   0.00000  Uiso   1.00
N1425  N     0.09616   0.72214   0.22481   0.00000  Uiso   1.00
N1426  N     0.85101   0.60676   0.94597   0.00000  Uiso   1.00
C1427  C     0.75190   0.17596   0.72875   0.00000  Uiso   1.00
C1428  C     0.43968   0.56095   0.03954   0.00000  Uiso   1.00
C1429  C     0.48604   0.57192   0.01948   0.00000  Uiso   1.00
C1430  C     0.49846   0.62150   0.00072   0.00000  Uiso   1.00
C1431  C     0.53627   0.69608   0.96553   0.00000  Uiso   1.00
C1432  C     0.43201   0.54822   0.08838   0.00000  Uiso   1.00
C1433  C     0.80524   0.21514   0.77605   0.00000  Uiso   1.00
C1434  C     0.47786   0.58734   0.13174   0.00000  Uiso   1.00
C1435  C     0.50371   0.64211   0.17239   0.00000  Uiso   1.00
C1436  C     0.34264   0.46570   0.05993   0.00000  Uiso   1.00
C1437  C     0.30739   0.39656   0.05702   0.00000  Uiso   1.00
C1438  C     0.23811   0.36595   0.05543   0.00000  Uiso   1.00
C1439  C     0.12520   0.29259   0.05190   0.00000  Uiso   1.00
C1440  C     0.35820   0.57787   0.06443   0.00000  Uiso   1.00
C1441  C     0.40689   0.59820   0.04082   0.00000  Uiso   1.00
C1442  C     0.41925   0.64779   0.02208   0.00000  Uiso   1.00
C1443  C     0.46562   0.65882   0.00199   0.00000  Uiso   1.00
C1444  C     0.39922   0.58547   0.08966   0.00000  Uiso   1.00
C1445  C     0.40512   0.62434   0.11199   0.00000  Uiso   1.00
C1446  C     0.44502   0.62465   0.13302   0.00000  Uiso   1.00
C1447  C     0.30985   0.50295   0.06121   0.00000  Uiso   1.00
C1448  C     0.24061   0.47244   0.05962   0.00000  Uiso   1.00
C1449  C     0.20526   0.40326   0.05670   0.00000  Uiso   1.00
H1450  H     0.77743   0.14696   0.72776   0.00000  Uiso   1.00
H1451  H     0.51141   0.54308   0.01850   0.00000  Uiso   1.00
H1452  H     0.83060   0.18630   0.77506   0.00000  Uiso   1.00
H1453  H     0.33278   0.36776   0.05604   0.00000  Uiso   1.00
H1454  H     0.57159   0.62914   0.97186   0.00000  Uiso   1.00
H1455  H     0.87510   0.24635   0.82807   0.00000  Uiso   1.00
H1456  H     0.19491   0.25940   0.05099   0.00000  Uiso   1.00
H1457  H     0.99934   0.94020   0.39876   0.00000  Uiso   1.00
H1458  H     0.39387   0.67660   0.02307   0.00000  Uiso   1.00
H1459  H     0.37974   0.65316   0.11297   0.00000  Uiso   1.00
H1460  H     0.21525   0.50128   0.06061   0.00000  Uiso   1.00
H1461  H     0.47620   0.73751   0.97556   0.00000  Uiso   1.00
H1462  H     0.44637   0.68805   0.16511   0.00000  Uiso   1.00
H1463  H     0.09952   0.36778   0.05470   0.00000  Uiso   1.00
O1464  O     0.56618   0.72693   0.94578   0.00000  Uiso   1.00
O1465  O     0.52704   0.66203   0.19446   0.00000  Uiso   1.00
O1466  O     0.07198   0.24184   0.04960   0.00000  Uiso   1.00
N1467  N     0.54073   0.64506   0.97854   0.00000  Uiso   1.00
N1468  N     0.84619   0.26550   0.82242   0.00000  Uiso   1.00
N1469  N     0.18858   0.29940   0.05253   0.00000  Uiso   1.00
N1470  N     0.48940   0.70338   0.98053   0.00000  Uiso   1.00
N1471  N     0.46152   0.65715   0.15775   0.00000  Uiso   1.00
N1472  N     0.13725   0.35771   0.05453   0.00000  Uiso   1.00
C1473  C     0.25383   0.83462   0.31770   0.00000  Uiso   1.00
C1474  C     0.57464   0.44128   0.00157   0.00000  Uiso   1.00
C1475  C     0.55336   0.43056   0.02821   0.00000  Uiso   1.00
C1476  C     0.54482   0.37259   0.04041   0.00000  Uiso   1.00
C1477  C     0.52347   0.28633   0.06924   0.00000  Uiso   1.00
C1478  C     0.20977   0.80585   0.29279   0.00000  Uiso   1.00
C1479  C     0.16199   0.82139   0.28400   0.00000  Uiso   1.00
C1480  C     0.79358   0.12305   0.59408   0.00000  Uiso   1.00
C1481  C     0.72331   0.08531   0.55751   0.00000  Uiso   1.00
C1482  C     0.32594   0.86591   0.30781   0.00000  Uiso   1.00
C1483  C     0.37583   0.93197   0.31165   0.00000  Uiso   1.00
C1484  C     0.43856   0.95086   0.30103   0.00000  Uiso   1.00
C1485  C     0.54866   0.00638   0.28779   0.00000  Uiso   1.00
C1486  C     0.27651   0.75073   0.29201   0.00000  Uiso   1.00
C1487  C     0.58696   0.39572   0.98762   0.00000  Uiso   1.00
C1488  C     0.57845   0.33775   0.99978   0.00000  Uiso   1.00
C1489  C     0.55716   0.32694   0.02643   0.00000  Uiso   1.00
C1490  C     0.22209   0.76028   0.27883   0.00000  Uiso   1.00
C1491  C     0.18708   0.72858   0.25558   0.00000  Uiso   1.00
C1492  C     0.80592   0.07740   0.58010   0.00000  Uiso   1.00
C1493  C     0.33826   0.82034   0.29385   0.00000  Uiso   1.00
C1494  C     0.40092   0.83915   0.28323   0.00000  Uiso   1.00
C1495  C     0.45090   0.90521   0.28705   0.00000  Uiso   1.00
H1496  H     0.24424   0.87010   0.32857   0.00000  Uiso   1.00
H1497  H     0.54383   0.46584   0.03900   0.00000  Uiso   1.00
H1498  H     0.15247   0.85666   0.29481   0.00000  Uiso   1.00
H1499  H     0.36628   0.96721   0.32245   0.00000  Uiso   1.00
H1500  H     0.51182   0.36709   0.08136   0.00000  Uiso   1.00
H1501  H     0.72283   0.15500   0.58456   0.00000  Uiso   1.00
H1502  H     0.50703   0.05479   0.30952   0.00000  Uiso   1.00
H1503  H     0.61943   0.38192   0.94781   0.00000  Uiso   1.00
H1504  H     0.58799   0.30250   0.98898   0.00000  Uiso   1.00
H1505  H     0.52996   0.35999   0.91145   0.00000  Uiso   1.00
H1506  H     0.41044   0.80387   0.27243   0.00000  Uiso   1.00
H1507  H     0.54766   0.23452   0.04076   0.00000  Uiso   1.00
H1508  H     0.75867   0.02243   0.54396   0.00000  Uiso   1.00
H1509  H     0.54286   0.92221   0.26892   0.00000  Uiso   1.00
O1510  O     0.50828   0.25134   0.08900   0.00000  Uiso   1.00
O1511  O     0.68113   0.07708   0.54119   0.00000  Uiso   1.00
O1512  O     0.60599   0.04959   0.28434   0.00000  Uiso   1.00
N1513  N     0.52459   0.34680   0.06616   0.00000  Uiso   1.00
N1514  N     0.74354   0.12681   0.57999   0.00000  Uiso   1.00
N1515  N     0.49839   0.01143   0.30115   0.00000  Uiso   1.00
N1516  N     0.54387   0.27546   0.04431   0.00000  Uiso   1.00
N1517  N     0.76283   0.05547   0.55815   0.00000  Uiso   1.00
N1518  N     0.51767   0.94009   0.27931   0.00000  Uiso   1.00
C1519  C     0.41857   0.50929   0.06208   0.00000  Uiso   1.00
C1520  C     0.10635   0.89429   0.37288   0.00000  Uiso   1.00
C1521  C     0.15270   0.90525   0.35282   0.00000  Uiso   1.00
C1522  C     0.16513   0.95484   0.33405   0.00000  Uiso   1.00
C1523  C     0.20293   0.02941   0.29887   0.00000  Uiso   1.00
C1524  C     0.09868   0.88156   0.42172   0.00000  Uiso   1.00
C1525  C     0.47191   0.54847   0.10939   0.00000  Uiso   1.00
C1526  C     0.14453   0.92067   0.46507   0.00000  Uiso   1.00
C1527  C     0.17038   0.97544   0.50572   0.00000  Uiso   1.00
C1528  C     0.00931   0.79904   0.39327   0.00000  Uiso   1.00
C1529  C     0.97406   0.72989   0.39036   0.00000  Uiso   1.00
C1530  C     0.90477   0.69928   0.38876   0.00000  Uiso   1.00
C1531  C     0.79187   0.62592   0.38523   0.00000  Uiso   1.00
C1532  C     0.02487   0.91120   0.39776   0.00000  Uiso   1.00
C1533  C     0.07356   0.93154   0.37415   0.00000  Uiso   1.00
C1534  C     0.08592   0.98112   0.35541   0.00000  Uiso   1.00
C1535  C     0.13228   0.99215   0.33533   0.00000  Uiso   1.00
C1536  C     0.06589   0.91881   0.42299   0.00000  Uiso   1.00
C1537  C     0.07179   0.95768   0.44532   0.00000  Uiso   1.00
C1538  C     0.11168   0.95799   0.46635   0.00000  Uiso   1.00
C1539  C     0.97652   0.83628   0.39454   0.00000  Uiso   1.00
C1540  C     0.90727   0.80577   0.39295   0.00000  Uiso   1.00
C1541  C     0.87193   0.73660   0.39004   0.00000  Uiso   1.00
H1542  H     0.44409   0.48030   0.06109   0.00000  Uiso   1.00
H1543  H     0.17807   0.87642   0.35184   0.00000  Uiso   1.00
H1544  H     0.49727   0.51964   0.10840   0.00000  Uiso   1.00
H1545  H     0.99945   0.70109   0.38937   0.00000  Uiso   1.00
H1546  H     0.23826   0.96247   0.30519   0.00000  Uiso   1.00
H1547  H     0.54176   0.57968   0.16140   0.00000  Uiso   1.00
H1548  H     0.86158   0.59274   0.38433   0.00000  Uiso   1.00
H1549  H     0.66601   0.27354   0.73209   0.00000  Uiso   1.00
H1550  H     0.06054   0.00994   0.35641   0.00000  Uiso   1.00
H1551  H     0.04640   0.98649   0.44630   0.00000  Uiso   1.00
H1552  H     0.88192   0.83461   0.39394   0.00000  Uiso   1.00
H1553  H     0.14287   0.07084   0.30890   0.00000  Uiso   1.00
H1554  H     0.11304   0.02138   0.49845   0.00000  Uiso   1.00
H1555  H     0.76619   0.70111   0.38804   0.00000  Uiso   1.00
O1556  O     0.23285   0.06026   0.27911   0.00000  Uiso   1.00
O1557  O     0.19370   0.99536   0.52779   0.00000  Uiso   1.00
O1558  O     0.73865   0.57517   0.38293   0.00000  Uiso   1.00
N1559  N     0.20740   0.97840   0.31187   0.00000  Uiso   1.00
N1560  N     0.51285   0.59883   0.15575   0.00000  Uiso   1.00
N1561  N     0.85524   0.63273   0.38587   0.00000  Uiso   1.00
N1562  N     0.15607   0.03671   0.31387   0.00000  Uiso   1.00
N1563  N     0.12819   0.99048   0.49108   0.00000  Uiso   1.00
N1564  N     0.80391   0.69105   0.38786   0.00000  Uiso   1.00
C1565  C     0.92050   0.16796   0.65104   0.00000  Uiso   1.00
C1566  C     0.24131   0.77462   0.33491   0.00000  Uiso   1.00
C1567  C     0.22003   0.76390   0.36154   0.00000  Uiso   1.00
C1568  C     0.21149   0.70593   0.37374   0.00000  Uiso   1.00
C1569  C     0.19014   0.61967   0.40257   0.00000  Uiso   1.00
C1570  C     0.87644   0.13918   0.62612   0.00000  Uiso   1.00
C1571  C     0.82866   0.15473   0.61734   0.00000  Uiso   1.00
C1572  C     0.46024   0.45638   0.92741   0.00000  Uiso   1.00
C1573  C     0.38997   0.41865   0.89084   0.00000  Uiso   1.00
C1574  C     0.99261   0.19924   0.64114   0.00000  Uiso   1.00
C1575  C     0.04250   0.26530   0.64498   0.00000  Uiso   1.00
C1576  C     0.10523   0.28420   0.63437   0.00000  Uiso   1.00
C1577  C     0.21532   0.33972   0.62112   0.00000  Uiso   1.00
C1578  C     0.94317   0.08407   0.62534   0.00000  Uiso   1.00
C1579  C     0.25362   0.72905   0.32095   0.00000  Uiso   1.00
C1580  C     0.24512   0.67108   0.33312   0.00000  Uiso   1.00
C1581  C     0.22383   0.66028   0.35976   0.00000  Uiso   1.00
C1582  C     0.88876   0.09361   0.61217   0.00000  Uiso   1.00
C1583  C     0.85375   0.06191   0.58891   0.00000  Uiso   1.00
C1584  C     0.47258   0.41073   0.91343   0.00000  Uiso   1.00
C1585  C     0.00493   0.15368   0.62719   0.00000  Uiso   1.00
C1586  C     0.06759   0.17248   0.61656   0.00000  Uiso   1.00
C1587  C     0.11757   0.23855   0.62039   0.00000  Uiso   1.00
H1588  H     0.91090   0.20343   0.66190   0.00000  Uiso   1.00
H1589  H     0.21049   0.79917   0.37233   0.00000  Uiso   1.00
H1590  H     0.81914   0.18999   0.62814   0.00000  Uiso   1.00
H1591  H     0.03295   0.30055   0.65578   0.00000  Uiso   1.00
H1592  H     0.17849   0.70043   0.41470   0.00000  Uiso   1.00
H1593  H     0.38950   0.48833   0.91789   0.00000  Uiso   1.00
H1594  H     0.17369   0.38812   0.64285   0.00000  Uiso   1.00
H1595  H     0.28610   0.71525   0.28115   0.00000  Uiso   1.00
H1596  H     0.25465   0.63583   0.32231   0.00000  Uiso   1.00
H1597  H     0.19663   0.69332   0.24478   0.00000  Uiso   1.00
H1598  H     0.07710   0.13720   0.60576   0.00000  Uiso   1.00
H1599  H     0.21433   0.56785   0.37410   0.00000  Uiso   1.00
H1600  H     0.42533   0.35576   0.87729   0.00000  Uiso   1.00
H1601  H     0.20953   0.25555   0.60225   0.00000  Uiso   1.00
O1602  O     0.17495   0.58467   0.42233   0.00000  Uiso   1.00
O1603  O     0.34780   0.41041   0.87452   0.00000  Uiso   1.00
O1604  O     0.27265   0.38293   0.61767   0.00000  Uiso   1.00
N1605  N     0.19125   0.68013   0.39949   0.00000  Uiso   1.00
N1606  N     0.41021   0.46014   0.91333   0.00000  Uiso   1.00
N1607  N     0.16506   0.34476   0.63449   0.00000  Uiso   1.00
N1608  N     0.21054   0.60879   0.37765   0.00000  Uiso   1.00
N1609  N     0.42949   0.38881   0.89148   0.00000  Uiso   1.00
N1610  N     0.18434   0.27343   0.61264   0.00000  Uiso   1.00
C1611  C     0.08523   0.84263   0.39542   0.00000  Uiso   1.00
C1612  C     0.77302   0.22762   0.70621   0.00000  Uiso   1.00
C1613  C     0.81937   0.23858   0.68615   0.00000  Uiso   1.00
C1614  C     0.83180   0.28817   0.66738   0.00000  Uiso   1.00
C1615  C     0.86960   0.36274   0.63220   0.00000  Uiso   1.00
C1616  C     0.76534   0.21489   0.75505   0.00000  Uiso   1.00
C1617  C     0.13857   0.88180   0.44272   0.00000  Uiso   1.00
C1618  C     0.81120   0.25400   0.79841   0.00000  Uiso   1.00
C1619  C     0.83705   0.30877   0.83906   0.00000  Uiso   1.00
C1620  C     0.67598   0.13237   0.72660   0.00000  Uiso   1.00
C1621  C     0.64073   0.06323   0.72369   0.00000  Uiso   1.00
C1622  C     0.57144   0.03261   0.72209   0.00000  Uiso   1.00
C1623  C     0.45853   0.95926   0.71857   0.00000  Uiso   1.00
C1624  C     0.69153   0.24454   0.73110   0.00000  Uiso   1.00
C1625  C     0.74023   0.26487   0.70749   0.00000  Uiso   1.00
C1626  C     0.75258   0.31445   0.68875   0.00000  Uiso   1.00
C1627  C     0.79895   0.32548   0.66866   0.00000  Uiso   1.00
C1628  C     0.73256   0.25214   0.75633   0.00000  Uiso   1.00
C1629  C     0.73845   0.29101   0.77865   0.00000  Uiso   1.00
C1630  C     0.77835   0.29132   0.79968   0.00000  Uiso   1.00
C1631  C     0.64319   0.16962   0.72787   0.00000  Uiso   1.00
C1632  C     0.57394   0.13910   0.72629   0.00000  Uiso   1.00
C1633  C     0.53859   0.06993   0.72337   0.00000  Uiso   1.00
H1634  H     0.11076   0.81363   0.39442   0.00000  Uiso   1.00
H1635  H     0.84474   0.20975   0.68517   0.00000  Uiso   1.00
H1636  H     0.16393   0.85297   0.44173   0.00000  Uiso   1.00
H1637  H     0.66612   0.03442   0.72270   0.00000  Uiso   1.00
H1638  H     0.90493   0.29580   0.63852   0.00000  Uiso   1.00
H1639  H     0.20843   0.91302   0.49474   0.00000  Uiso   1.00
H1640  H     0.52825   0.92607   0.71766   0.00000  Uiso   1.00
H1641  H     0.33267   0.60687   0.06543   0.00000  Uiso   1.00
H1642  H     0.72720   0.34327   0.68974   0.00000  Uiso   1.00
H1643  H     0.71307   0.31982   0.77963   0.00000  Uiso   1.00
H1644  H     0.54858   0.16794   0.72727   0.00000  Uiso   1.00
H1645  H     0.80953   0.40417   0.64223   0.00000  Uiso   1.00
H1646  H     0.77970   0.35472   0.83178   0.00000  Uiso   1.00
H1647  H     0.43285   0.03444   0.72137   0.00000  Uiso   1.00
O1648  O     0.89952   0.39359   0.61244   0.00000  Uiso   1.00
O1649  O     0.86037   0.32870   0.86112   0.00000  Uiso   1.00
O1650  O     0.40531   0.90851   0.71627   0.00000  Uiso   1.00
N1651  N     0.87407   0.31173   0.64520   0.00000  Uiso   1.00
N1652  N     0.17952   0.93217   0.48908   0.00000  Uiso   1.00
N1653  N     0.52191   0.96607   0.71920   0.00000  Uiso   1.00
N1654  N     0.82274   0.37004   0.64720   0.00000  Uiso   1.00
N1655  N     0.79486   0.32381   0.82441   0.00000  Uiso   1.00
N1656  N     0.47058   0.02438   0.72120   0.00000  Uiso   1.00
