data_job_05302
_audit_creation_date              2018-12-19
_audit_creation_method            'Materials Studio'
_symmetry_space_group_name_H-M    'P1'
_symmetry_Int_Tables_number       1
_symmetry_cell_setting            triclinic
loop_
_symmetry_equiv_pos_as_xyz
  x,y,z
_cell_length_a                    42.7549
_cell_length_b                    13.7908
_cell_length_c                    29.5650
_cell_angle_alpha                 90.0000
_cell_angle_beta                  90.0000
_cell_angle_gamma                 90.0000
loop_
_atom_site_label
_atom_site_type_symbol
_atom_site_fract_x
_atom_site_fract_y
_atom_site_fract_z
_atom_site_U_iso_or_equiv
_atom_site_adp_type
_atom_site_occupancy
C1     C     0.59286   0.70929   0.92721   0.00000  Uiso   1.00
C2     C     0.62579   0.66879   0.93329   0.00000  Uiso   1.00
C3     C     0.65283   0.72327   0.93856   0.00000  Uiso   1.00
C4     C     0.68067   0.67258   0.94364   0.00000  Uiso   1.00
C5     C     0.73168   0.62514   0.95308   0.00000  Uiso   1.00
C6     C     0.58055   0.66608   0.88320   0.00000  Uiso   1.00
C7     C     0.56956   0.71829   0.84635   0.00000  Uiso   1.00
C8     C     0.55931   0.66531   0.80927   0.00000  Uiso   1.00
C9     C     0.54006   0.61367   0.74096   0.00000  Uiso   1.00
C10    C     0.57318   0.66490   0.96491   0.00000  Uiso   1.00
C11    C     0.55598   0.71612   0.99675   0.00000  Uiso   1.00
C12    C     0.53952   0.66215   0.02846   0.00000  Uiso   1.00
C13    C     0.50883   0.60868   0.08701   0.00000  Uiso   1.00
C14    C     0.59420   0.52238   0.92688   0.00000  Uiso   1.00
C15    C     0.62651   0.56726   0.93311   0.00000  Uiso   1.00
C16    C     0.65431   0.51648   0.93819   0.00000  Uiso   1.00
C17    C     0.68140   0.57088   0.94346   0.00000  Uiso   1.00
C18    C     0.58128   0.56456   0.88302   0.00000  Uiso   1.00
C19    C     0.57104   0.51149   0.84598   0.00000  Uiso   1.00
C20    C     0.56004   0.56361   0.80909   0.00000  Uiso   1.00
C21    C     0.57390   0.56338   0.96473   0.00000  Uiso   1.00
C22    C     0.55746   0.50932   0.99638   0.00000  Uiso   1.00
C23    C     0.54025   0.56044   0.02827   0.00000  Uiso   1.00
H24    H     0.59230   0.78832   0.92735   0.00000  Uiso   1.00
H25    H     0.65226   0.80184   0.93869   0.00000  Uiso   1.00
H26    H     0.56899   0.79685   0.84650   0.00000  Uiso   1.00
H27    H     0.55542   0.79468   0.99688   0.00000  Uiso   1.00
H28    H     0.71906   0.77205   0.95117   0.00000  Uiso   1.00
H29    H     0.54348   0.76154   0.75679   0.00000  Uiso   1.00
H30    H     0.51486   0.75696   0.07390   0.00000  Uiso   1.00
H31    H     0.59477   0.44333   0.92673   0.00000  Uiso   1.00
H32    H     0.65487   0.43791   0.93804   0.00000  Uiso   1.00
H33    H     0.57160   0.43293   0.84585   0.00000  Uiso   1.00
H34    H     0.55803   0.43076   0.99623   0.00000  Uiso   1.00
H35    H     0.72118   0.47667   0.95064   0.00000  Uiso   1.00
H36    H     0.54560   0.46616   0.75626   0.00000  Uiso   1.00
H37    H     0.51698   0.46158   0.07337   0.00000  Uiso   1.00
O38    O     0.75961   0.62702   0.95834   0.00000  Uiso   1.00
O39    O     0.52925   0.61323   0.70333   0.00000  Uiso   1.00
O40    O     0.49170   0.60723   0.11936   0.00000  Uiso   1.00
N41    N     0.71131   0.70328   0.94950   0.00000  Uiso   1.00
N42    N     0.54716   0.69345   0.76777   0.00000  Uiso   1.00
N43    N     0.52039   0.68917   0.06423   0.00000  Uiso   1.00
N44    N     0.71245   0.54434   0.94922   0.00000  Uiso   1.00
N45    N     0.54830   0.53451   0.76748   0.00000  Uiso   1.00
N46    N     0.52153   0.53023   0.06394   0.00000  Uiso   1.00
C47    C     0.59347   0.78193   0.50012   0.00000  Uiso   1.00
C48    C     0.62598   0.82476   0.49300   0.00000  Uiso   1.00
C49    C     0.65322   0.77225   0.48582   0.00000  Uiso   1.00
C50    C     0.68061   0.82490   0.48005   0.00000  Uiso   1.00
C51    C     0.73108   0.87597   0.46881   0.00000  Uiso   1.00
C52    C     0.58190   0.82196   0.54520   0.00000  Uiso   1.00
C53    C     0.57207   0.76709   0.58189   0.00000  Uiso   1.00
C54    C     0.56235   0.81739   0.62007   0.00000  Uiso   1.00
C55    C     0.54435   0.86410   0.68985   0.00000  Uiso   1.00
C56    C     0.57267   0.82714   0.46392   0.00000  Uiso   1.00
C57    C     0.55508   0.77663   0.43228   0.00000  Uiso   1.00
C58    C     0.53758   0.83129   0.40203   0.00000  Uiso   1.00
C59    C     0.50525   0.88605   0.34561   0.00000  Uiso   1.00
C60    C     0.59368   0.96881   0.50267   0.00000  Uiso   1.00
C61    C     0.62609   0.92627   0.49439   0.00000  Uiso   1.00
C62    C     0.65345   0.97901   0.48863   0.00000  Uiso   1.00
C63    C     0.68073   0.92659   0.48144   0.00000  Uiso   1.00
C64    C     0.58201   0.92346   0.54658   0.00000  Uiso   1.00
C65    C     0.57230   0.97385   0.58471   0.00000  Uiso   1.00
C66    C     0.56246   0.91907   0.62146   0.00000  Uiso   1.00
C67    C     0.57278   0.92865   0.46530   0.00000  Uiso   1.00
C68    C     0.55530   0.98339   0.43510   0.00000  Uiso   1.00
C69    C     0.53769   0.93298   0.40342   0.00000  Uiso   1.00
H70    H     0.59339   0.70291   0.49905   0.00000  Uiso   1.00
H71    H     0.65313   0.69370   0.48475   0.00000  Uiso   1.00
H72    H     0.57199   0.68854   0.58081   0.00000  Uiso   1.00
H73    H     0.55500   0.69808   0.43122   0.00000  Uiso   1.00
H74    H     0.71942   0.72826   0.46953   0.00000  Uiso   1.00
H75    H     0.54831   0.71738   0.67207   0.00000  Uiso   1.00
H76    H     0.51249   0.73750   0.35663   0.00000  Uiso   1.00
H77    H     0.59376   0.04784   0.50375   0.00000  Uiso   1.00
H78    H     0.65353   0.05756   0.48971   0.00000  Uiso   1.00
H79    H     0.57238   0.05240   0.58577   0.00000  Uiso   1.00
H80    H     0.55539   0.06194   0.43618   0.00000  Uiso   1.00
H81    H     0.71974   0.02358   0.47355   0.00000  Uiso   1.00
H82    H     0.54863   0.01270   0.67609   0.00000  Uiso   1.00
H83    H     0.51281   0.03282   0.36065   0.00000  Uiso   1.00
O84    O     0.75889   0.87609   0.46223   0.00000  Uiso   1.00
O85    O     0.53440   0.86181   0.72796   0.00000  Uiso   1.00
O86    O     0.48740   0.88821   0.31411   0.00000  Uiso   1.00
N87    N     0.71129   0.79643   0.47239   0.00000  Uiso   1.00
N88    N     0.55132   0.78625   0.66176   0.00000  Uiso   1.00
N89    N     0.51782   0.80506   0.36686   0.00000  Uiso   1.00
N90    N     0.71146   0.95534   0.47456   0.00000  Uiso   1.00
N91    N     0.55149   0.94517   0.66392   0.00000  Uiso   1.00
N92    N     0.51799   0.96397   0.36902   0.00000  Uiso   1.00
C93    C     0.90714   0.29071   0.92721   0.00000  Uiso   1.00
C94    C     0.87421   0.33121   0.93329   0.00000  Uiso   1.00
C95    C     0.84717   0.27673   0.93856   0.00000  Uiso   1.00
C96    C     0.81933   0.32742   0.94364   0.00000  Uiso   1.00
C97    C     0.76832   0.37486   0.95308   0.00000  Uiso   1.00
C98    C     0.91945   0.33392   0.88320   0.00000  Uiso   1.00
C99    C     0.93044   0.28171   0.84635   0.00000  Uiso   1.00
C100   C     0.94069   0.33469   0.80927   0.00000  Uiso   1.00
C101   C     0.95994   0.38633   0.74096   0.00000  Uiso   1.00
C102   C     0.92682   0.33510   0.96491   0.00000  Uiso   1.00
C103   C     0.94402   0.28388   0.99675   0.00000  Uiso   1.00
C104   C     0.96048   0.33785   0.02846   0.00000  Uiso   1.00
C105   C     0.99117   0.39132   0.08701   0.00000  Uiso   1.00
C106   C     0.90580   0.47762   0.92688   0.00000  Uiso   1.00
C107   C     0.87349   0.43274   0.93311   0.00000  Uiso   1.00
C108   C     0.84569   0.48352   0.93819   0.00000  Uiso   1.00
C109   C     0.81860   0.42912   0.94346   0.00000  Uiso   1.00
C110   C     0.91872   0.43544   0.88302   0.00000  Uiso   1.00
C111   C     0.92896   0.48851   0.84598   0.00000  Uiso   1.00
C112   C     0.93996   0.43639   0.80909   0.00000  Uiso   1.00
C113   C     0.92610   0.43662   0.96473   0.00000  Uiso   1.00
C114   C     0.94254   0.49068   0.99638   0.00000  Uiso   1.00
C115   C     0.95975   0.43956   0.02827   0.00000  Uiso   1.00
H116   H     0.90770   0.21168   0.92735   0.00000  Uiso   1.00
H117   H     0.84774   0.19816   0.93869   0.00000  Uiso   1.00
H118   H     0.93101   0.20315   0.84650   0.00000  Uiso   1.00
H119   H     0.94458   0.20532   0.99688   0.00000  Uiso   1.00
H120   H     0.78094   0.22795   0.95117   0.00000  Uiso   1.00
H121   H     0.95652   0.23846   0.75679   0.00000  Uiso   1.00
H122   H     0.98514   0.24304   0.07390   0.00000  Uiso   1.00
H123   H     0.90523   0.55667   0.92673   0.00000  Uiso   1.00
H124   H     0.84513   0.56209   0.93804   0.00000  Uiso   1.00
H125   H     0.92840   0.56707   0.84585   0.00000  Uiso   1.00
H126   H     0.94197   0.56924   0.99623   0.00000  Uiso   1.00
H127   H     0.77882   0.52333   0.95064   0.00000  Uiso   1.00
H128   H     0.95440   0.53384   0.75626   0.00000  Uiso   1.00
H129   H     0.98302   0.53842   0.07337   0.00000  Uiso   1.00
O130   O     0.74039   0.37298   0.95834   0.00000  Uiso   1.00
O131   O     0.97075   0.38677   0.70333   0.00000  Uiso   1.00
O132   O     0.00830   0.39277   0.11936   0.00000  Uiso   1.00
N133   N     0.78869   0.29672   0.94950   0.00000  Uiso   1.00
N134   N     0.95284   0.30655   0.76777   0.00000  Uiso   1.00
N135   N     0.97961   0.31083   0.06423   0.00000  Uiso   1.00
N136   N     0.78755   0.45566   0.94922   0.00000  Uiso   1.00
N137   N     0.95170   0.46549   0.76748   0.00000  Uiso   1.00
N138   N     0.97847   0.46977   0.06394   0.00000  Uiso   1.00
C139   C     0.90653   0.21807   0.50012   0.00000  Uiso   1.00
C140   C     0.87402   0.17524   0.49300   0.00000  Uiso   1.00
C141   C     0.84678   0.22775   0.48582   0.00000  Uiso   1.00
C142   C     0.81939   0.17510   0.48005   0.00000  Uiso   1.00
C143   C     0.76892   0.12403   0.46881   0.00000  Uiso   1.00
C144   C     0.91810   0.17804   0.54520   0.00000  Uiso   1.00
C145   C     0.92793   0.23291   0.58189   0.00000  Uiso   1.00
C146   C     0.93765   0.18261   0.62007   0.00000  Uiso   1.00
C147   C     0.95565   0.13590   0.68985   0.00000  Uiso   1.00
C148   C     0.92733   0.17286   0.46392   0.00000  Uiso   1.00
C149   C     0.94492   0.22337   0.43228   0.00000  Uiso   1.00
C150   C     0.96242   0.16871   0.40203   0.00000  Uiso   1.00
C151   C     0.99475   0.11395   0.34561   0.00000  Uiso   1.00
C152   C     0.90632   0.03119   0.50267   0.00000  Uiso   1.00
C153   C     0.87391   0.07373   0.49439   0.00000  Uiso   1.00
C154   C     0.84655   0.02099   0.48863   0.00000  Uiso   1.00
C155   C     0.81927   0.07341   0.48144   0.00000  Uiso   1.00
C156   C     0.91799   0.07654   0.54658   0.00000  Uiso   1.00
C157   C     0.92770   0.02615   0.58471   0.00000  Uiso   1.00
C158   C     0.93754   0.08093   0.62146   0.00000  Uiso   1.00
C159   C     0.92722   0.07135   0.46530   0.00000  Uiso   1.00
C160   C     0.94470   0.01661   0.43510   0.00000  Uiso   1.00
C161   C     0.96231   0.06702   0.40342   0.00000  Uiso   1.00
H162   H     0.90661   0.29709   0.49905   0.00000  Uiso   1.00
H163   H     0.84687   0.30630   0.48475   0.00000  Uiso   1.00
H164   H     0.92801   0.31146   0.58081   0.00000  Uiso   1.00
H165   H     0.94500   0.30192   0.43122   0.00000  Uiso   1.00
H166   H     0.78058   0.27174   0.46953   0.00000  Uiso   1.00
H167   H     0.95169   0.28262   0.67207   0.00000  Uiso   1.00
H168   H     0.98751   0.26250   0.35663   0.00000  Uiso   1.00
H169   H     0.90624   0.95216   0.50375   0.00000  Uiso   1.00
H170   H     0.84647   0.94244   0.48971   0.00000  Uiso   1.00
H171   H     0.92762   0.94760   0.58577   0.00000  Uiso   1.00
H172   H     0.94461   0.93806   0.43618   0.00000  Uiso   1.00
H173   H     0.78026   0.97642   0.47355   0.00000  Uiso   1.00
H174   H     0.95137   0.98730   0.67609   0.00000  Uiso   1.00
H175   H     0.98719   0.96718   0.36065   0.00000  Uiso   1.00
O176   O     0.74111   0.12391   0.46223   0.00000  Uiso   1.00
O177   O     0.96560   0.13819   0.72796   0.00000  Uiso   1.00
O178   O     0.01260   0.11179   0.31411   0.00000  Uiso   1.00
N179   N     0.78871   0.20357   0.47239   0.00000  Uiso   1.00
N180   N     0.94868   0.21375   0.66176   0.00000  Uiso   1.00
N181   N     0.98218   0.19494   0.36686   0.00000  Uiso   1.00
N182   N     0.78854   0.04466   0.47456   0.00000  Uiso   1.00
N183   N     0.94851   0.05483   0.66392   0.00000  Uiso   1.00
N184   N     0.98201   0.03603   0.36902   0.00000  Uiso   1.00
C185   C     0.40714   0.70929   0.57279   0.00000  Uiso   1.00
C186   C     0.37421   0.66879   0.56671   0.00000  Uiso   1.00
C187   C     0.34717   0.72327   0.56144   0.00000  Uiso   1.00
C188   C     0.31933   0.67258   0.55636   0.00000  Uiso   1.00
C189   C     0.26832   0.62514   0.54692   0.00000  Uiso   1.00
C190   C     0.41945   0.66608   0.61680   0.00000  Uiso   1.00
C191   C     0.43044   0.71829   0.65365   0.00000  Uiso   1.00
C192   C     0.44069   0.66531   0.69073   0.00000  Uiso   1.00
C193   C     0.45994   0.61367   0.75904   0.00000  Uiso   1.00
C194   C     0.42682   0.66490   0.53509   0.00000  Uiso   1.00
C195   C     0.44402   0.71612   0.50325   0.00000  Uiso   1.00
C196   C     0.46048   0.66215   0.47154   0.00000  Uiso   1.00
C197   C     0.49117   0.60868   0.41299   0.00000  Uiso   1.00
C198   C     0.40580   0.52238   0.57312   0.00000  Uiso   1.00
C199   C     0.37349   0.56726   0.56689   0.00000  Uiso   1.00
C200   C     0.34569   0.51648   0.56181   0.00000  Uiso   1.00
C201   C     0.31860   0.57088   0.55654   0.00000  Uiso   1.00
C202   C     0.41872   0.56456   0.61698   0.00000  Uiso   1.00
C203   C     0.42896   0.51149   0.65402   0.00000  Uiso   1.00
C204   C     0.43996   0.56361   0.69091   0.00000  Uiso   1.00
C205   C     0.42610   0.56338   0.53527   0.00000  Uiso   1.00
C206   C     0.44254   0.50932   0.50362   0.00000  Uiso   1.00
C207   C     0.45975   0.56044   0.47173   0.00000  Uiso   1.00
H208   H     0.40770   0.78832   0.57265   0.00000  Uiso   1.00
H209   H     0.34774   0.80184   0.56131   0.00000  Uiso   1.00
H210   H     0.43101   0.79685   0.65350   0.00000  Uiso   1.00
H211   H     0.44458   0.79468   0.50312   0.00000  Uiso   1.00
H212   H     0.28094   0.77205   0.54883   0.00000  Uiso   1.00
H213   H     0.45652   0.76154   0.74321   0.00000  Uiso   1.00
H214   H     0.48514   0.75696   0.42610   0.00000  Uiso   1.00
H215   H     0.40523   0.44333   0.57327   0.00000  Uiso   1.00
H216   H     0.34513   0.43791   0.56196   0.00000  Uiso   1.00
H217   H     0.42840   0.43293   0.65415   0.00000  Uiso   1.00
H218   H     0.44197   0.43076   0.50377   0.00000  Uiso   1.00
H219   H     0.27882   0.47667   0.54936   0.00000  Uiso   1.00
H220   H     0.45440   0.46616   0.74374   0.00000  Uiso   1.00
H221   H     0.48302   0.46158   0.42663   0.00000  Uiso   1.00
O222   O     0.24039   0.62702   0.54166   0.00000  Uiso   1.00
O223   O     0.47075   0.61323   0.79667   0.00000  Uiso   1.00
O224   O     0.50830   0.60723   0.38064   0.00000  Uiso   1.00
N225   N     0.28869   0.70328   0.55050   0.00000  Uiso   1.00
N226   N     0.45284   0.69345   0.73223   0.00000  Uiso   1.00
N227   N     0.47961   0.68917   0.43577   0.00000  Uiso   1.00
N228   N     0.28755   0.54434   0.55078   0.00000  Uiso   1.00
N229   N     0.45170   0.53451   0.73252   0.00000  Uiso   1.00
N230   N     0.47847   0.53023   0.43606   0.00000  Uiso   1.00
C231   C     0.40653   0.78193   0.99988   0.00000  Uiso   1.00
C232   C     0.37402   0.82476   0.00700   0.00000  Uiso   1.00
C233   C     0.34678   0.77225   0.01418   0.00000  Uiso   1.00
C234   C     0.31939   0.82490   0.01995   0.00000  Uiso   1.00
C235   C     0.26892   0.87597   0.03119   0.00000  Uiso   1.00
C236   C     0.41810   0.82196   0.95480   0.00000  Uiso   1.00
C237   C     0.42793   0.76709   0.91811   0.00000  Uiso   1.00
C238   C     0.43765   0.81739   0.87993   0.00000  Uiso   1.00
C239   C     0.45565   0.86410   0.81015   0.00000  Uiso   1.00
C240   C     0.42733   0.82714   0.03608   0.00000  Uiso   1.00
C241   C     0.44492   0.77663   0.06772   0.00000  Uiso   1.00
C242   C     0.46242   0.83129   0.09797   0.00000  Uiso   1.00
C243   C     0.49475   0.88605   0.15439   0.00000  Uiso   1.00
C244   C     0.40632   0.96881   0.99733   0.00000  Uiso   1.00
C245   C     0.37391   0.92627   0.00561   0.00000  Uiso   1.00
C246   C     0.34655   0.97901   0.01137   0.00000  Uiso   1.00
C247   C     0.31927   0.92659   0.01856   0.00000  Uiso   1.00
C248   C     0.41799   0.92346   0.95342   0.00000  Uiso   1.00
C249   C     0.42770   0.97385   0.91529   0.00000  Uiso   1.00
C250   C     0.43754   0.91907   0.87854   0.00000  Uiso   1.00
C251   C     0.42722   0.92865   0.03470   0.00000  Uiso   1.00
C252   C     0.44470   0.98339   0.06490   0.00000  Uiso   1.00
C253   C     0.46231   0.93298   0.09658   0.00000  Uiso   1.00
H254   H     0.40661   0.70291   0.00095   0.00000  Uiso   1.00
H255   H     0.34687   0.69370   0.01525   0.00000  Uiso   1.00
H256   H     0.42801   0.68854   0.91919   0.00000  Uiso   1.00
H257   H     0.44500   0.69808   0.06878   0.00000  Uiso   1.00
H258   H     0.28058   0.72826   0.03047   0.00000  Uiso   1.00
H259   H     0.45169   0.71738   0.82793   0.00000  Uiso   1.00
H260   H     0.48751   0.73750   0.14337   0.00000  Uiso   1.00
H261   H     0.40624   0.04784   0.99625   0.00000  Uiso   1.00
H262   H     0.34647   0.05756   0.01029   0.00000  Uiso   1.00
H263   H     0.42762   0.05240   0.91423   0.00000  Uiso   1.00
H264   H     0.44461   0.06194   0.06382   0.00000  Uiso   1.00
H265   H     0.28026   0.02358   0.02645   0.00000  Uiso   1.00
H266   H     0.45137   0.01270   0.82391   0.00000  Uiso   1.00
H267   H     0.48719   0.03282   0.13935   0.00000  Uiso   1.00
O268   O     0.24111   0.87609   0.03777   0.00000  Uiso   1.00
O269   O     0.46560   0.86181   0.77204   0.00000  Uiso   1.00
O270   O     0.51260   0.88821   0.18589   0.00000  Uiso   1.00
N271   N     0.28871   0.79643   0.02761   0.00000  Uiso   1.00
N272   N     0.44868   0.78625   0.83824   0.00000  Uiso   1.00
N273   N     0.48218   0.80506   0.13314   0.00000  Uiso   1.00
N274   N     0.28854   0.95534   0.02544   0.00000  Uiso   1.00
N275   N     0.44851   0.94517   0.83608   0.00000  Uiso   1.00
N276   N     0.48201   0.96397   0.13098   0.00000  Uiso   1.00
C277   C     0.09286   0.29071   0.57279   0.00000  Uiso   1.00
C278   C     0.12579   0.33121   0.56671   0.00000  Uiso   1.00
C279   C     0.15283   0.27673   0.56144   0.00000  Uiso   1.00
C280   C     0.18067   0.32742   0.55636   0.00000  Uiso   1.00
C281   C     0.23168   0.37486   0.54692   0.00000  Uiso   1.00
C282   C     0.08055   0.33392   0.61680   0.00000  Uiso   1.00
C283   C     0.06956   0.28171   0.65365   0.00000  Uiso   1.00
C284   C     0.05931   0.33469   0.69073   0.00000  Uiso   1.00
C285   C     0.04006   0.38633   0.75904   0.00000  Uiso   1.00
C286   C     0.07318   0.33510   0.53509   0.00000  Uiso   1.00
C287   C     0.05598   0.28388   0.50325   0.00000  Uiso   1.00
C288   C     0.03952   0.33785   0.47154   0.00000  Uiso   1.00
C289   C     0.00883   0.39132   0.41299   0.00000  Uiso   1.00
C290   C     0.09420   0.47762   0.57312   0.00000  Uiso   1.00
C291   C     0.12651   0.43274   0.56689   0.00000  Uiso   1.00
C292   C     0.15431   0.48352   0.56181   0.00000  Uiso   1.00
C293   C     0.18140   0.42912   0.55654   0.00000  Uiso   1.00
C294   C     0.08128   0.43544   0.61698   0.00000  Uiso   1.00
C295   C     0.07104   0.48851   0.65402   0.00000  Uiso   1.00
C296   C     0.06004   0.43639   0.69091   0.00000  Uiso   1.00
C297   C     0.07390   0.43662   0.53527   0.00000  Uiso   1.00
C298   C     0.05746   0.49068   0.50362   0.00000  Uiso   1.00
C299   C     0.04025   0.43956   0.47173   0.00000  Uiso   1.00
H300   H     0.09230   0.21168   0.57265   0.00000  Uiso   1.00
H301   H     0.15226   0.19816   0.56131   0.00000  Uiso   1.00
H302   H     0.06899   0.20315   0.65350   0.00000  Uiso   1.00
H303   H     0.05542   0.20532   0.50312   0.00000  Uiso   1.00
H304   H     0.21906   0.22795   0.54883   0.00000  Uiso   1.00
H305   H     0.04348   0.23846   0.74321   0.00000  Uiso   1.00
H306   H     0.01486   0.24304   0.42610   0.00000  Uiso   1.00
H307   H     0.09477   0.55667   0.57327   0.00000  Uiso   1.00
H308   H     0.15487   0.56209   0.56196   0.00000  Uiso   1.00
H309   H     0.07160   0.56707   0.65415   0.00000  Uiso   1.00
H310   H     0.05803   0.56924   0.50377   0.00000  Uiso   1.00
H311   H     0.22118   0.52333   0.54936   0.00000  Uiso   1.00
H312   H     0.04560   0.53384   0.74374   0.00000  Uiso   1.00
H313   H     0.01698   0.53842   0.42663   0.00000  Uiso   1.00
O314   O     0.25961   0.37298   0.54166   0.00000  Uiso   1.00
O315   O     0.02925   0.38677   0.79667   0.00000  Uiso   1.00
O316   O     0.99170   0.39277   0.38064   0.00000  Uiso   1.00
N317   N     0.21131   0.29672   0.55050   0.00000  Uiso   1.00
N318   N     0.04716   0.30655   0.73223   0.00000  Uiso   1.00
N319   N     0.02039   0.31083   0.43577   0.00000  Uiso   1.00
N320   N     0.21245   0.45566   0.55078   0.00000  Uiso   1.00
N321   N     0.04830   0.46549   0.73252   0.00000  Uiso   1.00
N322   N     0.02153   0.46977   0.43606   0.00000  Uiso   1.00
C323   C     0.09347   0.21807   0.99988   0.00000  Uiso   1.00
C324   C     0.12598   0.17524   0.00700   0.00000  Uiso   1.00
C325   C     0.15322   0.22775   0.01418   0.00000  Uiso   1.00
C326   C     0.18061   0.17510   0.01995   0.00000  Uiso   1.00
C327   C     0.23108   0.12403   0.03119   0.00000  Uiso   1.00
C328   C     0.08190   0.17804   0.95480   0.00000  Uiso   1.00
C329   C     0.07207   0.23291   0.91811   0.00000  Uiso   1.00
C330   C     0.06235   0.18261   0.87993   0.00000  Uiso   1.00
C331   C     0.04435   0.13590   0.81015   0.00000  Uiso   1.00
C332   C     0.07267   0.17286   0.03608   0.00000  Uiso   1.00
C333   C     0.05508   0.22337   0.06772   0.00000  Uiso   1.00
C334   C     0.03758   0.16871   0.09797   0.00000  Uiso   1.00
C335   C     0.00525   0.11395   0.15439   0.00000  Uiso   1.00
C336   C     0.09368   0.03119   0.99733   0.00000  Uiso   1.00
C337   C     0.12609   0.07373   0.00561   0.00000  Uiso   1.00
C338   C     0.15345   0.02099   0.01137   0.00000  Uiso   1.00
C339   C     0.18073   0.07341   0.01856   0.00000  Uiso   1.00
C340   C     0.08201   0.07654   0.95342   0.00000  Uiso   1.00
C341   C     0.07230   0.02615   0.91529   0.00000  Uiso   1.00
C342   C     0.06246   0.08093   0.87854   0.00000  Uiso   1.00
C343   C     0.07278   0.07135   0.03470   0.00000  Uiso   1.00
C344   C     0.05530   0.01661   0.06490   0.00000  Uiso   1.00
C345   C     0.03769   0.06702   0.09658   0.00000  Uiso   1.00
H346   H     0.09339   0.29709   0.00095   0.00000  Uiso   1.00
H347   H     0.15313   0.30630   0.01525   0.00000  Uiso   1.00
H348   H     0.07199   0.31146   0.91919   0.00000  Uiso   1.00
H349   H     0.05500   0.30192   0.06878   0.00000  Uiso   1.00
H350   H     0.21942   0.27174   0.03047   0.00000  Uiso   1.00
H351   H     0.04831   0.28262   0.82793   0.00000  Uiso   1.00
H352   H     0.01249   0.26250   0.14337   0.00000  Uiso   1.00
H353   H     0.09376   0.95216   0.99625   0.00000  Uiso   1.00
H354   H     0.15353   0.94244   0.01029   0.00000  Uiso   1.00
H355   H     0.07238   0.94760   0.91423   0.00000  Uiso   1.00
H356   H     0.05539   0.93806   0.06382   0.00000  Uiso   1.00
H357   H     0.21974   0.97642   0.02645   0.00000  Uiso   1.00
H358   H     0.04863   0.98730   0.82391   0.00000  Uiso   1.00
H359   H     0.01281   0.96718   0.13935   0.00000  Uiso   1.00
O360   O     0.25889   0.12391   0.03777   0.00000  Uiso   1.00
O361   O     0.03440   0.13819   0.77204   0.00000  Uiso   1.00
O362   O     0.98740   0.11179   0.18589   0.00000  Uiso   1.00
N363   N     0.21129   0.20357   0.02761   0.00000  Uiso   1.00
N364   N     0.05132   0.21375   0.83824   0.00000  Uiso   1.00
N365   N     0.01782   0.19494   0.13314   0.00000  Uiso   1.00
N366   N     0.21146   0.04466   0.02544   0.00000  Uiso   1.00
N367   N     0.05149   0.05483   0.83608   0.00000  Uiso   1.00
N368   N     0.01799   0.03603   0.13098   0.00000  Uiso   1.00
C369   C     0.40714   0.29071   0.07279   0.00000  Uiso   1.00
C370   C     0.37421   0.33121   0.06671   0.00000  Uiso   1.00
C371   C     0.34717   0.27673   0.06144   0.00000  Uiso   1.00
C372   C     0.31933   0.32742   0.05636   0.00000  Uiso   1.00
C373   C     0.26832   0.37486   0.04692   0.00000  Uiso   1.00
C374   C     0.41945   0.33392   0.11680   0.00000  Uiso   1.00
C375   C     0.43044   0.28171   0.15365   0.00000  Uiso   1.00
C376   C     0.44069   0.33469   0.19073   0.00000  Uiso   1.00
C377   C     0.45994   0.38633   0.25904   0.00000  Uiso   1.00
C378   C     0.42682   0.33510   0.03509   0.00000  Uiso   1.00
C379   C     0.44402   0.28388   0.00325   0.00000  Uiso   1.00
C380   C     0.46048   0.33785   0.97154   0.00000  Uiso   1.00
C381   C     0.49117   0.39132   0.91299   0.00000  Uiso   1.00
C382   C     0.40580   0.47762   0.07312   0.00000  Uiso   1.00
C383   C     0.37349   0.43274   0.06689   0.00000  Uiso   1.00
C384   C     0.34569   0.48352   0.06181   0.00000  Uiso   1.00
C385   C     0.31860   0.42912   0.05654   0.00000  Uiso   1.00
C386   C     0.41872   0.43544   0.11698   0.00000  Uiso   1.00
C387   C     0.42896   0.48851   0.15402   0.00000  Uiso   1.00
C388   C     0.43996   0.43639   0.19091   0.00000  Uiso   1.00
C389   C     0.42610   0.43662   0.03527   0.00000  Uiso   1.00
C390   C     0.44254   0.49068   0.00362   0.00000  Uiso   1.00
C391   C     0.45975   0.43956   0.97173   0.00000  Uiso   1.00
H392   H     0.40770   0.21168   0.07265   0.00000  Uiso   1.00
H393   H     0.34774   0.19816   0.06131   0.00000  Uiso   1.00
H394   H     0.43101   0.20315   0.15350   0.00000  Uiso   1.00
H395   H     0.44458   0.20532   0.00312   0.00000  Uiso   1.00
H396   H     0.28094   0.22795   0.04883   0.00000  Uiso   1.00
H397   H     0.45652   0.23846   0.24321   0.00000  Uiso   1.00
H398   H     0.48514   0.24304   0.92610   0.00000  Uiso   1.00
H399   H     0.40523   0.55667   0.07327   0.00000  Uiso   1.00
H400   H     0.34513   0.56209   0.06196   0.00000  Uiso   1.00
H401   H     0.42840   0.56707   0.15415   0.00000  Uiso   1.00
H402   H     0.44197   0.56924   0.00377   0.00000  Uiso   1.00
H403   H     0.27882   0.52333   0.04936   0.00000  Uiso   1.00
H404   H     0.45440   0.53384   0.24374   0.00000  Uiso   1.00
H405   H     0.48302   0.53842   0.92663   0.00000  Uiso   1.00
O406   O     0.24039   0.37298   0.04166   0.00000  Uiso   1.00
O407   O     0.47075   0.38677   0.29667   0.00000  Uiso   1.00
O408   O     0.50830   0.39277   0.88064   0.00000  Uiso   1.00
N409   N     0.28869   0.29672   0.05050   0.00000  Uiso   1.00
N410   N     0.45284   0.30655   0.23223   0.00000  Uiso   1.00
N411   N     0.47961   0.31083   0.93577   0.00000  Uiso   1.00
N412   N     0.28755   0.45566   0.05078   0.00000  Uiso   1.00
N413   N     0.45170   0.46549   0.23252   0.00000  Uiso   1.00
N414   N     0.47847   0.46977   0.93606   0.00000  Uiso   1.00
C415   C     0.40653   0.21807   0.49988   0.00000  Uiso   1.00
C416   C     0.37402   0.17524   0.50700   0.00000  Uiso   1.00
C417   C     0.34678   0.22775   0.51418   0.00000  Uiso   1.00
C418   C     0.31939   0.17510   0.51995   0.00000  Uiso   1.00
C419   C     0.26892   0.12403   0.53119   0.00000  Uiso   1.00
C420   C     0.41810   0.17804   0.45480   0.00000  Uiso   1.00
C421   C     0.42793   0.23291   0.41811   0.00000  Uiso   1.00
C422   C     0.43765   0.18261   0.37993   0.00000  Uiso   1.00
C423   C     0.45565   0.13590   0.31015   0.00000  Uiso   1.00
C424   C     0.42733   0.17286   0.53608   0.00000  Uiso   1.00
C425   C     0.44492   0.22337   0.56772   0.00000  Uiso   1.00
C426   C     0.46242   0.16871   0.59797   0.00000  Uiso   1.00
C427   C     0.49475   0.11395   0.65439   0.00000  Uiso   1.00
C428   C     0.40632   0.03119   0.49733   0.00000  Uiso   1.00
C429   C     0.37391   0.07373   0.50561   0.00000  Uiso   1.00
C430   C     0.34655   0.02099   0.51137   0.00000  Uiso   1.00
C431   C     0.31927   0.07341   0.51856   0.00000  Uiso   1.00
C432   C     0.41799   0.07654   0.45342   0.00000  Uiso   1.00
C433   C     0.42770   0.02615   0.41529   0.00000  Uiso   1.00
C434   C     0.43754   0.08093   0.37854   0.00000  Uiso   1.00
C435   C     0.42722   0.07135   0.53470   0.00000  Uiso   1.00
C436   C     0.44470   0.01661   0.56490   0.00000  Uiso   1.00
C437   C     0.46231   0.06702   0.59658   0.00000  Uiso   1.00
H438   H     0.40661   0.29709   0.50095   0.00000  Uiso   1.00
H439   H     0.34687   0.30630   0.51525   0.00000  Uiso   1.00
H440   H     0.42801   0.31146   0.41919   0.00000  Uiso   1.00
H441   H     0.44500   0.30192   0.56878   0.00000  Uiso   1.00
H442   H     0.28058   0.27174   0.53047   0.00000  Uiso   1.00
H443   H     0.45169   0.28262   0.32793   0.00000  Uiso   1.00
H444   H     0.48751   0.26250   0.64337   0.00000  Uiso   1.00
H445   H     0.40624   0.95216   0.49625   0.00000  Uiso   1.00
H446   H     0.34647   0.94244   0.51029   0.00000  Uiso   1.00
H447   H     0.42762   0.94760   0.41423   0.00000  Uiso   1.00
H448   H     0.44461   0.93806   0.56382   0.00000  Uiso   1.00
H449   H     0.28026   0.97642   0.52645   0.00000  Uiso   1.00
H450   H     0.45137   0.98730   0.32391   0.00000  Uiso   1.00
H451   H     0.48719   0.96718   0.63935   0.00000  Uiso   1.00
O452   O     0.24111   0.12391   0.53777   0.00000  Uiso   1.00
O453   O     0.46560   0.13819   0.27204   0.00000  Uiso   1.00
O454   O     0.51260   0.11179   0.68589   0.00000  Uiso   1.00
N455   N     0.28871   0.20357   0.52761   0.00000  Uiso   1.00
N456   N     0.44868   0.21375   0.33824   0.00000  Uiso   1.00
N457   N     0.48218   0.19494   0.63314   0.00000  Uiso   1.00
N458   N     0.28854   0.04466   0.52544   0.00000  Uiso   1.00
N459   N     0.44851   0.05483   0.33608   0.00000  Uiso   1.00
N460   N     0.48201   0.03603   0.63098   0.00000  Uiso   1.00
C461   C     0.09286   0.70929   0.07279   0.00000  Uiso   1.00
C462   C     0.12579   0.66879   0.06671   0.00000  Uiso   1.00
C463   C     0.15283   0.72327   0.06144   0.00000  Uiso   1.00
C464   C     0.18067   0.67258   0.05636   0.00000  Uiso   1.00
C465   C     0.23168   0.62514   0.04692   0.00000  Uiso   1.00
C466   C     0.08055   0.66608   0.11680   0.00000  Uiso   1.00
C467   C     0.06956   0.71829   0.15365   0.00000  Uiso   1.00
C468   C     0.05931   0.66531   0.19073   0.00000  Uiso   1.00
C469   C     0.04006   0.61367   0.25904   0.00000  Uiso   1.00
C470   C     0.07318   0.66490   0.03509   0.00000  Uiso   1.00
C471   C     0.05598   0.71612   0.00325   0.00000  Uiso   1.00
C472   C     0.03952   0.66215   0.97154   0.00000  Uiso   1.00
C473   C     0.00883   0.60868   0.91299   0.00000  Uiso   1.00
C474   C     0.09420   0.52238   0.07312   0.00000  Uiso   1.00
C475   C     0.12651   0.56726   0.06689   0.00000  Uiso   1.00
C476   C     0.15431   0.51648   0.06181   0.00000  Uiso   1.00
C477   C     0.18140   0.57088   0.05654   0.00000  Uiso   1.00
C478   C     0.08128   0.56456   0.11698   0.00000  Uiso   1.00
C479   C     0.07104   0.51149   0.15402   0.00000  Uiso   1.00
C480   C     0.06004   0.56361   0.19091   0.00000  Uiso   1.00
C481   C     0.07390   0.56338   0.03527   0.00000  Uiso   1.00
C482   C     0.05746   0.50932   0.00362   0.00000  Uiso   1.00
C483   C     0.04025   0.56044   0.97173   0.00000  Uiso   1.00
H484   H     0.09230   0.78832   0.07265   0.00000  Uiso   1.00
H485   H     0.15226   0.80184   0.06131   0.00000  Uiso   1.00
H486   H     0.06899   0.79685   0.15350   0.00000  Uiso   1.00
H487   H     0.05542   0.79468   0.00312   0.00000  Uiso   1.00
H488   H     0.21906   0.77205   0.04883   0.00000  Uiso   1.00
H489   H     0.04348   0.76154   0.24321   0.00000  Uiso   1.00
H490   H     0.01486   0.75696   0.92610   0.00000  Uiso   1.00
H491   H     0.09477   0.44333   0.07327   0.00000  Uiso   1.00
H492   H     0.15487   0.43791   0.06196   0.00000  Uiso   1.00
H493   H     0.07160   0.43293   0.15415   0.00000  Uiso   1.00
H494   H     0.05803   0.43076   0.00377   0.00000  Uiso   1.00
H495   H     0.22118   0.47667   0.04936   0.00000  Uiso   1.00
H496   H     0.04560   0.46616   0.24374   0.00000  Uiso   1.00
H497   H     0.01698   0.46158   0.92663   0.00000  Uiso   1.00
O498   O     0.25961   0.62702   0.04166   0.00000  Uiso   1.00
O499   O     0.02925   0.61323   0.29667   0.00000  Uiso   1.00
O500   O     0.99170   0.60723   0.88064   0.00000  Uiso   1.00
N501   N     0.21131   0.70328   0.05050   0.00000  Uiso   1.00
N502   N     0.04716   0.69345   0.23223   0.00000  Uiso   1.00
N503   N     0.02039   0.68917   0.93577   0.00000  Uiso   1.00
N504   N     0.21245   0.54434   0.05078   0.00000  Uiso   1.00
N505   N     0.04830   0.53451   0.23252   0.00000  Uiso   1.00
N506   N     0.02153   0.53023   0.93606   0.00000  Uiso   1.00
C507   C     0.09347   0.78193   0.49988   0.00000  Uiso   1.00
C508   C     0.12598   0.82476   0.50700   0.00000  Uiso   1.00
C509   C     0.15322   0.77225   0.51418   0.00000  Uiso   1.00
C510   C     0.18061   0.82490   0.51995   0.00000  Uiso   1.00
C511   C     0.23108   0.87597   0.53119   0.00000  Uiso   1.00
C512   C     0.08190   0.82196   0.45480   0.00000  Uiso   1.00
C513   C     0.07207   0.76709   0.41811   0.00000  Uiso   1.00
C514   C     0.06235   0.81739   0.37993   0.00000  Uiso   1.00
C515   C     0.04435   0.86410   0.31015   0.00000  Uiso   1.00
C516   C     0.07267   0.82714   0.53608   0.00000  Uiso   1.00
C517   C     0.05508   0.77663   0.56772   0.00000  Uiso   1.00
C518   C     0.03758   0.83129   0.59797   0.00000  Uiso   1.00
C519   C     0.00525   0.88605   0.65439   0.00000  Uiso   1.00
C520   C     0.09368   0.96881   0.49733   0.00000  Uiso   1.00
C521   C     0.12609   0.92627   0.50561   0.00000  Uiso   1.00
C522   C     0.15345   0.97901   0.51137   0.00000  Uiso   1.00
C523   C     0.18073   0.92659   0.51856   0.00000  Uiso   1.00
C524   C     0.08201   0.92346   0.45342   0.00000  Uiso   1.00
C525   C     0.07230   0.97385   0.41529   0.00000  Uiso   1.00
C526   C     0.06246   0.91907   0.37854   0.00000  Uiso   1.00
C527   C     0.07278   0.92865   0.53470   0.00000  Uiso   1.00
C528   C     0.05530   0.98339   0.56490   0.00000  Uiso   1.00
C529   C     0.03769   0.93298   0.59658   0.00000  Uiso   1.00
H530   H     0.09339   0.70291   0.50095   0.00000  Uiso   1.00
H531   H     0.15313   0.69370   0.51525   0.00000  Uiso   1.00
H532   H     0.07199   0.68854   0.41919   0.00000  Uiso   1.00
H533   H     0.05500   0.69808   0.56878   0.00000  Uiso   1.00
H534   H     0.21942   0.72826   0.53047   0.00000  Uiso   1.00
H535   H     0.04831   0.71738   0.32793   0.00000  Uiso   1.00
H536   H     0.01249   0.73750   0.64337   0.00000  Uiso   1.00
H537   H     0.09376   0.04784   0.49625   0.00000  Uiso   1.00
H538   H     0.15353   0.05756   0.51029   0.00000  Uiso   1.00
H539   H     0.07238   0.05240   0.41423   0.00000  Uiso   1.00
H540   H     0.05539   0.06194   0.56382   0.00000  Uiso   1.00
H541   H     0.21974   0.02358   0.52645   0.00000  Uiso   1.00
H542   H     0.04863   0.01270   0.32391   0.00000  Uiso   1.00
H543   H     0.01281   0.03282   0.63935   0.00000  Uiso   1.00
O544   O     0.25889   0.87609   0.53777   0.00000  Uiso   1.00
O545   O     0.03440   0.86181   0.27204   0.00000  Uiso   1.00
O546   O     0.98740   0.88821   0.68589   0.00000  Uiso   1.00
N547   N     0.21129   0.79643   0.52761   0.00000  Uiso   1.00
N548   N     0.05132   0.78625   0.33824   0.00000  Uiso   1.00
N549   N     0.01782   0.80506   0.63314   0.00000  Uiso   1.00
N550   N     0.21146   0.95534   0.52544   0.00000  Uiso   1.00
N551   N     0.05149   0.94517   0.33608   0.00000  Uiso   1.00
N552   N     0.01799   0.96397   0.63098   0.00000  Uiso   1.00
C553   C     0.59286   0.29071   0.42721   0.00000  Uiso   1.00
C554   C     0.62579   0.33121   0.43329   0.00000  Uiso   1.00
C555   C     0.65283   0.27673   0.43856   0.00000  Uiso   1.00
C556   C     0.68067   0.32742   0.44364   0.00000  Uiso   1.00
C557   C     0.73168   0.37486   0.45308   0.00000  Uiso   1.00
C558   C     0.58055   0.33392   0.38320   0.00000  Uiso   1.00
C559   C     0.56956   0.28171   0.34635   0.00000  Uiso   1.00
C560   C     0.55931   0.33469   0.30927   0.00000  Uiso   1.00
C561   C     0.54006   0.38633   0.24096   0.00000  Uiso   1.00
C562   C     0.57318   0.33510   0.46491   0.00000  Uiso   1.00
C563   C     0.55598   0.28388   0.49675   0.00000  Uiso   1.00
C564   C     0.53952   0.33785   0.52846   0.00000  Uiso   1.00
C565   C     0.50883   0.39132   0.58701   0.00000  Uiso   1.00
C566   C     0.59420   0.47762   0.42688   0.00000  Uiso   1.00
C567   C     0.62651   0.43274   0.43311   0.00000  Uiso   1.00
C568   C     0.65431   0.48352   0.43819   0.00000  Uiso   1.00
C569   C     0.68140   0.42912   0.44346   0.00000  Uiso   1.00
C570   C     0.58128   0.43544   0.38302   0.00000  Uiso   1.00
C571   C     0.57104   0.48851   0.34598   0.00000  Uiso   1.00
C572   C     0.56004   0.43639   0.30909   0.00000  Uiso   1.00
C573   C     0.57390   0.43662   0.46473   0.00000  Uiso   1.00
C574   C     0.55746   0.49068   0.49638   0.00000  Uiso   1.00
C575   C     0.54025   0.43956   0.52827   0.00000  Uiso   1.00
H576   H     0.59230   0.21168   0.42735   0.00000  Uiso   1.00
H577   H     0.65226   0.19816   0.43869   0.00000  Uiso   1.00
H578   H     0.56899   0.20315   0.34650   0.00000  Uiso   1.00
H579   H     0.55542   0.20532   0.49688   0.00000  Uiso   1.00
H580   H     0.71906   0.22795   0.45117   0.00000  Uiso   1.00
H581   H     0.54348   0.23846   0.25679   0.00000  Uiso   1.00
H582   H     0.51486   0.24304   0.57390   0.00000  Uiso   1.00
H583   H     0.59477   0.55667   0.42673   0.00000  Uiso   1.00
H584   H     0.65487   0.56209   0.43804   0.00000  Uiso   1.00
H585   H     0.57160   0.56707   0.34585   0.00000  Uiso   1.00
H586   H     0.55803   0.56924   0.49623   0.00000  Uiso   1.00
H587   H     0.72118   0.52333   0.45064   0.00000  Uiso   1.00
H588   H     0.54560   0.53384   0.25626   0.00000  Uiso   1.00
H589   H     0.51698   0.53842   0.57337   0.00000  Uiso   1.00
O590   O     0.75961   0.37298   0.45834   0.00000  Uiso   1.00
O591   O     0.52925   0.38677   0.20333   0.00000  Uiso   1.00
O592   O     0.49170   0.39277   0.61936   0.00000  Uiso   1.00
N593   N     0.71131   0.29672   0.44950   0.00000  Uiso   1.00
N594   N     0.54716   0.30655   0.26777   0.00000  Uiso   1.00
N595   N     0.52039   0.31083   0.56423   0.00000  Uiso   1.00
N596   N     0.71245   0.45566   0.44922   0.00000  Uiso   1.00
N597   N     0.54830   0.46549   0.26748   0.00000  Uiso   1.00
N598   N     0.52153   0.46977   0.56394   0.00000  Uiso   1.00
C599   C     0.59347   0.21807   0.00012   0.00000  Uiso   1.00
C600   C     0.62598   0.17524   0.99300   0.00000  Uiso   1.00
C601   C     0.65322   0.22775   0.98582   0.00000  Uiso   1.00
C602   C     0.68061   0.17510   0.98005   0.00000  Uiso   1.00
C603   C     0.73108   0.12403   0.96881   0.00000  Uiso   1.00
C604   C     0.58190   0.17804   0.04520   0.00000  Uiso   1.00
C605   C     0.57207   0.23291   0.08189   0.00000  Uiso   1.00
C606   C     0.56235   0.18261   0.12007   0.00000  Uiso   1.00
C607   C     0.54435   0.13590   0.18985   0.00000  Uiso   1.00
C608   C     0.57267   0.17286   0.96392   0.00000  Uiso   1.00
C609   C     0.55508   0.22337   0.93228   0.00000  Uiso   1.00
C610   C     0.53758   0.16871   0.90203   0.00000  Uiso   1.00
C611   C     0.50525   0.11395   0.84561   0.00000  Uiso   1.00
C612   C     0.59368   0.03119   0.00267   0.00000  Uiso   1.00
C613   C     0.62609   0.07373   0.99439   0.00000  Uiso   1.00
C614   C     0.65345   0.02099   0.98863   0.00000  Uiso   1.00
C615   C     0.68073   0.07341   0.98144   0.00000  Uiso   1.00
C616   C     0.58201   0.07654   0.04658   0.00000  Uiso   1.00
C617   C     0.57230   0.02615   0.08471   0.00000  Uiso   1.00
C618   C     0.56246   0.08093   0.12146   0.00000  Uiso   1.00
C619   C     0.57278   0.07135   0.96530   0.00000  Uiso   1.00
C620   C     0.55530   0.01661   0.93510   0.00000  Uiso   1.00
C621   C     0.53769   0.06702   0.90342   0.00000  Uiso   1.00
H622   H     0.59339   0.29709   0.99905   0.00000  Uiso   1.00
H623   H     0.65313   0.30630   0.98475   0.00000  Uiso   1.00
H624   H     0.57199   0.31146   0.08081   0.00000  Uiso   1.00
H625   H     0.55500   0.30192   0.93122   0.00000  Uiso   1.00
H626   H     0.71942   0.27174   0.96953   0.00000  Uiso   1.00
H627   H     0.54831   0.28262   0.17207   0.00000  Uiso   1.00
H628   H     0.51249   0.26250   0.85663   0.00000  Uiso   1.00
H629   H     0.59376   0.95216   0.00375   0.00000  Uiso   1.00
H630   H     0.65353   0.94244   0.98971   0.00000  Uiso   1.00
H631   H     0.57238   0.94760   0.08577   0.00000  Uiso   1.00
H632   H     0.55539   0.93806   0.93618   0.00000  Uiso   1.00
H633   H     0.71974   0.97642   0.97355   0.00000  Uiso   1.00
H634   H     0.54863   0.98730   0.17609   0.00000  Uiso   1.00
H635   H     0.51281   0.96718   0.86065   0.00000  Uiso   1.00
O636   O     0.75889   0.12391   0.96223   0.00000  Uiso   1.00
O637   O     0.53440   0.13819   0.22796   0.00000  Uiso   1.00
O638   O     0.48740   0.11179   0.81411   0.00000  Uiso   1.00
N639   N     0.71129   0.20357   0.97239   0.00000  Uiso   1.00
N640   N     0.55132   0.21375   0.16176   0.00000  Uiso   1.00
N641   N     0.51782   0.19494   0.86686   0.00000  Uiso   1.00
N642   N     0.71146   0.04466   0.97456   0.00000  Uiso   1.00
N643   N     0.55149   0.05483   0.16392   0.00000  Uiso   1.00
N644   N     0.51799   0.03603   0.86902   0.00000  Uiso   1.00
C645   C     0.90714   0.70929   0.42721   0.00000  Uiso   1.00
C646   C     0.87421   0.66879   0.43329   0.00000  Uiso   1.00
C647   C     0.84717   0.72327   0.43856   0.00000  Uiso   1.00
C648   C     0.81933   0.67258   0.44364   0.00000  Uiso   1.00
C649   C     0.76832   0.62514   0.45308   0.00000  Uiso   1.00
C650   C     0.91945   0.66608   0.38320   0.00000  Uiso   1.00
C651   C     0.93044   0.71829   0.34635   0.00000  Uiso   1.00
C652   C     0.94069   0.66531   0.30927   0.00000  Uiso   1.00
C653   C     0.95994   0.61367   0.24096   0.00000  Uiso   1.00
C654   C     0.92682   0.66490   0.46491   0.00000  Uiso   1.00
C655   C     0.94402   0.71612   0.49675   0.00000  Uiso   1.00
C656   C     0.96048   0.66215   0.52846   0.00000  Uiso   1.00
C657   C     0.99117   0.60868   0.58701   0.00000  Uiso   1.00
C658   C     0.90580   0.52238   0.42688   0.00000  Uiso   1.00
C659   C     0.87349   0.56726   0.43311   0.00000  Uiso   1.00
C660   C     0.84569   0.51648   0.43819   0.00000  Uiso   1.00
C661   C     0.81860   0.57088   0.44346   0.00000  Uiso   1.00
C662   C     0.91872   0.56456   0.38302   0.00000  Uiso   1.00
C663   C     0.92896   0.51149   0.34598   0.00000  Uiso   1.00
C664   C     0.93996   0.56361   0.30909   0.00000  Uiso   1.00
C665   C     0.92610   0.56338   0.46473   0.00000  Uiso   1.00
C666   C     0.94254   0.50932   0.49638   0.00000  Uiso   1.00
C667   C     0.95975   0.56044   0.52827   0.00000  Uiso   1.00
H668   H     0.90770   0.78832   0.42735   0.00000  Uiso   1.00
H669   H     0.84774   0.80184   0.43869   0.00000  Uiso   1.00
H670   H     0.93101   0.79685   0.34650   0.00000  Uiso   1.00
H671   H     0.94458   0.79468   0.49688   0.00000  Uiso   1.00
H672   H     0.78094   0.77205   0.45117   0.00000  Uiso   1.00
H673   H     0.95652   0.76154   0.25679   0.00000  Uiso   1.00
H674   H     0.98514   0.75696   0.57390   0.00000  Uiso   1.00
H675   H     0.90523   0.44333   0.42673   0.00000  Uiso   1.00
H676   H     0.84513   0.43791   0.43804   0.00000  Uiso   1.00
H677   H     0.92840   0.43293   0.34585   0.00000  Uiso   1.00
H678   H     0.94197   0.43076   0.49623   0.00000  Uiso   1.00
H679   H     0.77882   0.47667   0.45064   0.00000  Uiso   1.00
H680   H     0.95440   0.46616   0.25626   0.00000  Uiso   1.00
H681   H     0.98302   0.46158   0.57337   0.00000  Uiso   1.00
O682   O     0.74039   0.62702   0.45834   0.00000  Uiso   1.00
O683   O     0.97075   0.61323   0.20333   0.00000  Uiso   1.00
O684   O     0.00830   0.60723   0.61936   0.00000  Uiso   1.00
N685   N     0.78869   0.70328   0.44950   0.00000  Uiso   1.00
N686   N     0.95284   0.69345   0.26777   0.00000  Uiso   1.00
N687   N     0.97961   0.68917   0.56423   0.00000  Uiso   1.00
N688   N     0.78755   0.54434   0.44922   0.00000  Uiso   1.00
N689   N     0.95170   0.53451   0.26748   0.00000  Uiso   1.00
N690   N     0.97847   0.53023   0.56394   0.00000  Uiso   1.00
C691   C     0.90653   0.78193   0.00012   0.00000  Uiso   1.00
C692   C     0.87402   0.82476   0.99300   0.00000  Uiso   1.00
C693   C     0.84678   0.77225   0.98582   0.00000  Uiso   1.00
C694   C     0.81939   0.82490   0.98005   0.00000  Uiso   1.00
C695   C     0.76892   0.87597   0.96881   0.00000  Uiso   1.00
C696   C     0.91810   0.82196   0.04520   0.00000  Uiso   1.00
C697   C     0.92793   0.76709   0.08189   0.00000  Uiso   1.00
C698   C     0.93765   0.81739   0.12007   0.00000  Uiso   1.00
C699   C     0.95565   0.86410   0.18985   0.00000  Uiso   1.00
C700   C     0.92733   0.82714   0.96392   0.00000  Uiso   1.00
C701   C     0.94492   0.77663   0.93228   0.00000  Uiso   1.00
C702   C     0.96242   0.83129   0.90203   0.00000  Uiso   1.00
C703   C     0.99475   0.88605   0.84561   0.00000  Uiso   1.00
C704   C     0.90632   0.96881   0.00267   0.00000  Uiso   1.00
C705   C     0.87391   0.92627   0.99439   0.00000  Uiso   1.00
C706   C     0.84655   0.97901   0.98863   0.00000  Uiso   1.00
C707   C     0.81927   0.92659   0.98144   0.00000  Uiso   1.00
C708   C     0.91799   0.92346   0.04658   0.00000  Uiso   1.00
C709   C     0.92770   0.97385   0.08471   0.00000  Uiso   1.00
C710   C     0.93754   0.91907   0.12146   0.00000  Uiso   1.00
C711   C     0.92722   0.92865   0.96530   0.00000  Uiso   1.00
C712   C     0.94470   0.98339   0.93510   0.00000  Uiso   1.00
C713   C     0.96231   0.93298   0.90342   0.00000  Uiso   1.00
H714   H     0.90661   0.70291   0.99905   0.00000  Uiso   1.00
H715   H     0.84687   0.69370   0.98475   0.00000  Uiso   1.00
H716   H     0.92801   0.68854   0.08081   0.00000  Uiso   1.00
H717   H     0.94500   0.69808   0.93122   0.00000  Uiso   1.00
H718   H     0.78058   0.72826   0.96953   0.00000  Uiso   1.00
H719   H     0.95169   0.71738   0.17207   0.00000  Uiso   1.00
H720   H     0.98751   0.73750   0.85663   0.00000  Uiso   1.00
H721   H     0.90624   0.04784   0.00375   0.00000  Uiso   1.00
H722   H     0.84647   0.05756   0.98971   0.00000  Uiso   1.00
H723   H     0.92762   0.05240   0.08577   0.00000  Uiso   1.00
H724   H     0.94461   0.06194   0.93618   0.00000  Uiso   1.00
H725   H     0.78026   0.02358   0.97355   0.00000  Uiso   1.00
H726   H     0.95137   0.01270   0.17609   0.00000  Uiso   1.00
H727   H     0.98719   0.03282   0.86065   0.00000  Uiso   1.00
O728   O     0.74111   0.87609   0.96223   0.00000  Uiso   1.00
O729   O     0.96560   0.86181   0.22796   0.00000  Uiso   1.00
O730   O     0.01260   0.88821   0.81411   0.00000  Uiso   1.00
N731   N     0.78871   0.79643   0.97239   0.00000  Uiso   1.00
N732   N     0.94868   0.78625   0.16176   0.00000  Uiso   1.00
N733   N     0.98218   0.80506   0.86686   0.00000  Uiso   1.00
N734   N     0.78854   0.95534   0.97456   0.00000  Uiso   1.00
N735   N     0.94851   0.94517   0.16392   0.00000  Uiso   1.00
N736   N     0.98201   0.96397   0.86902   0.00000  Uiso   1.00
