data_job_07072
_audit_creation_date              2018-12-19
_audit_creation_method            'Materials Studio'
_symmetry_space_group_name_H-M    'P1'
_symmetry_Int_Tables_number       1
_symmetry_cell_setting            triclinic
loop_
_symmetry_equiv_pos_as_xyz
  x,y,z
_cell_length_a                    21.7165
_cell_length_b                    21.7165
_cell_length_c                    69.3552
_cell_angle_alpha                 90.0000
_cell_angle_beta                  90.0000
_cell_angle_gamma                 120.0000
loop_
_atom_site_label
_atom_site_type_symbol
_atom_site_fract_x
_atom_site_fract_y
_atom_site_fract_z
_atom_site_U_iso_or_equiv
_atom_site_adp_type
_atom_site_occupancy
C1     C     0.64419   0.96666   0.63672   0.00000  Uiso   1.00
C2     C     0.72128   0.01719   0.63103   0.00000  Uiso   1.00
C3     C     0.75035   0.08873   0.62660   0.00000  Uiso   1.00
C4     C     0.82195   0.12582   0.62174   0.00000  Uiso   1.00
C5     C     0.93541   0.20933   0.61296   0.00000  Uiso   1.00
C6     C     0.61611   0.90518   0.62241   0.00000  Uiso   1.00
C7     C     0.55674   0.88253   0.61073   0.00000  Uiso   1.00
C8     C     0.53980   0.82532   0.59862   0.00000  Uiso   1.00
C9     C     0.48995   0.73490   0.57646   0.00000  Uiso   1.00
C10    C     0.64690   0.93558   0.65620   0.00000  Uiso   1.00
C11    C     0.61340   0.93847   0.67294   0.00000  Uiso   1.00
C12    C     0.62238   0.90684   0.68928   0.00000  Uiso   1.00
C13    C     0.62033   0.86362   0.71959   0.00000  Uiso   1.00
C14    C     0.71966   0.90531   0.63597   0.00000  Uiso   1.00
C15    C     0.76227   0.98386   0.63062   0.00000  Uiso   1.00
C16    C     0.83385   0.02085   0.62577   0.00000  Uiso   1.00
C17    C     0.86302   0.09244   0.62133   0.00000  Uiso   1.00
C18    C     0.65710   0.87185   0.62200   0.00000  Uiso   1.00
C19    C     0.64024   0.81466   0.60991   0.00000  Uiso   1.00
C20    C     0.58087   0.79194   0.59821   0.00000  Uiso   1.00
C21    C     0.68789   0.90226   0.65580   0.00000  Uiso   1.00
C22    C     0.69691   0.87060   0.67211   0.00000  Uiso   1.00
C23    C     0.66344   0.87346   0.68887   0.00000  Uiso   1.00
H24    H     0.61227   0.99260   0.63703   0.00000  Uiso   1.00
H25    H     0.71860   0.11449   0.62691   0.00000  Uiso   1.00
H26    H     0.52502   0.90833   0.61105   0.00000  Uiso   1.00
H27    H     0.91502   0.63093   0.33991   0.00000  Uiso   1.00
H28    H     0.85456   0.23493   0.61550   0.00000  Uiso   1.00
H29    H     0.11304   0.13354   0.91539   0.00000  Uiso   1.00
H30    H     0.89919   0.58482   0.37988   0.00000  Uiso   1.00
H31    H     0.75158   0.87937   0.63566   0.00000  Uiso   1.00
H32    H     0.86556   0.99505   0.62546   0.00000  Uiso   1.00
H33    H     0.67198   0.78888   0.60960   0.00000  Uiso   1.00
H34    H     0.72864   0.84482   0.67180   0.00000  Uiso   1.00
H35    H     0.97384   0.13799   0.61433   0.00000  Uiso   1.00
H36    H     0.56565   0.70326   0.58088   0.00000  Uiso   1.00
H37    H     0.68513   0.82121   0.71204   0.00000  Uiso   1.00
O38    O     0.98666   0.26460   0.60822   0.00000  Uiso   1.00
O39    O     0.11779   0.02757   0.89768   0.00000  Uiso   1.00
O40    O     0.60788   0.84900   0.73643   0.00000  Uiso   1.00
N41    N     0.86700   0.19625   0.61663   0.00000  Uiso   1.00
N42    N     0.48537   0.78980   0.58536   0.00000  Uiso   1.00
N43    N     0.59706   0.90007   0.70798   0.00000  Uiso   1.00
N44    N     0.93118   0.14408   0.61600   0.00000  Uiso   1.00
N45    N     0.54955   0.73764   0.58473   0.00000  Uiso   1.00
N46    N     0.66124   0.84790   0.70735   0.00000  Uiso   1.00
C47    C     0.31086   0.30000   0.97005   0.00000  Uiso   1.00
C48    C     0.38795   0.35052   0.96436   0.00000  Uiso   1.00
C49    C     0.41701   0.42206   0.95993   0.00000  Uiso   1.00
C50    C     0.48861   0.45915   0.95507   0.00000  Uiso   1.00
C51    C     0.60207   0.54267   0.94629   0.00000  Uiso   1.00
C52    C     0.28278   0.23851   0.95574   0.00000  Uiso   1.00
C53    C     0.22341   0.21587   0.94406   0.00000  Uiso   1.00
C54    C     0.20647   0.15865   0.93195   0.00000  Uiso   1.00
C55    C     0.15662   0.06824   0.90979   0.00000  Uiso   1.00
C56    C     0.31357   0.26891   0.98954   0.00000  Uiso   1.00
C57    C     0.28007   0.27181   0.00627   0.00000  Uiso   1.00
C58    C     0.28904   0.24017   0.02261   0.00000  Uiso   1.00
C59    C     0.28700   0.19696   0.05293   0.00000  Uiso   1.00
C60    C     0.38633   0.23865   0.96931   0.00000  Uiso   1.00
C61    C     0.42894   0.31720   0.96396   0.00000  Uiso   1.00
C62    C     0.50052   0.35419   0.95911   0.00000  Uiso   1.00
C63    C     0.52968   0.42577   0.95467   0.00000  Uiso   1.00
C64    C     0.32377   0.20519   0.95534   0.00000  Uiso   1.00
C65    C     0.30691   0.14799   0.94324   0.00000  Uiso   1.00
C66    C     0.24754   0.12527   0.93154   0.00000  Uiso   1.00
C67    C     0.35456   0.23559   0.98913   0.00000  Uiso   1.00
C68    C     0.36358   0.20394   0.00545   0.00000  Uiso   1.00
C69    C     0.33011   0.20679   0.02221   0.00000  Uiso   1.00
H70    H     0.27894   0.32593   0.97036   0.00000  Uiso   1.00
H71    H     0.38527   0.44783   0.96024   0.00000  Uiso   1.00
H72    H     0.19169   0.24166   0.94438   0.00000  Uiso   1.00
H73    H     0.58169   0.96426   0.67324   0.00000  Uiso   1.00
H74    H     0.52123   0.56827   0.94883   0.00000  Uiso   1.00
H75    H     0.77971   0.46687   0.24872   0.00000  Uiso   1.00
H76    H     0.56585   0.91816   0.71322   0.00000  Uiso   1.00
H77    H     0.41825   0.21270   0.96899   0.00000  Uiso   1.00
H78    H     0.53223   0.32839   0.95879   0.00000  Uiso   1.00
H79    H     0.33865   0.12222   0.94293   0.00000  Uiso   1.00
H80    H     0.39531   0.17816   0.00513   0.00000  Uiso   1.00
H81    H     0.64050   0.47132   0.94766   0.00000  Uiso   1.00
H82    H     0.23231   0.03659   0.91422   0.00000  Uiso   1.00
H83    H     0.35180   0.15455   0.04538   0.00000  Uiso   1.00
O84    O     0.65333   0.59793   0.94156   0.00000  Uiso   1.00
O85    O     0.78446   0.36091   0.23102   0.00000  Uiso   1.00
O86    O     0.27455   0.18233   0.06976   0.00000  Uiso   1.00
N87    N     0.53366   0.52958   0.94996   0.00000  Uiso   1.00
N88    N     0.15204   0.12314   0.91869   0.00000  Uiso   1.00
N89    N     0.26372   0.23340   0.04131   0.00000  Uiso   1.00
N90    N     0.59784   0.47742   0.94933   0.00000  Uiso   1.00
N91    N     0.21622   0.07097   0.91806   0.00000  Uiso   1.00
N92    N     0.32791   0.18124   0.04068   0.00000  Uiso   1.00
C93    C     0.97752   0.63333   0.30338   0.00000  Uiso   1.00
C94    C     0.05461   0.68386   0.29770   0.00000  Uiso   1.00
C95    C     0.08368   0.75539   0.29326   0.00000  Uiso   1.00
C96    C     0.15528   0.79248   0.28840   0.00000  Uiso   1.00
C97    C     0.26874   0.87600   0.27962   0.00000  Uiso   1.00
C98    C     0.94944   0.57184   0.28907   0.00000  Uiso   1.00
C99    C     0.89007   0.54920   0.27740   0.00000  Uiso   1.00
C100   C     0.87314   0.49199   0.26528   0.00000  Uiso   1.00
C101   C     0.82328   0.40157   0.24313   0.00000  Uiso   1.00
C102   C     0.98023   0.60224   0.32287   0.00000  Uiso   1.00
C103   C     0.94674   0.60514   0.33960   0.00000  Uiso   1.00
C104   C     0.95571   0.57351   0.35594   0.00000  Uiso   1.00
C105   C     0.95366   0.53029   0.38626   0.00000  Uiso   1.00
C106   C     0.05300   0.57198   0.30264   0.00000  Uiso   1.00
C107   C     0.09561   0.65053   0.29729   0.00000  Uiso   1.00
C108   C     0.16718   0.68752   0.29244   0.00000  Uiso   1.00
C109   C     0.19635   0.75910   0.28800   0.00000  Uiso   1.00
C110   C     0.99043   0.53852   0.28867   0.00000  Uiso   1.00
C111   C     0.97358   0.48133   0.27657   0.00000  Uiso   1.00
C112   C     0.91420   0.45860   0.26488   0.00000  Uiso   1.00
C113   C     0.02123   0.56892   0.32247   0.00000  Uiso   1.00
C114   C     0.03025   0.53727   0.33878   0.00000  Uiso   1.00
C115   C     0.99678   0.54012   0.35554   0.00000  Uiso   1.00
H116   H     0.94560   0.65927   0.30370   0.00000  Uiso   1.00
H117   H     0.05194   0.78116   0.29358   0.00000  Uiso   1.00
H118   H     0.85836   0.57499   0.27771   0.00000  Uiso   1.00
H119   H     0.24835   0.29760   0.00658   0.00000  Uiso   1.00
H120   H     0.18790   0.90160   0.28217   0.00000  Uiso   1.00
H121   H     0.44638   0.80020   0.58206   0.00000  Uiso   1.00
H122   H     0.23252   0.25149   0.04655   0.00000  Uiso   1.00
H123   H     0.08491   0.54604   0.30232   0.00000  Uiso   1.00
H124   H     0.19889   0.66172   0.29213   0.00000  Uiso   1.00
H125   H     0.00531   0.45555   0.27626   0.00000  Uiso   1.00
H126   H     0.06197   0.51149   0.33846   0.00000  Uiso   1.00
H127   H     0.30717   0.80466   0.28099   0.00000  Uiso   1.00
H128   H     0.89898   0.36992   0.24755   0.00000  Uiso   1.00
H129   H     0.01846   0.48788   0.37871   0.00000  Uiso   1.00
O130   O     0.31999   0.93127   0.27489   0.00000  Uiso   1.00
O131   O     0.45113   0.69424   0.56435   0.00000  Uiso   1.00
O132   O     0.94122   0.51567   0.40310   0.00000  Uiso   1.00
N133   N     0.20033   0.86291   0.28329   0.00000  Uiso   1.00
N134   N     0.81871   0.45647   0.25202   0.00000  Uiso   1.00
N135   N     0.93039   0.56673   0.37465   0.00000  Uiso   1.00
N136   N     0.26451   0.81075   0.28266   0.00000  Uiso   1.00
N137   N     0.88289   0.40431   0.25139   0.00000  Uiso   1.00
N138   N     0.99457   0.51457   0.37401   0.00000  Uiso   1.00
C139   C     0.03334   0.67753   0.63672   0.00000  Uiso   1.00
C140   C     0.98281   0.70409   0.63103   0.00000  Uiso   1.00
C141   C     0.91127   0.66162   0.62660   0.00000  Uiso   1.00
C142   C     0.87418   0.69613   0.62174   0.00000  Uiso   1.00
C143   C     0.79067   0.72607   0.61296   0.00000  Uiso   1.00
C144   C     0.09482   0.71093   0.62241   0.00000  Uiso   1.00
C145   C     0.11747   0.67421   0.61073   0.00000  Uiso   1.00
C146   C     0.17468   0.71448   0.59862   0.00000  Uiso   1.00
C147   C     0.26510   0.75505   0.57646   0.00000  Uiso   1.00
C148   C     0.06442   0.71132   0.65620   0.00000  Uiso   1.00
C149   C     0.06153   0.67493   0.67294   0.00000  Uiso   1.00
C150   C     0.09316   0.71554   0.68928   0.00000  Uiso   1.00
C151   C     0.13638   0.75670   0.71959   0.00000  Uiso   1.00
C152   C     0.09469   0.81435   0.63597   0.00000  Uiso   1.00
C153   C     0.01614   0.77841   0.63062   0.00000  Uiso   1.00
C154   C     0.97915   0.81300   0.62577   0.00000  Uiso   1.00
C155   C     0.90756   0.77058   0.62133   0.00000  Uiso   1.00
C156   C     0.12815   0.78525   0.62200   0.00000  Uiso   1.00
C157   C     0.18534   0.82559   0.60991   0.00000  Uiso   1.00
C158   C     0.20806   0.78893   0.59821   0.00000  Uiso   1.00
C159   C     0.09774   0.78564   0.65580   0.00000  Uiso   1.00
C160   C     0.12940   0.82631   0.67211   0.00000  Uiso   1.00
C161   C     0.12654   0.78999   0.68887   0.00000  Uiso   1.00
H162   H     0.00740   0.61967   0.63703   0.00000  Uiso   1.00
H163   H     0.88551   0.60411   0.62691   0.00000  Uiso   1.00
H164   H     0.09167   0.61670   0.61105   0.00000  Uiso   1.00
H165   H     0.36907   0.28409   0.33991   0.00000  Uiso   1.00
H166   H     0.76507   0.61963   0.61550   0.00000  Uiso   1.00
H167   H     0.86646   0.97951   0.91539   0.00000  Uiso   1.00
H168   H     0.41518   0.31436   0.37988   0.00000  Uiso   1.00
H169   H     0.12063   0.87221   0.63566   0.00000  Uiso   1.00
H170   H     0.00495   0.87051   0.62546   0.00000  Uiso   1.00
H171   H     0.21112   0.88309   0.60960   0.00000  Uiso   1.00
H172   H     0.15518   0.88382   0.67180   0.00000  Uiso   1.00
H173   H     0.86201   0.83585   0.61433   0.00000  Uiso   1.00
H174   H     0.29674   0.86239   0.58088   0.00000  Uiso   1.00
H175   H     0.17879   0.86392   0.71204   0.00000  Uiso   1.00
O176   O     0.73540   0.72206   0.60822   0.00000  Uiso   1.00
O177   O     0.97243   0.09022   0.89768   0.00000  Uiso   1.00
O178   O     0.15100   0.75888   0.73643   0.00000  Uiso   1.00
N179   N     0.80375   0.67075   0.61663   0.00000  Uiso   1.00
N180   N     0.21020   0.69557   0.58536   0.00000  Uiso   1.00
N181   N     0.09993   0.69699   0.70798   0.00000  Uiso   1.00
N182   N     0.85592   0.78709   0.61600   0.00000  Uiso   1.00
N183   N     0.26236   0.81191   0.58473   0.00000  Uiso   1.00
N184   N     0.15210   0.81334   0.70735   0.00000  Uiso   1.00
C185   C     0.70000   0.01086   0.97005   0.00000  Uiso   1.00
C186   C     0.64948   0.03743   0.96436   0.00000  Uiso   1.00
C187   C     0.57794   0.99495   0.95993   0.00000  Uiso   1.00
C188   C     0.54085   0.02946   0.95507   0.00000  Uiso   1.00
C189   C     0.45733   0.05941   0.94629   0.00000  Uiso   1.00
C190   C     0.76149   0.04427   0.95574   0.00000  Uiso   1.00
C191   C     0.78413   0.00754   0.94406   0.00000  Uiso   1.00
C192   C     0.84135   0.04782   0.93195   0.00000  Uiso   1.00
C193   C     0.93176   0.08838   0.90979   0.00000  Uiso   1.00
C194   C     0.73109   0.04466   0.98954   0.00000  Uiso   1.00
C195   C     0.72819   0.00826   0.00627   0.00000  Uiso   1.00
C196   C     0.75983   0.04887   0.02261   0.00000  Uiso   1.00
C197   C     0.80304   0.09004   0.05293   0.00000  Uiso   1.00
C198   C     0.76135   0.14768   0.96931   0.00000  Uiso   1.00
C199   C     0.68280   0.11174   0.96396   0.00000  Uiso   1.00
C200   C     0.64581   0.14633   0.95911   0.00000  Uiso   1.00
C201   C     0.57423   0.10391   0.95467   0.00000  Uiso   1.00
C202   C     0.79481   0.11858   0.95534   0.00000  Uiso   1.00
C203   C     0.85201   0.15892   0.94324   0.00000  Uiso   1.00
C204   C     0.87473   0.12227   0.93154   0.00000  Uiso   1.00
C205   C     0.76441   0.11897   0.98913   0.00000  Uiso   1.00
C206   C     0.79606   0.15964   0.00545   0.00000  Uiso   1.00
C207   C     0.79321   0.12332   0.02221   0.00000  Uiso   1.00
H208   H     0.67407   0.95300   0.97036   0.00000  Uiso   1.00
H209   H     0.55217   0.93744   0.96024   0.00000  Uiso   1.00
H210   H     0.75834   0.95003   0.94438   0.00000  Uiso   1.00
H211   H     0.03574   0.61742   0.67324   0.00000  Uiso   1.00
H212   H     0.43173   0.95296   0.94883   0.00000  Uiso   1.00
H213   H     0.53313   0.31284   0.24872   0.00000  Uiso   1.00
H214   H     0.08184   0.64770   0.71322   0.00000  Uiso   1.00
H215   H     0.78730   0.20554   0.96899   0.00000  Uiso   1.00
H216   H     0.67161   0.20384   0.95879   0.00000  Uiso   1.00
H217   H     0.87778   0.21643   0.94293   0.00000  Uiso   1.00
H218   H     0.82184   0.21715   0.00513   0.00000  Uiso   1.00
H219   H     0.52868   0.16918   0.94766   0.00000  Uiso   1.00
H220   H     0.96341   0.19573   0.91422   0.00000  Uiso   1.00
H221   H     0.84545   0.19725   0.04538   0.00000  Uiso   1.00
O222   O     0.40207   0.05539   0.94156   0.00000  Uiso   1.00
O223   O     0.63909   0.42355   0.23102   0.00000  Uiso   1.00
O224   O     0.81767   0.09222   0.06976   0.00000  Uiso   1.00
N225   N     0.47042   0.00408   0.94996   0.00000  Uiso   1.00
N226   N     0.87686   0.02890   0.91869   0.00000  Uiso   1.00
N227   N     0.76660   0.03032   0.04131   0.00000  Uiso   1.00
N228   N     0.52258   0.12043   0.94933   0.00000  Uiso   1.00
N229   N     0.92903   0.14525   0.91806   0.00000  Uiso   1.00
N230   N     0.81876   0.14667   0.04068   0.00000  Uiso   1.00
C231   C     0.36667   0.34419   0.30338   0.00000  Uiso   1.00
C232   C     0.31614   0.37076   0.29770   0.00000  Uiso   1.00
C233   C     0.24461   0.32829   0.29326   0.00000  Uiso   1.00
C234   C     0.20752   0.36280   0.28840   0.00000  Uiso   1.00
C235   C     0.12400   0.39274   0.27962   0.00000  Uiso   1.00
C236   C     0.42816   0.37760   0.28907   0.00000  Uiso   1.00
C237   C     0.45080   0.34087   0.27740   0.00000  Uiso   1.00
C238   C     0.50801   0.38115   0.26528   0.00000  Uiso   1.00
C239   C     0.59843   0.42171   0.24313   0.00000  Uiso   1.00
C240   C     0.39776   0.37799   0.32287   0.00000  Uiso   1.00
C241   C     0.39486   0.34160   0.33960   0.00000  Uiso   1.00
C242   C     0.42649   0.38220   0.35594   0.00000  Uiso   1.00
C243   C     0.46971   0.42337   0.38626   0.00000  Uiso   1.00
C244   C     0.42802   0.48102   0.30264   0.00000  Uiso   1.00
C245   C     0.34947   0.44508   0.29729   0.00000  Uiso   1.00
C246   C     0.31248   0.47966   0.29244   0.00000  Uiso   1.00
C247   C     0.24090   0.43725   0.28800   0.00000  Uiso   1.00
C248   C     0.46148   0.45191   0.28867   0.00000  Uiso   1.00
C249   C     0.51867   0.49225   0.27657   0.00000  Uiso   1.00
C250   C     0.54140   0.45560   0.26488   0.00000  Uiso   1.00
C251   C     0.43108   0.45231   0.32247   0.00000  Uiso   1.00
C252   C     0.46273   0.49297   0.33878   0.00000  Uiso   1.00
C253   C     0.45988   0.45665   0.35554   0.00000  Uiso   1.00
H254   H     0.34073   0.28634   0.30370   0.00000  Uiso   1.00
H255   H     0.21884   0.27077   0.29358   0.00000  Uiso   1.00
H256   H     0.42501   0.28337   0.27771   0.00000  Uiso   1.00
H257   H     0.70240   0.95075   0.00658   0.00000  Uiso   1.00
H258   H     0.09840   0.28629   0.28217   0.00000  Uiso   1.00
H259   H     0.19980   0.64618   0.58206   0.00000  Uiso   1.00
H260   H     0.74851   0.98103   0.04655   0.00000  Uiso   1.00
H261   H     0.45396   0.53888   0.30232   0.00000  Uiso   1.00
H262   H     0.33828   0.53717   0.29213   0.00000  Uiso   1.00
H263   H     0.54445   0.54976   0.27626   0.00000  Uiso   1.00
H264   H     0.48851   0.55048   0.33846   0.00000  Uiso   1.00
H265   H     0.19534   0.50251   0.28099   0.00000  Uiso   1.00
H266   H     0.63008   0.52906   0.24755   0.00000  Uiso   1.00
H267   H     0.51212   0.53058   0.37871   0.00000  Uiso   1.00
O268   O     0.06873   0.38873   0.27489   0.00000  Uiso   1.00
O269   O     0.30576   0.75689   0.56435   0.00000  Uiso   1.00
O270   O     0.48433   0.42555   0.40310   0.00000  Uiso   1.00
N271   N     0.13709   0.33742   0.28329   0.00000  Uiso   1.00
N272   N     0.54353   0.36223   0.25202   0.00000  Uiso   1.00
N273   N     0.43327   0.36366   0.37465   0.00000  Uiso   1.00
N274   N     0.18925   0.45376   0.28266   0.00000  Uiso   1.00
N275   N     0.59569   0.47858   0.25139   0.00000  Uiso   1.00
N276   N     0.48543   0.48000   0.37401   0.00000  Uiso   1.00
C277   C     0.32247   0.35581   0.63672   0.00000  Uiso   1.00
C278   C     0.29591   0.27872   0.63103   0.00000  Uiso   1.00
C279   C     0.33838   0.24965   0.62660   0.00000  Uiso   1.00
C280   C     0.30387   0.17805   0.62174   0.00000  Uiso   1.00
C281   C     0.27393   0.06459   0.61296   0.00000  Uiso   1.00
C282   C     0.28907   0.38389   0.62241   0.00000  Uiso   1.00
C283   C     0.32579   0.44326   0.61073   0.00000  Uiso   1.00
C284   C     0.28552   0.46020   0.59862   0.00000  Uiso   1.00
C285   C     0.24495   0.51005   0.57646   0.00000  Uiso   1.00
C286   C     0.28868   0.35310   0.65620   0.00000  Uiso   1.00
C287   C     0.32507   0.38660   0.67294   0.00000  Uiso   1.00
C288   C     0.28446   0.37762   0.68928   0.00000  Uiso   1.00
C289   C     0.24330   0.37967   0.71959   0.00000  Uiso   1.00
C290   C     0.18565   0.28034   0.63597   0.00000  Uiso   1.00
C291   C     0.22159   0.23773   0.63062   0.00000  Uiso   1.00
C292   C     0.18700   0.16615   0.62577   0.00000  Uiso   1.00
C293   C     0.22942   0.13698   0.62133   0.00000  Uiso   1.00
C294   C     0.21475   0.34290   0.62200   0.00000  Uiso   1.00
C295   C     0.17441   0.35976   0.60991   0.00000  Uiso   1.00
C296   C     0.21107   0.41913   0.59821   0.00000  Uiso   1.00
C297   C     0.21436   0.31211   0.65580   0.00000  Uiso   1.00
C298   C     0.17369   0.30309   0.67211   0.00000  Uiso   1.00
C299   C     0.21001   0.33656   0.68887   0.00000  Uiso   1.00
H300   H     0.38033   0.38773   0.63703   0.00000  Uiso   1.00
H301   H     0.39589   0.28140   0.62691   0.00000  Uiso   1.00
H302   H     0.38330   0.47498   0.61105   0.00000  Uiso   1.00
H303   H     0.71591   0.08498   0.33991   0.00000  Uiso   1.00
H304   H     0.38037   0.14544   0.61550   0.00000  Uiso   1.00
H305   H     0.02049   0.88696   0.91539   0.00000  Uiso   1.00
H306   H     0.68564   0.10081   0.37988   0.00000  Uiso   1.00
H307   H     0.12779   0.24842   0.63566   0.00000  Uiso   1.00
H308   H     0.12949   0.13444   0.62546   0.00000  Uiso   1.00
H309   H     0.11691   0.32802   0.60960   0.00000  Uiso   1.00
H310   H     0.11618   0.27136   0.67180   0.00000  Uiso   1.00
H311   H     0.16415   0.02616   0.61433   0.00000  Uiso   1.00
H312   H     0.13761   0.43435   0.58088   0.00000  Uiso   1.00
H313   H     0.13608   0.31487   0.71204   0.00000  Uiso   1.00
O314   O     0.27794   0.01334   0.60822   0.00000  Uiso   1.00
O315   O     0.90978   0.88221   0.89768   0.00000  Uiso   1.00
O316   O     0.24112   0.39212   0.73643   0.00000  Uiso   1.00
N317   N     0.32925   0.13300   0.61663   0.00000  Uiso   1.00
N318   N     0.30443   0.51463   0.58536   0.00000  Uiso   1.00
N319   N     0.30301   0.40294   0.70798   0.00000  Uiso   1.00
N320   N     0.21291   0.06882   0.61600   0.00000  Uiso   1.00
N321   N     0.18809   0.45045   0.58473   0.00000  Uiso   1.00
N322   N     0.18666   0.33876   0.70735   0.00000  Uiso   1.00
C323   C     0.98914   0.68914   0.97005   0.00000  Uiso   1.00
C324   C     0.96257   0.61205   0.96436   0.00000  Uiso   1.00
C325   C     0.00505   0.58299   0.95993   0.00000  Uiso   1.00
C326   C     0.97054   0.51139   0.95507   0.00000  Uiso   1.00
C327   C     0.94059   0.39793   0.94629   0.00000  Uiso   1.00
C328   C     0.95573   0.71722   0.95574   0.00000  Uiso   1.00
C329   C     0.99246   0.77659   0.94406   0.00000  Uiso   1.00
C330   C     0.95218   0.79353   0.93195   0.00000  Uiso   1.00
C331   C     0.91162   0.84338   0.90979   0.00000  Uiso   1.00
C332   C     0.95534   0.68643   0.98954   0.00000  Uiso   1.00
C333   C     0.99174   0.71993   0.00627   0.00000  Uiso   1.00
C334   C     0.95113   0.71096   0.02261   0.00000  Uiso   1.00
C335   C     0.90996   0.71300   0.05293   0.00000  Uiso   1.00
C336   C     0.85232   0.61367   0.96931   0.00000  Uiso   1.00
C337   C     0.88826   0.57106   0.96396   0.00000  Uiso   1.00
C338   C     0.85367   0.49948   0.95911   0.00000  Uiso   1.00
C339   C     0.89609   0.47032   0.95467   0.00000  Uiso   1.00
C340   C     0.88142   0.67623   0.95534   0.00000  Uiso   1.00
C341   C     0.84108   0.69309   0.94324   0.00000  Uiso   1.00
C342   C     0.87773   0.75246   0.93154   0.00000  Uiso   1.00
C343   C     0.88103   0.64544   0.98913   0.00000  Uiso   1.00
C344   C     0.84036   0.63642   0.00545   0.00000  Uiso   1.00
C345   C     0.87668   0.66989   0.02221   0.00000  Uiso   1.00
H346   H     0.04700   0.72106   0.97036   0.00000  Uiso   1.00
H347   H     0.06256   0.61473   0.96024   0.00000  Uiso   1.00
H348   H     0.04997   0.80831   0.94438   0.00000  Uiso   1.00
H349   H     0.38258   0.41831   0.67324   0.00000  Uiso   1.00
H350   H     0.04704   0.47877   0.94883   0.00000  Uiso   1.00
H351   H     0.68716   0.22029   0.24872   0.00000  Uiso   1.00
H352   H     0.35230   0.43415   0.71322   0.00000  Uiso   1.00
H353   H     0.79446   0.58175   0.96899   0.00000  Uiso   1.00
H354   H     0.79616   0.46777   0.95879   0.00000  Uiso   1.00
H355   H     0.78357   0.66135   0.94293   0.00000  Uiso   1.00
H356   H     0.78285   0.60469   0.00513   0.00000  Uiso   1.00
H357   H     0.83082   0.35950   0.94766   0.00000  Uiso   1.00
H358   H     0.80427   0.76769   0.91422   0.00000  Uiso   1.00
H359   H     0.80275   0.64820   0.04538   0.00000  Uiso   1.00
O360   O     0.94461   0.34667   0.94156   0.00000  Uiso   1.00
O361   O     0.57645   0.21554   0.23102   0.00000  Uiso   1.00
O362   O     0.90778   0.72545   0.06976   0.00000  Uiso   1.00
N363   N     0.99592   0.46634   0.94996   0.00000  Uiso   1.00
N364   N     0.97110   0.84796   0.91869   0.00000  Uiso   1.00
N365   N     0.96968   0.73628   0.04131   0.00000  Uiso   1.00
N366   N     0.87957   0.40216   0.94933   0.00000  Uiso   1.00
N367   N     0.85475   0.78378   0.91806   0.00000  Uiso   1.00
N368   N     0.85333   0.67209   0.04068   0.00000  Uiso   1.00
C369   C     0.65581   0.02248   0.30338   0.00000  Uiso   1.00
C370   C     0.62924   0.94539   0.29770   0.00000  Uiso   1.00
C371   C     0.67171   0.91632   0.29326   0.00000  Uiso   1.00
C372   C     0.63720   0.84472   0.28840   0.00000  Uiso   1.00
C373   C     0.60726   0.73126   0.27962   0.00000  Uiso   1.00
C374   C     0.62240   0.05056   0.28907   0.00000  Uiso   1.00
C375   C     0.65913   0.10993   0.27740   0.00000  Uiso   1.00
C376   C     0.61885   0.12686   0.26528   0.00000  Uiso   1.00
C377   C     0.57829   0.17672   0.24313   0.00000  Uiso   1.00
C378   C     0.62201   0.01977   0.32287   0.00000  Uiso   1.00
C379   C     0.65840   0.05326   0.33960   0.00000  Uiso   1.00
C380   C     0.61780   0.04429   0.35594   0.00000  Uiso   1.00
C381   C     0.57663   0.04634   0.38626   0.00000  Uiso   1.00
C382   C     0.51898   0.94700   0.30264   0.00000  Uiso   1.00
C383   C     0.55492   0.90439   0.29729   0.00000  Uiso   1.00
C384   C     0.52034   0.83282   0.29244   0.00000  Uiso   1.00
C385   C     0.56275   0.80365   0.28800   0.00000  Uiso   1.00
C386   C     0.54809   0.00957   0.28867   0.00000  Uiso   1.00
C387   C     0.50775   0.02642   0.27657   0.00000  Uiso   1.00
C388   C     0.54440   0.08580   0.26488   0.00000  Uiso   1.00
C389   C     0.54769   0.97877   0.32247   0.00000  Uiso   1.00
C390   C     0.50703   0.96975   0.33878   0.00000  Uiso   1.00
C391   C     0.54335   0.00322   0.35554   0.00000  Uiso   1.00
H392   H     0.71366   0.05440   0.30370   0.00000  Uiso   1.00
H393   H     0.72923   0.94806   0.29358   0.00000  Uiso   1.00
H394   H     0.71663   0.14164   0.27771   0.00000  Uiso   1.00
H395   H     0.04925   0.75165   0.00658   0.00000  Uiso   1.00
H396   H     0.71371   0.81210   0.28217   0.00000  Uiso   1.00
H397   H     0.35382   0.55362   0.58206   0.00000  Uiso   1.00
H398   H     0.01897   0.76748   0.04655   0.00000  Uiso   1.00
H399   H     0.46112   0.91509   0.30232   0.00000  Uiso   1.00
H400   H     0.46283   0.80111   0.29213   0.00000  Uiso   1.00
H401   H     0.45024   0.99469   0.27626   0.00000  Uiso   1.00
H402   H     0.44952   0.93803   0.33846   0.00000  Uiso   1.00
H403   H     0.49749   0.69283   0.28099   0.00000  Uiso   1.00
H404   H     0.47094   0.10102   0.24755   0.00000  Uiso   1.00
H405   H     0.46942   0.98154   0.37871   0.00000  Uiso   1.00
O406   O     0.61127   0.68001   0.27489   0.00000  Uiso   1.00
O407   O     0.24311   0.54887   0.56435   0.00000  Uiso   1.00
O408   O     0.57445   0.05878   0.40310   0.00000  Uiso   1.00
N409   N     0.66258   0.79967   0.28329   0.00000  Uiso   1.00
N410   N     0.63777   0.18129   0.25202   0.00000  Uiso   1.00
N411   N     0.63634   0.06961   0.37465   0.00000  Uiso   1.00
N412   N     0.54624   0.73549   0.28266   0.00000  Uiso   1.00
N413   N     0.52142   0.11711   0.25139   0.00000  Uiso   1.00
N414   N     0.52000   0.00543   0.37401   0.00000  Uiso   1.00
C415   C     0.96666   0.64419   0.86328   0.00000  Uiso   1.00
C416   C     0.01719   0.72128   0.86897   0.00000  Uiso   1.00
C417   C     0.08873   0.75035   0.87340   0.00000  Uiso   1.00
C418   C     0.12582   0.82195   0.87826   0.00000  Uiso   1.00
C419   C     0.20933   0.93541   0.88704   0.00000  Uiso   1.00
C420   C     0.90518   0.61611   0.87759   0.00000  Uiso   1.00
C421   C     0.88253   0.55674   0.88927   0.00000  Uiso   1.00
C422   C     0.82532   0.53980   0.90138   0.00000  Uiso   1.00
C423   C     0.73490   0.48995   0.92354   0.00000  Uiso   1.00
C424   C     0.93558   0.64690   0.84380   0.00000  Uiso   1.00
C425   C     0.93847   0.61340   0.82706   0.00000  Uiso   1.00
C426   C     0.90684   0.62238   0.81072   0.00000  Uiso   1.00
C427   C     0.86362   0.62033   0.78041   0.00000  Uiso   1.00
C428   C     0.90531   0.71966   0.86403   0.00000  Uiso   1.00
C429   C     0.98386   0.76227   0.86938   0.00000  Uiso   1.00
C430   C     0.02085   0.83385   0.87423   0.00000  Uiso   1.00
C431   C     0.09244   0.86302   0.87867   0.00000  Uiso   1.00
C432   C     0.87185   0.65710   0.87800   0.00000  Uiso   1.00
C433   C     0.81466   0.64024   0.89009   0.00000  Uiso   1.00
C434   C     0.79194   0.58087   0.90179   0.00000  Uiso   1.00
C435   C     0.90226   0.68789   0.84420   0.00000  Uiso   1.00
C436   C     0.87060   0.69691   0.82789   0.00000  Uiso   1.00
C437   C     0.87346   0.66344   0.81113   0.00000  Uiso   1.00
H438   H     0.99260   0.61227   0.86297   0.00000  Uiso   1.00
H439   H     0.11449   0.71860   0.87309   0.00000  Uiso   1.00
H440   H     0.90833   0.52502   0.88895   0.00000  Uiso   1.00
H441   H     0.63093   0.91502   0.16009   0.00000  Uiso   1.00
H442   H     0.23493   0.85456   0.88450   0.00000  Uiso   1.00
H443   H     0.13354   0.11304   0.58461   0.00000  Uiso   1.00
H444   H     0.58482   0.89919   0.12012   0.00000  Uiso   1.00
H445   H     0.87937   0.75158   0.86434   0.00000  Uiso   1.00
H446   H     0.99505   0.86556   0.87454   0.00000  Uiso   1.00
H447   H     0.78888   0.67198   0.89040   0.00000  Uiso   1.00
H448   H     0.84482   0.72864   0.82820   0.00000  Uiso   1.00
H449   H     0.13799   0.97384   0.88567   0.00000  Uiso   1.00
H450   H     0.70326   0.56565   0.91912   0.00000  Uiso   1.00
H451   H     0.82121   0.68513   0.78796   0.00000  Uiso   1.00
O452   O     0.26460   0.98666   0.89178   0.00000  Uiso   1.00
O453   O     0.02757   0.11779   0.60232   0.00000  Uiso   1.00
O454   O     0.84900   0.60788   0.76357   0.00000  Uiso   1.00
N455   N     0.19625   0.86700   0.88337   0.00000  Uiso   1.00
N456   N     0.78980   0.48537   0.91464   0.00000  Uiso   1.00
N457   N     0.90007   0.59706   0.79202   0.00000  Uiso   1.00
N458   N     0.14408   0.93118   0.88400   0.00000  Uiso   1.00
N459   N     0.73764   0.54955   0.91527   0.00000  Uiso   1.00
N460   N     0.84790   0.66124   0.79265   0.00000  Uiso   1.00
C461   C     0.63333   0.97752   0.19662   0.00000  Uiso   1.00
C462   C     0.68386   0.05461   0.20230   0.00000  Uiso   1.00
C463   C     0.75539   0.08368   0.20674   0.00000  Uiso   1.00
C464   C     0.79248   0.15528   0.21160   0.00000  Uiso   1.00
C465   C     0.87600   0.26874   0.22038   0.00000  Uiso   1.00
C466   C     0.57184   0.94944   0.21093   0.00000  Uiso   1.00
C467   C     0.54920   0.89007   0.22260   0.00000  Uiso   1.00
C468   C     0.49199   0.87314   0.23472   0.00000  Uiso   1.00
C469   C     0.40157   0.82328   0.25687   0.00000  Uiso   1.00
C470   C     0.60224   0.98023   0.17713   0.00000  Uiso   1.00
C471   C     0.60514   0.94674   0.16040   0.00000  Uiso   1.00
C472   C     0.57351   0.95571   0.14406   0.00000  Uiso   1.00
C473   C     0.53029   0.95366   0.11374   0.00000  Uiso   1.00
C474   C     0.57198   0.05300   0.19736   0.00000  Uiso   1.00
C475   C     0.65053   0.09561   0.20271   0.00000  Uiso   1.00
C476   C     0.68752   0.16718   0.20756   0.00000  Uiso   1.00
C477   C     0.75910   0.19635   0.21200   0.00000  Uiso   1.00
C478   C     0.53852   0.99043   0.21133   0.00000  Uiso   1.00
C479   C     0.48133   0.97358   0.22343   0.00000  Uiso   1.00
C480   C     0.45860   0.91420   0.23512   0.00000  Uiso   1.00
C481   C     0.56892   0.02123   0.17753   0.00000  Uiso   1.00
C482   C     0.53727   0.03025   0.16122   0.00000  Uiso   1.00
C483   C     0.54012   0.99678   0.14446   0.00000  Uiso   1.00
H484   H     0.65927   0.94560   0.19630   0.00000  Uiso   1.00
H485   H     0.78116   0.05194   0.20642   0.00000  Uiso   1.00
H486   H     0.57499   0.85836   0.22229   0.00000  Uiso   1.00
H487   H     0.29760   0.24835   0.49342   0.00000  Uiso   1.00
H488   H     0.90160   0.18790   0.21783   0.00000  Uiso   1.00
H489   H     0.80020   0.44638   0.91794   0.00000  Uiso   1.00
H490   H     0.25149   0.23252   0.45345   0.00000  Uiso   1.00
H491   H     0.54604   0.08491   0.19768   0.00000  Uiso   1.00
H492   H     0.66172   0.19889   0.20787   0.00000  Uiso   1.00
H493   H     0.45555   0.00531   0.22374   0.00000  Uiso   1.00
H494   H     0.51149   0.06197   0.16154   0.00000  Uiso   1.00
H495   H     0.80466   0.30717   0.21901   0.00000  Uiso   1.00
H496   H     0.36992   0.89898   0.25245   0.00000  Uiso   1.00
H497   H     0.48788   0.01846   0.12129   0.00000  Uiso   1.00
O498   O     0.93127   0.31999   0.22511   0.00000  Uiso   1.00
O499   O     0.69424   0.45113   0.93565   0.00000  Uiso   1.00
O500   O     0.51567   0.94122   0.09690   0.00000  Uiso   1.00
N501   N     0.86291   0.20033   0.21671   0.00000  Uiso   1.00
N502   N     0.45647   0.81871   0.24798   0.00000  Uiso   1.00
N503   N     0.56673   0.93039   0.12535   0.00000  Uiso   1.00
N504   N     0.81075   0.26451   0.21734   0.00000  Uiso   1.00
N505   N     0.40431   0.88289   0.24861   0.00000  Uiso   1.00
N506   N     0.51457   0.99457   0.12599   0.00000  Uiso   1.00
C507   C     0.30000   0.31086   0.52995   0.00000  Uiso   1.00
C508   C     0.35052   0.38795   0.53564   0.00000  Uiso   1.00
C509   C     0.42206   0.41701   0.54007   0.00000  Uiso   1.00
C510   C     0.45915   0.48861   0.54493   0.00000  Uiso   1.00
C511   C     0.54267   0.60207   0.55371   0.00000  Uiso   1.00
C512   C     0.23851   0.28278   0.54426   0.00000  Uiso   1.00
C513   C     0.21587   0.22341   0.55594   0.00000  Uiso   1.00
C514   C     0.15865   0.20647   0.56805   0.00000  Uiso   1.00
C515   C     0.06824   0.15662   0.59021   0.00000  Uiso   1.00
C516   C     0.26891   0.31357   0.51046   0.00000  Uiso   1.00
C517   C     0.27181   0.28007   0.49373   0.00000  Uiso   1.00
C518   C     0.24017   0.28904   0.47739   0.00000  Uiso   1.00
C519   C     0.19696   0.28700   0.44707   0.00000  Uiso   1.00
C520   C     0.23865   0.38633   0.53069   0.00000  Uiso   1.00
C521   C     0.31720   0.42894   0.53604   0.00000  Uiso   1.00
C522   C     0.35419   0.50052   0.54089   0.00000  Uiso   1.00
C523   C     0.42577   0.52968   0.54533   0.00000  Uiso   1.00
C524   C     0.20519   0.32377   0.54466   0.00000  Uiso   1.00
C525   C     0.14799   0.30691   0.55676   0.00000  Uiso   1.00
C526   C     0.12527   0.24754   0.56846   0.00000  Uiso   1.00
C527   C     0.23559   0.35456   0.51087   0.00000  Uiso   1.00
C528   C     0.20394   0.36358   0.49455   0.00000  Uiso   1.00
C529   C     0.20679   0.33011   0.47779   0.00000  Uiso   1.00
H530   H     0.32593   0.27894   0.52964   0.00000  Uiso   1.00
H531   H     0.44783   0.38527   0.53976   0.00000  Uiso   1.00
H532   H     0.24166   0.19169   0.55562   0.00000  Uiso   1.00
H533   H     0.96426   0.58169   0.82676   0.00000  Uiso   1.00
H534   H     0.56827   0.52123   0.55117   0.00000  Uiso   1.00
H535   H     0.46687   0.77971   0.25128   0.00000  Uiso   1.00
H536   H     0.91816   0.56585   0.78678   0.00000  Uiso   1.00
H537   H     0.21270   0.41825   0.53101   0.00000  Uiso   1.00
H538   H     0.32839   0.53223   0.54121   0.00000  Uiso   1.00
H539   H     0.12222   0.33865   0.55707   0.00000  Uiso   1.00
H540   H     0.17816   0.39531   0.49487   0.00000  Uiso   1.00
H541   H     0.47132   0.64050   0.55234   0.00000  Uiso   1.00
H542   H     0.03659   0.23231   0.58578   0.00000  Uiso   1.00
H543   H     0.15455   0.35180   0.45462   0.00000  Uiso   1.00
O544   O     0.59793   0.65333   0.55844   0.00000  Uiso   1.00
O545   O     0.36091   0.78446   0.26898   0.00000  Uiso   1.00
O546   O     0.18233   0.27455   0.43024   0.00000  Uiso   1.00
N547   N     0.52958   0.53366   0.55004   0.00000  Uiso   1.00
N548   N     0.12314   0.15204   0.58131   0.00000  Uiso   1.00
N549   N     0.23340   0.26372   0.45869   0.00000  Uiso   1.00
N550   N     0.47742   0.59784   0.55067   0.00000  Uiso   1.00
N551   N     0.07097   0.21622   0.58194   0.00000  Uiso   1.00
N552   N     0.18124   0.32791   0.45932   0.00000  Uiso   1.00
C553   C     0.67753   0.03334   0.86328   0.00000  Uiso   1.00
C554   C     0.70409   0.98281   0.86897   0.00000  Uiso   1.00
C555   C     0.66162   0.91127   0.87340   0.00000  Uiso   1.00
C556   C     0.69613   0.87418   0.87826   0.00000  Uiso   1.00
C557   C     0.72607   0.79067   0.88704   0.00000  Uiso   1.00
C558   C     0.71093   0.09482   0.87759   0.00000  Uiso   1.00
C559   C     0.67421   0.11747   0.88927   0.00000  Uiso   1.00
C560   C     0.71448   0.17468   0.90138   0.00000  Uiso   1.00
C561   C     0.75505   0.26510   0.92354   0.00000  Uiso   1.00
C562   C     0.71132   0.06442   0.84380   0.00000  Uiso   1.00
C563   C     0.67493   0.06153   0.82706   0.00000  Uiso   1.00
C564   C     0.71554   0.09316   0.81072   0.00000  Uiso   1.00
C565   C     0.75670   0.13638   0.78041   0.00000  Uiso   1.00
C566   C     0.81435   0.09469   0.86403   0.00000  Uiso   1.00
C567   C     0.77841   0.01614   0.86938   0.00000  Uiso   1.00
C568   C     0.81300   0.97915   0.87423   0.00000  Uiso   1.00
C569   C     0.77058   0.90756   0.87867   0.00000  Uiso   1.00
C570   C     0.78525   0.12815   0.87800   0.00000  Uiso   1.00
C571   C     0.82559   0.18534   0.89009   0.00000  Uiso   1.00
C572   C     0.78893   0.20806   0.90179   0.00000  Uiso   1.00
C573   C     0.78564   0.09774   0.84420   0.00000  Uiso   1.00
C574   C     0.82631   0.12940   0.82789   0.00000  Uiso   1.00
C575   C     0.78999   0.12654   0.81113   0.00000  Uiso   1.00
H576   H     0.61967   0.00740   0.86297   0.00000  Uiso   1.00
H577   H     0.60411   0.88551   0.87309   0.00000  Uiso   1.00
H578   H     0.61670   0.09167   0.88895   0.00000  Uiso   1.00
H579   H     0.28409   0.36907   0.16009   0.00000  Uiso   1.00
H580   H     0.61963   0.76507   0.88450   0.00000  Uiso   1.00
H581   H     0.97951   0.86646   0.58461   0.00000  Uiso   1.00
H582   H     0.31436   0.41518   0.12012   0.00000  Uiso   1.00
H583   H     0.87221   0.12063   0.86434   0.00000  Uiso   1.00
H584   H     0.87051   0.00495   0.87454   0.00000  Uiso   1.00
H585   H     0.88309   0.21112   0.89040   0.00000  Uiso   1.00
H586   H     0.88382   0.15518   0.82820   0.00000  Uiso   1.00
H587   H     0.83585   0.86201   0.88567   0.00000  Uiso   1.00
H588   H     0.86239   0.29674   0.91912   0.00000  Uiso   1.00
H589   H     0.86392   0.17879   0.78796   0.00000  Uiso   1.00
O590   O     0.72206   0.73540   0.89178   0.00000  Uiso   1.00
O591   O     0.09022   0.97243   0.60232   0.00000  Uiso   1.00
O592   O     0.75888   0.15100   0.76357   0.00000  Uiso   1.00
N593   N     0.67075   0.80375   0.88337   0.00000  Uiso   1.00
N594   N     0.69557   0.21020   0.91464   0.00000  Uiso   1.00
N595   N     0.69699   0.09993   0.79202   0.00000  Uiso   1.00
N596   N     0.78709   0.85592   0.88400   0.00000  Uiso   1.00
N597   N     0.81191   0.26236   0.91527   0.00000  Uiso   1.00
N598   N     0.81334   0.15210   0.79265   0.00000  Uiso   1.00
C599   C     0.34419   0.36667   0.19662   0.00000  Uiso   1.00
C600   C     0.37076   0.31614   0.20230   0.00000  Uiso   1.00
C601   C     0.32829   0.24461   0.20674   0.00000  Uiso   1.00
C602   C     0.36280   0.20752   0.21160   0.00000  Uiso   1.00
C603   C     0.39274   0.12400   0.22038   0.00000  Uiso   1.00
C604   C     0.37760   0.42816   0.21093   0.00000  Uiso   1.00
C605   C     0.34087   0.45080   0.22260   0.00000  Uiso   1.00
C606   C     0.38115   0.50801   0.23472   0.00000  Uiso   1.00
C607   C     0.42171   0.59843   0.25687   0.00000  Uiso   1.00
C608   C     0.37799   0.39776   0.17713   0.00000  Uiso   1.00
C609   C     0.34160   0.39486   0.16040   0.00000  Uiso   1.00
C610   C     0.38220   0.42649   0.14406   0.00000  Uiso   1.00
C611   C     0.42337   0.46971   0.11374   0.00000  Uiso   1.00
C612   C     0.48102   0.42802   0.19736   0.00000  Uiso   1.00
C613   C     0.44508   0.34947   0.20271   0.00000  Uiso   1.00
C614   C     0.47966   0.31248   0.20756   0.00000  Uiso   1.00
C615   C     0.43725   0.24090   0.21200   0.00000  Uiso   1.00
C616   C     0.45191   0.46148   0.21133   0.00000  Uiso   1.00
C617   C     0.49225   0.51867   0.22343   0.00000  Uiso   1.00
C618   C     0.45560   0.54140   0.23512   0.00000  Uiso   1.00
C619   C     0.45231   0.43108   0.17753   0.00000  Uiso   1.00
C620   C     0.49297   0.46273   0.16122   0.00000  Uiso   1.00
C621   C     0.45665   0.45988   0.14446   0.00000  Uiso   1.00
H622   H     0.28634   0.34073   0.19630   0.00000  Uiso   1.00
H623   H     0.27077   0.21884   0.20642   0.00000  Uiso   1.00
H624   H     0.28337   0.42501   0.22229   0.00000  Uiso   1.00
H625   H     0.95075   0.70240   0.49342   0.00000  Uiso   1.00
H626   H     0.28629   0.09840   0.21783   0.00000  Uiso   1.00
H627   H     0.64618   0.19980   0.91794   0.00000  Uiso   1.00
H628   H     0.98103   0.74851   0.45345   0.00000  Uiso   1.00
H629   H     0.53888   0.45396   0.19768   0.00000  Uiso   1.00
H630   H     0.53717   0.33828   0.20787   0.00000  Uiso   1.00
H631   H     0.54976   0.54445   0.22374   0.00000  Uiso   1.00
H632   H     0.55048   0.48851   0.16154   0.00000  Uiso   1.00
H633   H     0.50251   0.19534   0.21901   0.00000  Uiso   1.00
H634   H     0.52906   0.63008   0.25245   0.00000  Uiso   1.00
H635   H     0.53058   0.51212   0.12129   0.00000  Uiso   1.00
O636   O     0.38873   0.06873   0.22511   0.00000  Uiso   1.00
O637   O     0.75689   0.30576   0.93565   0.00000  Uiso   1.00
O638   O     0.42555   0.48433   0.09690   0.00000  Uiso   1.00
N639   N     0.33742   0.13709   0.21671   0.00000  Uiso   1.00
N640   N     0.36223   0.54353   0.24798   0.00000  Uiso   1.00
N641   N     0.36366   0.43327   0.12535   0.00000  Uiso   1.00
N642   N     0.45376   0.18925   0.21734   0.00000  Uiso   1.00
N643   N     0.47858   0.59569   0.24861   0.00000  Uiso   1.00
N644   N     0.48000   0.48543   0.12599   0.00000  Uiso   1.00
C645   C     0.01086   0.70000   0.52995   0.00000  Uiso   1.00
C646   C     0.03743   0.64948   0.53564   0.00000  Uiso   1.00
C647   C     0.99495   0.57794   0.54007   0.00000  Uiso   1.00
C648   C     0.02946   0.54085   0.54493   0.00000  Uiso   1.00
C649   C     0.05941   0.45733   0.55371   0.00000  Uiso   1.00
C650   C     0.04427   0.76149   0.54426   0.00000  Uiso   1.00
C651   C     0.00754   0.78413   0.55594   0.00000  Uiso   1.00
C652   C     0.04782   0.84135   0.56805   0.00000  Uiso   1.00
C653   C     0.08838   0.93176   0.59021   0.00000  Uiso   1.00
C654   C     0.04466   0.73109   0.51046   0.00000  Uiso   1.00
C655   C     0.00826   0.72819   0.49373   0.00000  Uiso   1.00
C656   C     0.04887   0.75983   0.47739   0.00000  Uiso   1.00
C657   C     0.09004   0.80304   0.44707   0.00000  Uiso   1.00
C658   C     0.14768   0.76135   0.53069   0.00000  Uiso   1.00
C659   C     0.11174   0.68280   0.53604   0.00000  Uiso   1.00
C660   C     0.14633   0.64581   0.54089   0.00000  Uiso   1.00
C661   C     0.10391   0.57423   0.54533   0.00000  Uiso   1.00
C662   C     0.11858   0.79481   0.54466   0.00000  Uiso   1.00
C663   C     0.15892   0.85201   0.55676   0.00000  Uiso   1.00
C664   C     0.12227   0.87473   0.56846   0.00000  Uiso   1.00
C665   C     0.11897   0.76441   0.51087   0.00000  Uiso   1.00
C666   C     0.15964   0.79606   0.49455   0.00000  Uiso   1.00
C667   C     0.12332   0.79321   0.47779   0.00000  Uiso   1.00
H668   H     0.95300   0.67407   0.52964   0.00000  Uiso   1.00
H669   H     0.93744   0.55217   0.53976   0.00000  Uiso   1.00
H670   H     0.95003   0.75834   0.55562   0.00000  Uiso   1.00
H671   H     0.61742   0.03574   0.82676   0.00000  Uiso   1.00
H672   H     0.95296   0.43173   0.55117   0.00000  Uiso   1.00
H673   H     0.31284   0.53313   0.25128   0.00000  Uiso   1.00
H674   H     0.64770   0.08184   0.78678   0.00000  Uiso   1.00
H675   H     0.20554   0.78730   0.53101   0.00000  Uiso   1.00
H676   H     0.20384   0.67161   0.54121   0.00000  Uiso   1.00
H677   H     0.21643   0.87778   0.55707   0.00000  Uiso   1.00
H678   H     0.21715   0.82184   0.49487   0.00000  Uiso   1.00
H679   H     0.16918   0.52868   0.55234   0.00000  Uiso   1.00
H680   H     0.19573   0.96341   0.58578   0.00000  Uiso   1.00
H681   H     0.19725   0.84545   0.45462   0.00000  Uiso   1.00
O682   O     0.05539   0.40207   0.55844   0.00000  Uiso   1.00
O683   O     0.42355   0.63909   0.26898   0.00000  Uiso   1.00
O684   O     0.09222   0.81767   0.43024   0.00000  Uiso   1.00
N685   N     0.00408   0.47042   0.55004   0.00000  Uiso   1.00
N686   N     0.02890   0.87686   0.58131   0.00000  Uiso   1.00
N687   N     0.03032   0.76660   0.45869   0.00000  Uiso   1.00
N688   N     0.12043   0.52258   0.55067   0.00000  Uiso   1.00
N689   N     0.14525   0.92903   0.58194   0.00000  Uiso   1.00
N690   N     0.14667   0.81876   0.45932   0.00000  Uiso   1.00
C691   C     0.35581   0.32247   0.86328   0.00000  Uiso   1.00
C692   C     0.27872   0.29591   0.86897   0.00000  Uiso   1.00
C693   C     0.24965   0.33838   0.87340   0.00000  Uiso   1.00
C694   C     0.17805   0.30387   0.87826   0.00000  Uiso   1.00
C695   C     0.06459   0.27393   0.88704   0.00000  Uiso   1.00
C696   C     0.38389   0.28907   0.87759   0.00000  Uiso   1.00
C697   C     0.44326   0.32579   0.88927   0.00000  Uiso   1.00
C698   C     0.46020   0.28552   0.90138   0.00000  Uiso   1.00
C699   C     0.51005   0.24495   0.92354   0.00000  Uiso   1.00
C700   C     0.35310   0.28868   0.84380   0.00000  Uiso   1.00
C701   C     0.38660   0.32507   0.82706   0.00000  Uiso   1.00
C702   C     0.37762   0.28446   0.81072   0.00000  Uiso   1.00
C703   C     0.37967   0.24330   0.78041   0.00000  Uiso   1.00
C704   C     0.28034   0.18565   0.86403   0.00000  Uiso   1.00
C705   C     0.23773   0.22159   0.86938   0.00000  Uiso   1.00
C706   C     0.16615   0.18700   0.87423   0.00000  Uiso   1.00
C707   C     0.13698   0.22942   0.87867   0.00000  Uiso   1.00
C708   C     0.34290   0.21475   0.87800   0.00000  Uiso   1.00
C709   C     0.35976   0.17441   0.89009   0.00000  Uiso   1.00
C710   C     0.41913   0.21107   0.90179   0.00000  Uiso   1.00
C711   C     0.31211   0.21436   0.84420   0.00000  Uiso   1.00
C712   C     0.30309   0.17369   0.82789   0.00000  Uiso   1.00
C713   C     0.33656   0.21001   0.81113   0.00000  Uiso   1.00
H714   H     0.38773   0.38033   0.86297   0.00000  Uiso   1.00
H715   H     0.28140   0.39589   0.87309   0.00000  Uiso   1.00
H716   H     0.47498   0.38330   0.88895   0.00000  Uiso   1.00
H717   H     0.08498   0.71591   0.16009   0.00000  Uiso   1.00
H718   H     0.14544   0.38037   0.88450   0.00000  Uiso   1.00
H719   H     0.88696   0.02049   0.58461   0.00000  Uiso   1.00
H720   H     0.10081   0.68564   0.12012   0.00000  Uiso   1.00
H721   H     0.24842   0.12779   0.86434   0.00000  Uiso   1.00
H722   H     0.13444   0.12949   0.87454   0.00000  Uiso   1.00
H723   H     0.32802   0.11691   0.89040   0.00000  Uiso   1.00
H724   H     0.27136   0.11618   0.82820   0.00000  Uiso   1.00
H725   H     0.02616   0.16415   0.88567   0.00000  Uiso   1.00
H726   H     0.43435   0.13761   0.91912   0.00000  Uiso   1.00
H727   H     0.31487   0.13608   0.78796   0.00000  Uiso   1.00
O728   O     0.01334   0.27794   0.89178   0.00000  Uiso   1.00
O729   O     0.88221   0.90978   0.60232   0.00000  Uiso   1.00
O730   O     0.39212   0.24112   0.76357   0.00000  Uiso   1.00
N731   N     0.13300   0.32925   0.88337   0.00000  Uiso   1.00
N732   N     0.51463   0.30443   0.91464   0.00000  Uiso   1.00
N733   N     0.40294   0.30301   0.79202   0.00000  Uiso   1.00
N734   N     0.06882   0.21291   0.88400   0.00000  Uiso   1.00
N735   N     0.45045   0.18809   0.91527   0.00000  Uiso   1.00
N736   N     0.33876   0.18666   0.79265   0.00000  Uiso   1.00
C737   C     0.02248   0.65581   0.19662   0.00000  Uiso   1.00
C738   C     0.94539   0.62924   0.20230   0.00000  Uiso   1.00
C739   C     0.91632   0.67171   0.20674   0.00000  Uiso   1.00
C740   C     0.84472   0.63720   0.21160   0.00000  Uiso   1.00
C741   C     0.73126   0.60726   0.22038   0.00000  Uiso   1.00
C742   C     0.05056   0.62240   0.21093   0.00000  Uiso   1.00
C743   C     0.10993   0.65913   0.22260   0.00000  Uiso   1.00
C744   C     0.12686   0.61885   0.23472   0.00000  Uiso   1.00
C745   C     0.17672   0.57829   0.25687   0.00000  Uiso   1.00
C746   C     0.01977   0.62201   0.17713   0.00000  Uiso   1.00
C747   C     0.05326   0.65840   0.16040   0.00000  Uiso   1.00
C748   C     0.04429   0.61780   0.14406   0.00000  Uiso   1.00
C749   C     0.04634   0.57663   0.11374   0.00000  Uiso   1.00
C750   C     0.94700   0.51898   0.19736   0.00000  Uiso   1.00
C751   C     0.90439   0.55492   0.20271   0.00000  Uiso   1.00
C752   C     0.83282   0.52034   0.20756   0.00000  Uiso   1.00
C753   C     0.80365   0.56275   0.21200   0.00000  Uiso   1.00
C754   C     0.00957   0.54809   0.21133   0.00000  Uiso   1.00
C755   C     0.02642   0.50775   0.22343   0.00000  Uiso   1.00
C756   C     0.08580   0.54440   0.23512   0.00000  Uiso   1.00
C757   C     0.97877   0.54769   0.17753   0.00000  Uiso   1.00
C758   C     0.96975   0.50703   0.16122   0.00000  Uiso   1.00
C759   C     0.00322   0.54335   0.14446   0.00000  Uiso   1.00
H760   H     0.05440   0.71366   0.19630   0.00000  Uiso   1.00
H761   H     0.94806   0.72923   0.20642   0.00000  Uiso   1.00
H762   H     0.14164   0.71663   0.22229   0.00000  Uiso   1.00
H763   H     0.75165   0.04925   0.49342   0.00000  Uiso   1.00
H764   H     0.81210   0.71371   0.21783   0.00000  Uiso   1.00
H765   H     0.55362   0.35382   0.91794   0.00000  Uiso   1.00
H766   H     0.76748   0.01897   0.45345   0.00000  Uiso   1.00
H767   H     0.91509   0.46112   0.19768   0.00000  Uiso   1.00
H768   H     0.80111   0.46283   0.20787   0.00000  Uiso   1.00
H769   H     0.99469   0.45024   0.22374   0.00000  Uiso   1.00
H770   H     0.93803   0.44952   0.16154   0.00000  Uiso   1.00
H771   H     0.69283   0.49749   0.21901   0.00000  Uiso   1.00
H772   H     0.10102   0.47094   0.25245   0.00000  Uiso   1.00
H773   H     0.98154   0.46942   0.12129   0.00000  Uiso   1.00
O774   O     0.68001   0.61127   0.22511   0.00000  Uiso   1.00
O775   O     0.54887   0.24311   0.93565   0.00000  Uiso   1.00
O776   O     0.05878   0.57445   0.09690   0.00000  Uiso   1.00
N777   N     0.79967   0.66258   0.21671   0.00000  Uiso   1.00
N778   N     0.18129   0.63777   0.24798   0.00000  Uiso   1.00
N779   N     0.06961   0.63634   0.12535   0.00000  Uiso   1.00
N780   N     0.73549   0.54624   0.21734   0.00000  Uiso   1.00
N781   N     0.11711   0.52142   0.24861   0.00000  Uiso   1.00
N782   N     0.00543   0.52000   0.12599   0.00000  Uiso   1.00
C783   C     0.68914   0.98914   0.52995   0.00000  Uiso   1.00
C784   C     0.61205   0.96257   0.53564   0.00000  Uiso   1.00
C785   C     0.58299   0.00505   0.54007   0.00000  Uiso   1.00
C786   C     0.51139   0.97054   0.54493   0.00000  Uiso   1.00
C787   C     0.39793   0.94059   0.55371   0.00000  Uiso   1.00
C788   C     0.71722   0.95573   0.54426   0.00000  Uiso   1.00
C789   C     0.77659   0.99246   0.55594   0.00000  Uiso   1.00
C790   C     0.79353   0.95218   0.56805   0.00000  Uiso   1.00
C791   C     0.84338   0.91162   0.59021   0.00000  Uiso   1.00
C792   C     0.68643   0.95534   0.51046   0.00000  Uiso   1.00
C793   C     0.71993   0.99174   0.49373   0.00000  Uiso   1.00
C794   C     0.71096   0.95113   0.47739   0.00000  Uiso   1.00
C795   C     0.71300   0.90996   0.44707   0.00000  Uiso   1.00
C796   C     0.61367   0.85232   0.53069   0.00000  Uiso   1.00
C797   C     0.57106   0.88826   0.53604   0.00000  Uiso   1.00
C798   C     0.49948   0.85367   0.54089   0.00000  Uiso   1.00
C799   C     0.47032   0.89609   0.54533   0.00000  Uiso   1.00
C800   C     0.67623   0.88142   0.54466   0.00000  Uiso   1.00
C801   C     0.69309   0.84108   0.55676   0.00000  Uiso   1.00
C802   C     0.75246   0.87773   0.56846   0.00000  Uiso   1.00
C803   C     0.64544   0.88103   0.51087   0.00000  Uiso   1.00
C804   C     0.63642   0.84036   0.49455   0.00000  Uiso   1.00
C805   C     0.66989   0.87668   0.47779   0.00000  Uiso   1.00
H806   H     0.72106   0.04700   0.52964   0.00000  Uiso   1.00
H807   H     0.61473   0.06256   0.53976   0.00000  Uiso   1.00
H808   H     0.80831   0.04997   0.55562   0.00000  Uiso   1.00
H809   H     0.41831   0.38258   0.82676   0.00000  Uiso   1.00
H810   H     0.47877   0.04704   0.55117   0.00000  Uiso   1.00
H811   H     0.22029   0.68716   0.25128   0.00000  Uiso   1.00
H812   H     0.43415   0.35230   0.78678   0.00000  Uiso   1.00
H813   H     0.58175   0.79446   0.53101   0.00000  Uiso   1.00
H814   H     0.46777   0.79616   0.54121   0.00000  Uiso   1.00
H815   H     0.66135   0.78357   0.55707   0.00000  Uiso   1.00
H816   H     0.60469   0.78285   0.49487   0.00000  Uiso   1.00
H817   H     0.35950   0.83082   0.55234   0.00000  Uiso   1.00
H818   H     0.76769   0.80427   0.58578   0.00000  Uiso   1.00
H819   H     0.64820   0.80275   0.45462   0.00000  Uiso   1.00
O820   O     0.34667   0.94461   0.55844   0.00000  Uiso   1.00
O821   O     0.21554   0.57645   0.26898   0.00000  Uiso   1.00
O822   O     0.72545   0.90778   0.43024   0.00000  Uiso   1.00
N823   N     0.46634   0.99592   0.55004   0.00000  Uiso   1.00
N824   N     0.84796   0.97110   0.58131   0.00000  Uiso   1.00
N825   N     0.73628   0.96968   0.45869   0.00000  Uiso   1.00
N826   N     0.40216   0.87957   0.55067   0.00000  Uiso   1.00
N827   N     0.78378   0.85475   0.58194   0.00000  Uiso   1.00
N828   N     0.67209   0.85333   0.45932   0.00000  Uiso   1.00
C829   C     0.35581   0.03334   0.36328   0.00000  Uiso   1.00
C830   C     0.27872   0.98281   0.36897   0.00000  Uiso   1.00
C831   C     0.24965   0.91127   0.37340   0.00000  Uiso   1.00
C832   C     0.17805   0.87418   0.37826   0.00000  Uiso   1.00
C833   C     0.06459   0.79067   0.38704   0.00000  Uiso   1.00
C834   C     0.38389   0.09482   0.37759   0.00000  Uiso   1.00
C835   C     0.44326   0.11747   0.38927   0.00000  Uiso   1.00
C836   C     0.46020   0.17468   0.40138   0.00000  Uiso   1.00
C837   C     0.51005   0.26510   0.42354   0.00000  Uiso   1.00
C838   C     0.35310   0.06442   0.34380   0.00000  Uiso   1.00
C839   C     0.38660   0.06153   0.32706   0.00000  Uiso   1.00
C840   C     0.37762   0.09316   0.31072   0.00000  Uiso   1.00
C841   C     0.37967   0.13638   0.28041   0.00000  Uiso   1.00
C842   C     0.28034   0.09469   0.36403   0.00000  Uiso   1.00
C843   C     0.23773   0.01614   0.36938   0.00000  Uiso   1.00
C844   C     0.16615   0.97915   0.37423   0.00000  Uiso   1.00
C845   C     0.13698   0.90756   0.37867   0.00000  Uiso   1.00
C846   C     0.34290   0.12815   0.37800   0.00000  Uiso   1.00
C847   C     0.35976   0.18534   0.39009   0.00000  Uiso   1.00
C848   C     0.41913   0.20806   0.40179   0.00000  Uiso   1.00
C849   C     0.31211   0.09774   0.34420   0.00000  Uiso   1.00
C850   C     0.30309   0.12940   0.32789   0.00000  Uiso   1.00
C851   C     0.33656   0.12654   0.31113   0.00000  Uiso   1.00
H852   H     0.38773   0.00740   0.36297   0.00000  Uiso   1.00
H853   H     0.28140   0.88551   0.37309   0.00000  Uiso   1.00
H854   H     0.47498   0.09167   0.38895   0.00000  Uiso   1.00
H855   H     0.08498   0.36907   0.66009   0.00000  Uiso   1.00
H856   H     0.14544   0.76507   0.38450   0.00000  Uiso   1.00
H857   H     0.88696   0.86646   0.08461   0.00000  Uiso   1.00
H858   H     0.10081   0.41518   0.62012   0.00000  Uiso   1.00
H859   H     0.24842   0.12063   0.36434   0.00000  Uiso   1.00
H860   H     0.13444   0.00495   0.37454   0.00000  Uiso   1.00
H861   H     0.32802   0.21112   0.39040   0.00000  Uiso   1.00
H862   H     0.27136   0.15518   0.32820   0.00000  Uiso   1.00
H863   H     0.02616   0.86201   0.38567   0.00000  Uiso   1.00
H864   H     0.43435   0.29674   0.41912   0.00000  Uiso   1.00
H865   H     0.31487   0.17879   0.28796   0.00000  Uiso   1.00
O866   O     0.01334   0.73540   0.39178   0.00000  Uiso   1.00
O867   O     0.88221   0.97243   0.10232   0.00000  Uiso   1.00
O868   O     0.39212   0.15100   0.26357   0.00000  Uiso   1.00
N869   N     0.13300   0.80375   0.38337   0.00000  Uiso   1.00
N870   N     0.51463   0.21020   0.41464   0.00000  Uiso   1.00
N871   N     0.40294   0.09993   0.29202   0.00000  Uiso   1.00
N872   N     0.06882   0.85592   0.38400   0.00000  Uiso   1.00
N873   N     0.45045   0.26236   0.41527   0.00000  Uiso   1.00
N874   N     0.33876   0.15210   0.29265   0.00000  Uiso   1.00
C875   C     0.02248   0.36667   0.69662   0.00000  Uiso   1.00
C876   C     0.94539   0.31614   0.70230   0.00000  Uiso   1.00
C877   C     0.91632   0.24461   0.70674   0.00000  Uiso   1.00
C878   C     0.84472   0.20752   0.71160   0.00000  Uiso   1.00
C879   C     0.73126   0.12400   0.72038   0.00000  Uiso   1.00
C880   C     0.05056   0.42816   0.71093   0.00000  Uiso   1.00
C881   C     0.10993   0.45080   0.72260   0.00000  Uiso   1.00
C882   C     0.12686   0.50801   0.73472   0.00000  Uiso   1.00
C883   C     0.17672   0.59843   0.75687   0.00000  Uiso   1.00
C884   C     0.01977   0.39776   0.67713   0.00000  Uiso   1.00
C885   C     0.05326   0.39486   0.66040   0.00000  Uiso   1.00
C886   C     0.04429   0.42649   0.64406   0.00000  Uiso   1.00
C887   C     0.04634   0.46971   0.61374   0.00000  Uiso   1.00
C888   C     0.94700   0.42802   0.69736   0.00000  Uiso   1.00
C889   C     0.90439   0.34947   0.70271   0.00000  Uiso   1.00
C890   C     0.83282   0.31248   0.70756   0.00000  Uiso   1.00
C891   C     0.80365   0.24090   0.71200   0.00000  Uiso   1.00
C892   C     0.00957   0.46148   0.71133   0.00000  Uiso   1.00
C893   C     0.02642   0.51867   0.72343   0.00000  Uiso   1.00
C894   C     0.08580   0.54140   0.73512   0.00000  Uiso   1.00
C895   C     0.97877   0.43108   0.67753   0.00000  Uiso   1.00
C896   C     0.96975   0.46273   0.66122   0.00000  Uiso   1.00
C897   C     0.00322   0.45988   0.64446   0.00000  Uiso   1.00
H898   H     0.05440   0.34073   0.69630   0.00000  Uiso   1.00
H899   H     0.94806   0.21884   0.70642   0.00000  Uiso   1.00
H900   H     0.14164   0.42501   0.72229   0.00000  Uiso   1.00
H901   H     0.75165   0.70240   0.99342   0.00000  Uiso   1.00
H902   H     0.81210   0.09840   0.71783   0.00000  Uiso   1.00
H903   H     0.55362   0.19980   0.41794   0.00000  Uiso   1.00
H904   H     0.76748   0.74851   0.95345   0.00000  Uiso   1.00
H905   H     0.91509   0.45396   0.69768   0.00000  Uiso   1.00
H906   H     0.80111   0.33828   0.70787   0.00000  Uiso   1.00
H907   H     0.99469   0.54445   0.72374   0.00000  Uiso   1.00
H908   H     0.93803   0.48851   0.66154   0.00000  Uiso   1.00
H909   H     0.69283   0.19534   0.71901   0.00000  Uiso   1.00
H910   H     0.10102   0.63008   0.75245   0.00000  Uiso   1.00
H911   H     0.98154   0.51212   0.62129   0.00000  Uiso   1.00
O912   O     0.68001   0.06873   0.72511   0.00000  Uiso   1.00
O913   O     0.54887   0.30576   0.43565   0.00000  Uiso   1.00
O914   O     0.05878   0.48433   0.59690   0.00000  Uiso   1.00
N915   N     0.79967   0.13709   0.71671   0.00000  Uiso   1.00
N916   N     0.18129   0.54353   0.74798   0.00000  Uiso   1.00
N917   N     0.06961   0.43327   0.62535   0.00000  Uiso   1.00
N918   N     0.73549   0.18925   0.71734   0.00000  Uiso   1.00
N919   N     0.11711   0.59569   0.74861   0.00000  Uiso   1.00
N920   N     0.00543   0.48543   0.62599   0.00000  Uiso   1.00
C921   C     0.68914   0.70000   0.02995   0.00000  Uiso   1.00
C922   C     0.61205   0.64948   0.03564   0.00000  Uiso   1.00
C923   C     0.58299   0.57794   0.04007   0.00000  Uiso   1.00
C924   C     0.51139   0.54085   0.04493   0.00000  Uiso   1.00
C925   C     0.39793   0.45733   0.05371   0.00000  Uiso   1.00
C926   C     0.71722   0.76149   0.04426   0.00000  Uiso   1.00
C927   C     0.77659   0.78413   0.05594   0.00000  Uiso   1.00
C928   C     0.79353   0.84135   0.06805   0.00000  Uiso   1.00
C929   C     0.84338   0.93176   0.09021   0.00000  Uiso   1.00
C930   C     0.68643   0.73109   0.01046   0.00000  Uiso   1.00
C931   C     0.71993   0.72819   0.99373   0.00000  Uiso   1.00
C932   C     0.71096   0.75983   0.97739   0.00000  Uiso   1.00
C933   C     0.71300   0.80304   0.94707   0.00000  Uiso   1.00
C934   C     0.61367   0.76135   0.03069   0.00000  Uiso   1.00
C935   C     0.57106   0.68280   0.03604   0.00000  Uiso   1.00
C936   C     0.49948   0.64581   0.04089   0.00000  Uiso   1.00
C937   C     0.47032   0.57423   0.04533   0.00000  Uiso   1.00
C938   C     0.67623   0.79481   0.04466   0.00000  Uiso   1.00
C939   C     0.69309   0.85201   0.05676   0.00000  Uiso   1.00
C940   C     0.75246   0.87473   0.06846   0.00000  Uiso   1.00
C941   C     0.64544   0.76441   0.01087   0.00000  Uiso   1.00
C942   C     0.63642   0.79606   0.99455   0.00000  Uiso   1.00
C943   C     0.66989   0.79321   0.97779   0.00000  Uiso   1.00
H944   H     0.72106   0.67407   0.02964   0.00000  Uiso   1.00
H945   H     0.61473   0.55217   0.03976   0.00000  Uiso   1.00
H946   H     0.80831   0.75834   0.05562   0.00000  Uiso   1.00
H947   H     0.41831   0.03574   0.32676   0.00000  Uiso   1.00
H948   H     0.47877   0.43173   0.05117   0.00000  Uiso   1.00
H949   H     0.22029   0.53313   0.75128   0.00000  Uiso   1.00
H950   H     0.43415   0.08184   0.28678   0.00000  Uiso   1.00
H951   H     0.58175   0.78730   0.03101   0.00000  Uiso   1.00
H952   H     0.46777   0.67161   0.04121   0.00000  Uiso   1.00
H953   H     0.66135   0.87778   0.05707   0.00000  Uiso   1.00
H954   H     0.60469   0.82184   0.99487   0.00000  Uiso   1.00
H955   H     0.35950   0.52868   0.05234   0.00000  Uiso   1.00
H956   H     0.76769   0.96341   0.08578   0.00000  Uiso   1.00
H957   H     0.64820   0.84545   0.95462   0.00000  Uiso   1.00
O958   O     0.34667   0.40207   0.05844   0.00000  Uiso   1.00
O959   O     0.21554   0.63909   0.76898   0.00000  Uiso   1.00
O960   O     0.72545   0.81767   0.93024   0.00000  Uiso   1.00
N961   N     0.46634   0.47042   0.05004   0.00000  Uiso   1.00
N962   N     0.84796   0.87686   0.08131   0.00000  Uiso   1.00
N963   N     0.73628   0.76660   0.95869   0.00000  Uiso   1.00
N964   N     0.40216   0.52258   0.05067   0.00000  Uiso   1.00
N965   N     0.78378   0.92903   0.08194   0.00000  Uiso   1.00
N966   N     0.67209   0.81876   0.95932   0.00000  Uiso   1.00
C967   C     0.96666   0.32247   0.36328   0.00000  Uiso   1.00
C968   C     0.01719   0.29591   0.36897   0.00000  Uiso   1.00
C969   C     0.08873   0.33838   0.37340   0.00000  Uiso   1.00
C970   C     0.12582   0.30387   0.37826   0.00000  Uiso   1.00
C971   C     0.20933   0.27393   0.38704   0.00000  Uiso   1.00
C972   C     0.90518   0.28907   0.37759   0.00000  Uiso   1.00
C973   C     0.88253   0.32579   0.38927   0.00000  Uiso   1.00
C974   C     0.82532   0.28552   0.40138   0.00000  Uiso   1.00
C975   C     0.73490   0.24495   0.42354   0.00000  Uiso   1.00
C976   C     0.93558   0.28868   0.34380   0.00000  Uiso   1.00
C977   C     0.93847   0.32507   0.32706   0.00000  Uiso   1.00
C978   C     0.90684   0.28446   0.31072   0.00000  Uiso   1.00
C979   C     0.86362   0.24330   0.28041   0.00000  Uiso   1.00
C980   C     0.90531   0.18565   0.36403   0.00000  Uiso   1.00
C981   C     0.98386   0.22159   0.36938   0.00000  Uiso   1.00
C982   C     0.02085   0.18700   0.37423   0.00000  Uiso   1.00
C983   C     0.09244   0.22942   0.37867   0.00000  Uiso   1.00
C984   C     0.87185   0.21475   0.37800   0.00000  Uiso   1.00
C985   C     0.81466   0.17441   0.39009   0.00000  Uiso   1.00
C986   C     0.79194   0.21107   0.40179   0.00000  Uiso   1.00
C987   C     0.90226   0.21436   0.34420   0.00000  Uiso   1.00
C988   C     0.87060   0.17369   0.32789   0.00000  Uiso   1.00
C989   C     0.87346   0.21001   0.31113   0.00000  Uiso   1.00
H990   H     0.99260   0.38033   0.36297   0.00000  Uiso   1.00
H991   H     0.11449   0.39589   0.37309   0.00000  Uiso   1.00
H992   H     0.90833   0.38330   0.38895   0.00000  Uiso   1.00
H993   H     0.63093   0.71591   0.66009   0.00000  Uiso   1.00
H994   H     0.23493   0.38037   0.38450   0.00000  Uiso   1.00
H995   H     0.13354   0.02049   0.08461   0.00000  Uiso   1.00
H996   H     0.58482   0.68564   0.62012   0.00000  Uiso   1.00
H997   H     0.87937   0.12779   0.36434   0.00000  Uiso   1.00
H998   H     0.99505   0.12949   0.37454   0.00000  Uiso   1.00
H999   H     0.78888   0.11691   0.39040   0.00000  Uiso   1.00
H1000  H     0.84482   0.11618   0.32820   0.00000  Uiso   1.00
H1001  H     0.13799   0.16415   0.38567   0.00000  Uiso   1.00
H1002  H     0.70326   0.13761   0.41912   0.00000  Uiso   1.00
H1003  H     0.82121   0.13608   0.28796   0.00000  Uiso   1.00
O1004  O     0.26460   0.27794   0.39178   0.00000  Uiso   1.00
O1005  O     0.02757   0.90978   0.10232   0.00000  Uiso   1.00
O1006  O     0.84900   0.24112   0.26357   0.00000  Uiso   1.00
N1007  N     0.19625   0.32925   0.38337   0.00000  Uiso   1.00
N1008  N     0.78980   0.30443   0.41464   0.00000  Uiso   1.00
N1009  N     0.90007   0.30301   0.29202   0.00000  Uiso   1.00
N1010  N     0.14408   0.21291   0.38400   0.00000  Uiso   1.00
N1011  N     0.73764   0.18809   0.41527   0.00000  Uiso   1.00
N1012  N     0.84790   0.18666   0.29265   0.00000  Uiso   1.00
C1013  C     0.63333   0.65581   0.69662   0.00000  Uiso   1.00
C1014  C     0.68386   0.62924   0.70230   0.00000  Uiso   1.00
C1015  C     0.75539   0.67171   0.70674   0.00000  Uiso   1.00
C1016  C     0.79248   0.63720   0.71160   0.00000  Uiso   1.00
C1017  C     0.87600   0.60726   0.72038   0.00000  Uiso   1.00
C1018  C     0.57184   0.62240   0.71093   0.00000  Uiso   1.00
C1019  C     0.54920   0.65913   0.72260   0.00000  Uiso   1.00
C1020  C     0.49199   0.61885   0.73472   0.00000  Uiso   1.00
C1021  C     0.40157   0.57829   0.75687   0.00000  Uiso   1.00
C1022  C     0.60224   0.62201   0.67713   0.00000  Uiso   1.00
C1023  C     0.60514   0.65840   0.66040   0.00000  Uiso   1.00
C1024  C     0.57351   0.61780   0.64406   0.00000  Uiso   1.00
C1025  C     0.53029   0.57663   0.61374   0.00000  Uiso   1.00
C1026  C     0.57198   0.51898   0.69736   0.00000  Uiso   1.00
C1027  C     0.65053   0.55492   0.70271   0.00000  Uiso   1.00
C1028  C     0.68752   0.52034   0.70756   0.00000  Uiso   1.00
C1029  C     0.75910   0.56275   0.71200   0.00000  Uiso   1.00
C1030  C     0.53852   0.54809   0.71133   0.00000  Uiso   1.00
C1031  C     0.48133   0.50775   0.72343   0.00000  Uiso   1.00
C1032  C     0.45860   0.54440   0.73512   0.00000  Uiso   1.00
C1033  C     0.56892   0.54769   0.67753   0.00000  Uiso   1.00
C1034  C     0.53727   0.50703   0.66122   0.00000  Uiso   1.00
C1035  C     0.54012   0.54335   0.64446   0.00000  Uiso   1.00
H1036  H     0.65927   0.71366   0.69630   0.00000  Uiso   1.00
H1037  H     0.78116   0.72923   0.70642   0.00000  Uiso   1.00
H1038  H     0.57499   0.71663   0.72229   0.00000  Uiso   1.00
H1039  H     0.29760   0.04925   0.99342   0.00000  Uiso   1.00
H1040  H     0.90160   0.71371   0.71783   0.00000  Uiso   1.00
H1041  H     0.80020   0.35382   0.41794   0.00000  Uiso   1.00
H1042  H     0.25149   0.01897   0.95345   0.00000  Uiso   1.00
H1043  H     0.54604   0.46112   0.69768   0.00000  Uiso   1.00
H1044  H     0.66172   0.46283   0.70787   0.00000  Uiso   1.00
H1045  H     0.45555   0.45024   0.72374   0.00000  Uiso   1.00
H1046  H     0.51149   0.44952   0.66154   0.00000  Uiso   1.00
H1047  H     0.80466   0.49749   0.71901   0.00000  Uiso   1.00
H1048  H     0.36992   0.47094   0.75245   0.00000  Uiso   1.00
H1049  H     0.48788   0.46942   0.62129   0.00000  Uiso   1.00
O1050  O     0.93127   0.61127   0.72511   0.00000  Uiso   1.00
O1051  O     0.69424   0.24311   0.43565   0.00000  Uiso   1.00
O1052  O     0.51567   0.57445   0.59690   0.00000  Uiso   1.00
N1053  N     0.86291   0.66258   0.71671   0.00000  Uiso   1.00
N1054  N     0.45647   0.63777   0.74798   0.00000  Uiso   1.00
N1055  N     0.56673   0.63634   0.62535   0.00000  Uiso   1.00
N1056  N     0.81075   0.54624   0.71734   0.00000  Uiso   1.00
N1057  N     0.40431   0.52142   0.74861   0.00000  Uiso   1.00
N1058  N     0.51457   0.52000   0.62599   0.00000  Uiso   1.00
C1059  C     0.30000   0.98914   0.02995   0.00000  Uiso   1.00
C1060  C     0.35052   0.96257   0.03564   0.00000  Uiso   1.00
C1061  C     0.42206   0.00505   0.04007   0.00000  Uiso   1.00
C1062  C     0.45915   0.97054   0.04493   0.00000  Uiso   1.00
C1063  C     0.54267   0.94059   0.05371   0.00000  Uiso   1.00
C1064  C     0.23851   0.95573   0.04426   0.00000  Uiso   1.00
C1065  C     0.21587   0.99246   0.05594   0.00000  Uiso   1.00
C1066  C     0.15865   0.95218   0.06805   0.00000  Uiso   1.00
C1067  C     0.06824   0.91162   0.09021   0.00000  Uiso   1.00
C1068  C     0.26891   0.95534   0.01046   0.00000  Uiso   1.00
C1069  C     0.27181   0.99174   0.99373   0.00000  Uiso   1.00
C1070  C     0.24017   0.95113   0.97739   0.00000  Uiso   1.00
C1071  C     0.19696   0.90996   0.94707   0.00000  Uiso   1.00
C1072  C     0.23865   0.85232   0.03069   0.00000  Uiso   1.00
C1073  C     0.31720   0.88826   0.03604   0.00000  Uiso   1.00
C1074  C     0.35419   0.85367   0.04089   0.00000  Uiso   1.00
C1075  C     0.42577   0.89609   0.04533   0.00000  Uiso   1.00
C1076  C     0.20519   0.88142   0.04466   0.00000  Uiso   1.00
C1077  C     0.14799   0.84108   0.05676   0.00000  Uiso   1.00
C1078  C     0.12527   0.87773   0.06846   0.00000  Uiso   1.00
C1079  C     0.23559   0.88103   0.01087   0.00000  Uiso   1.00
C1080  C     0.20394   0.84036   0.99455   0.00000  Uiso   1.00
C1081  C     0.20679   0.87668   0.97779   0.00000  Uiso   1.00
H1082  H     0.32593   0.04700   0.02964   0.00000  Uiso   1.00
H1083  H     0.44783   0.06256   0.03976   0.00000  Uiso   1.00
H1084  H     0.24166   0.04997   0.05562   0.00000  Uiso   1.00
H1085  H     0.96426   0.38258   0.32676   0.00000  Uiso   1.00
H1086  H     0.56827   0.04704   0.05117   0.00000  Uiso   1.00
H1087  H     0.46687   0.68716   0.75128   0.00000  Uiso   1.00
H1088  H     0.91816   0.35230   0.28678   0.00000  Uiso   1.00
H1089  H     0.21270   0.79446   0.03101   0.00000  Uiso   1.00
H1090  H     0.32839   0.79616   0.04121   0.00000  Uiso   1.00
H1091  H     0.12222   0.78357   0.05707   0.00000  Uiso   1.00
H1092  H     0.17816   0.78285   0.99487   0.00000  Uiso   1.00
H1093  H     0.47132   0.83082   0.05234   0.00000  Uiso   1.00
H1094  H     0.03659   0.80427   0.08578   0.00000  Uiso   1.00
H1095  H     0.15455   0.80275   0.95462   0.00000  Uiso   1.00
O1096  O     0.59793   0.94461   0.05844   0.00000  Uiso   1.00
O1097  O     0.36091   0.57645   0.76898   0.00000  Uiso   1.00
O1098  O     0.18233   0.90778   0.93024   0.00000  Uiso   1.00
N1099  N     0.52958   0.99592   0.05004   0.00000  Uiso   1.00
N1100  N     0.12314   0.97110   0.08131   0.00000  Uiso   1.00
N1101  N     0.23340   0.96968   0.95869   0.00000  Uiso   1.00
N1102  N     0.47742   0.87957   0.05067   0.00000  Uiso   1.00
N1103  N     0.07097   0.85475   0.08194   0.00000  Uiso   1.00
N1104  N     0.18124   0.85333   0.95932   0.00000  Uiso   1.00
C1105  C     0.67753   0.64419   0.36328   0.00000  Uiso   1.00
C1106  C     0.70409   0.72128   0.36897   0.00000  Uiso   1.00
C1107  C     0.66162   0.75035   0.37340   0.00000  Uiso   1.00
C1108  C     0.69613   0.82195   0.37826   0.00000  Uiso   1.00
C1109  C     0.72607   0.93541   0.38704   0.00000  Uiso   1.00
C1110  C     0.71093   0.61611   0.37759   0.00000  Uiso   1.00
C1111  C     0.67421   0.55674   0.38927   0.00000  Uiso   1.00
C1112  C     0.71448   0.53980   0.40138   0.00000  Uiso   1.00
C1113  C     0.75505   0.48995   0.42354   0.00000  Uiso   1.00
C1114  C     0.71132   0.64690   0.34380   0.00000  Uiso   1.00
C1115  C     0.67493   0.61340   0.32706   0.00000  Uiso   1.00
C1116  C     0.71554   0.62238   0.31072   0.00000  Uiso   1.00
C1117  C     0.75670   0.62033   0.28041   0.00000  Uiso   1.00
C1118  C     0.81435   0.71966   0.36403   0.00000  Uiso   1.00
C1119  C     0.77841   0.76227   0.36938   0.00000  Uiso   1.00
C1120  C     0.81300   0.83385   0.37423   0.00000  Uiso   1.00
C1121  C     0.77058   0.86302   0.37867   0.00000  Uiso   1.00
C1122  C     0.78525   0.65710   0.37800   0.00000  Uiso   1.00
C1123  C     0.82559   0.64024   0.39009   0.00000  Uiso   1.00
C1124  C     0.78893   0.58087   0.40179   0.00000  Uiso   1.00
C1125  C     0.78564   0.68789   0.34420   0.00000  Uiso   1.00
C1126  C     0.82631   0.69691   0.32789   0.00000  Uiso   1.00
C1127  C     0.78999   0.66344   0.31113   0.00000  Uiso   1.00
H1128  H     0.61967   0.61227   0.36297   0.00000  Uiso   1.00
H1129  H     0.60411   0.71860   0.37309   0.00000  Uiso   1.00
H1130  H     0.61670   0.52502   0.38895   0.00000  Uiso   1.00
H1131  H     0.28409   0.91502   0.66009   0.00000  Uiso   1.00
H1132  H     0.61963   0.85456   0.38450   0.00000  Uiso   1.00
H1133  H     0.97951   0.11304   0.08461   0.00000  Uiso   1.00
H1134  H     0.31436   0.89919   0.62012   0.00000  Uiso   1.00
H1135  H     0.87221   0.75158   0.36434   0.00000  Uiso   1.00
H1136  H     0.87051   0.86556   0.37454   0.00000  Uiso   1.00
H1137  H     0.88309   0.67198   0.39040   0.00000  Uiso   1.00
H1138  H     0.88382   0.72864   0.32820   0.00000  Uiso   1.00
H1139  H     0.83585   0.97384   0.38567   0.00000  Uiso   1.00
H1140  H     0.86239   0.56565   0.41912   0.00000  Uiso   1.00
H1141  H     0.86392   0.68513   0.28796   0.00000  Uiso   1.00
O1142  O     0.72206   0.98666   0.39178   0.00000  Uiso   1.00
O1143  O     0.09022   0.11779   0.10232   0.00000  Uiso   1.00
O1144  O     0.75888   0.60788   0.26357   0.00000  Uiso   1.00
N1145  N     0.67075   0.86700   0.38337   0.00000  Uiso   1.00
N1146  N     0.69557   0.48537   0.41464   0.00000  Uiso   1.00
N1147  N     0.69699   0.59706   0.29202   0.00000  Uiso   1.00
N1148  N     0.78709   0.93118   0.38400   0.00000  Uiso   1.00
N1149  N     0.81191   0.54955   0.41527   0.00000  Uiso   1.00
N1150  N     0.81334   0.66124   0.29265   0.00000  Uiso   1.00
C1151  C     0.34419   0.97752   0.69662   0.00000  Uiso   1.00
C1152  C     0.37076   0.05461   0.70230   0.00000  Uiso   1.00
C1153  C     0.32829   0.08368   0.70674   0.00000  Uiso   1.00
C1154  C     0.36280   0.15528   0.71160   0.00000  Uiso   1.00
C1155  C     0.39274   0.26874   0.72038   0.00000  Uiso   1.00
C1156  C     0.37760   0.94944   0.71093   0.00000  Uiso   1.00
C1157  C     0.34087   0.89007   0.72260   0.00000  Uiso   1.00
C1158  C     0.38115   0.87314   0.73472   0.00000  Uiso   1.00
C1159  C     0.42171   0.82328   0.75687   0.00000  Uiso   1.00
C1160  C     0.37799   0.98023   0.67713   0.00000  Uiso   1.00
C1161  C     0.34160   0.94674   0.66040   0.00000  Uiso   1.00
C1162  C     0.38220   0.95571   0.64406   0.00000  Uiso   1.00
C1163  C     0.42337   0.95366   0.61374   0.00000  Uiso   1.00
C1164  C     0.48102   0.05300   0.69736   0.00000  Uiso   1.00
C1165  C     0.44508   0.09561   0.70271   0.00000  Uiso   1.00
C1166  C     0.47966   0.16718   0.70756   0.00000  Uiso   1.00
C1167  C     0.43725   0.19635   0.71200   0.00000  Uiso   1.00
C1168  C     0.45191   0.99043   0.71133   0.00000  Uiso   1.00
C1169  C     0.49225   0.97358   0.72343   0.00000  Uiso   1.00
C1170  C     0.45560   0.91420   0.73512   0.00000  Uiso   1.00
C1171  C     0.45231   0.02123   0.67753   0.00000  Uiso   1.00
C1172  C     0.49297   0.03025   0.66122   0.00000  Uiso   1.00
C1173  C     0.45665   0.99678   0.64446   0.00000  Uiso   1.00
H1174  H     0.28634   0.94560   0.69630   0.00000  Uiso   1.00
H1175  H     0.27077   0.05194   0.70642   0.00000  Uiso   1.00
H1176  H     0.28337   0.85836   0.72229   0.00000  Uiso   1.00
H1177  H     0.95075   0.24835   0.99342   0.00000  Uiso   1.00
H1178  H     0.28629   0.18790   0.71783   0.00000  Uiso   1.00
H1179  H     0.64618   0.44638   0.41794   0.00000  Uiso   1.00
H1180  H     0.98103   0.23252   0.95345   0.00000  Uiso   1.00
H1181  H     0.53888   0.08491   0.69768   0.00000  Uiso   1.00
H1182  H     0.53717   0.19889   0.70787   0.00000  Uiso   1.00
H1183  H     0.54976   0.00531   0.72374   0.00000  Uiso   1.00
H1184  H     0.55048   0.06197   0.66154   0.00000  Uiso   1.00
H1185  H     0.50251   0.30717   0.71901   0.00000  Uiso   1.00
H1186  H     0.52906   0.89898   0.75245   0.00000  Uiso   1.00
H1187  H     0.53058   0.01846   0.62129   0.00000  Uiso   1.00
O1188  O     0.38873   0.31999   0.72511   0.00000  Uiso   1.00
O1189  O     0.75689   0.45113   0.43565   0.00000  Uiso   1.00
O1190  O     0.42555   0.94122   0.59690   0.00000  Uiso   1.00
N1191  N     0.33742   0.20033   0.71671   0.00000  Uiso   1.00
N1192  N     0.36223   0.81871   0.74798   0.00000  Uiso   1.00
N1193  N     0.36366   0.93039   0.62535   0.00000  Uiso   1.00
N1194  N     0.45376   0.26451   0.71734   0.00000  Uiso   1.00
N1195  N     0.47858   0.88289   0.74861   0.00000  Uiso   1.00
N1196  N     0.48000   0.99457   0.62599   0.00000  Uiso   1.00
C1197  C     0.01086   0.31086   0.02995   0.00000  Uiso   1.00
C1198  C     0.03743   0.38795   0.03564   0.00000  Uiso   1.00
C1199  C     0.99495   0.41701   0.04007   0.00000  Uiso   1.00
C1200  C     0.02946   0.48861   0.04493   0.00000  Uiso   1.00
C1201  C     0.05941   0.60207   0.05371   0.00000  Uiso   1.00
C1202  C     0.04427   0.28278   0.04426   0.00000  Uiso   1.00
C1203  C     0.00754   0.22341   0.05594   0.00000  Uiso   1.00
C1204  C     0.04782   0.20647   0.06805   0.00000  Uiso   1.00
C1205  C     0.08838   0.15662   0.09021   0.00000  Uiso   1.00
C1206  C     0.04466   0.31357   0.01046   0.00000  Uiso   1.00
C1207  C     0.00826   0.28007   0.99373   0.00000  Uiso   1.00
C1208  C     0.04887   0.28904   0.97739   0.00000  Uiso   1.00
C1209  C     0.09004   0.28700   0.94707   0.00000  Uiso   1.00
C1210  C     0.14768   0.38633   0.03069   0.00000  Uiso   1.00
C1211  C     0.11174   0.42894   0.03604   0.00000  Uiso   1.00
C1212  C     0.14633   0.50052   0.04089   0.00000  Uiso   1.00
C1213  C     0.10391   0.52968   0.04533   0.00000  Uiso   1.00
C1214  C     0.11858   0.32377   0.04466   0.00000  Uiso   1.00
C1215  C     0.15892   0.30691   0.05676   0.00000  Uiso   1.00
C1216  C     0.12227   0.24754   0.06846   0.00000  Uiso   1.00
C1217  C     0.11897   0.35456   0.01087   0.00000  Uiso   1.00
C1218  C     0.15964   0.36358   0.99455   0.00000  Uiso   1.00
C1219  C     0.12332   0.33011   0.97779   0.00000  Uiso   1.00
H1220  H     0.95300   0.27894   0.02964   0.00000  Uiso   1.00
H1221  H     0.93744   0.38527   0.03976   0.00000  Uiso   1.00
H1222  H     0.95003   0.19169   0.05562   0.00000  Uiso   1.00
H1223  H     0.61742   0.58169   0.32676   0.00000  Uiso   1.00
H1224  H     0.95296   0.52123   0.05117   0.00000  Uiso   1.00
H1225  H     0.31284   0.77971   0.75128   0.00000  Uiso   1.00
H1226  H     0.64770   0.56585   0.28678   0.00000  Uiso   1.00
H1227  H     0.20554   0.41825   0.03101   0.00000  Uiso   1.00
H1228  H     0.20384   0.53223   0.04121   0.00000  Uiso   1.00
H1229  H     0.21643   0.33865   0.05707   0.00000  Uiso   1.00
H1230  H     0.21715   0.39531   0.99487   0.00000  Uiso   1.00
H1231  H     0.16918   0.64050   0.05234   0.00000  Uiso   1.00
H1232  H     0.19573   0.23231   0.08578   0.00000  Uiso   1.00
H1233  H     0.19725   0.35180   0.95462   0.00000  Uiso   1.00
O1234  O     0.05539   0.65333   0.05844   0.00000  Uiso   1.00
O1235  O     0.42355   0.78446   0.76898   0.00000  Uiso   1.00
O1236  O     0.09222   0.27455   0.93024   0.00000  Uiso   1.00
N1237  N     0.00408   0.53366   0.05004   0.00000  Uiso   1.00
N1238  N     0.02890   0.15204   0.08131   0.00000  Uiso   1.00
N1239  N     0.03032   0.26372   0.95869   0.00000  Uiso   1.00
N1240  N     0.12043   0.59784   0.05067   0.00000  Uiso   1.00
N1241  N     0.14525   0.21622   0.08194   0.00000  Uiso   1.00
N1242  N     0.14667   0.32791   0.95932   0.00000  Uiso   1.00
C1243  C     0.03334   0.35581   0.13672   0.00000  Uiso   1.00
C1244  C     0.98281   0.27872   0.13103   0.00000  Uiso   1.00
C1245  C     0.91127   0.24965   0.12660   0.00000  Uiso   1.00
C1246  C     0.87418   0.17805   0.12174   0.00000  Uiso   1.00
C1247  C     0.79067   0.06459   0.11296   0.00000  Uiso   1.00
C1248  C     0.09482   0.38389   0.12241   0.00000  Uiso   1.00
C1249  C     0.11747   0.44326   0.11073   0.00000  Uiso   1.00
C1250  C     0.17468   0.46020   0.09862   0.00000  Uiso   1.00
C1251  C     0.26510   0.51005   0.07646   0.00000  Uiso   1.00
C1252  C     0.06442   0.35310   0.15620   0.00000  Uiso   1.00
C1253  C     0.06153   0.38660   0.17294   0.00000  Uiso   1.00
C1254  C     0.09316   0.37762   0.18928   0.00000  Uiso   1.00
C1255  C     0.13638   0.37967   0.21959   0.00000  Uiso   1.00
C1256  C     0.09469   0.28034   0.13597   0.00000  Uiso   1.00
C1257  C     0.01614   0.23773   0.13062   0.00000  Uiso   1.00
C1258  C     0.97915   0.16615   0.12577   0.00000  Uiso   1.00
C1259  C     0.90756   0.13698   0.12133   0.00000  Uiso   1.00
C1260  C     0.12815   0.34290   0.12200   0.00000  Uiso   1.00
C1261  C     0.18534   0.35976   0.10991   0.00000  Uiso   1.00
C1262  C     0.20806   0.41913   0.09821   0.00000  Uiso   1.00
C1263  C     0.09774   0.31211   0.15580   0.00000  Uiso   1.00
C1264  C     0.12940   0.30309   0.17211   0.00000  Uiso   1.00
C1265  C     0.12654   0.33656   0.18887   0.00000  Uiso   1.00
H1266  H     0.00740   0.38773   0.13703   0.00000  Uiso   1.00
H1267  H     0.88551   0.28140   0.12691   0.00000  Uiso   1.00
H1268  H     0.09167   0.47498   0.11105   0.00000  Uiso   1.00
H1269  H     0.36907   0.08498   0.83991   0.00000  Uiso   1.00
H1270  H     0.76507   0.14544   0.11550   0.00000  Uiso   1.00
H1271  H     0.86646   0.88696   0.41539   0.00000  Uiso   1.00
H1272  H     0.41518   0.10081   0.87988   0.00000  Uiso   1.00
H1273  H     0.12063   0.24842   0.13566   0.00000  Uiso   1.00
H1274  H     0.00495   0.13444   0.12546   0.00000  Uiso   1.00
H1275  H     0.21112   0.32802   0.10960   0.00000  Uiso   1.00
H1276  H     0.15518   0.27136   0.17180   0.00000  Uiso   1.00
H1277  H     0.86201   0.02616   0.11433   0.00000  Uiso   1.00
H1278  H     0.29674   0.43435   0.08088   0.00000  Uiso   1.00
H1279  H     0.17879   0.31487   0.21204   0.00000  Uiso   1.00
O1280  O     0.73540   0.01334   0.10822   0.00000  Uiso   1.00
O1281  O     0.97243   0.88221   0.39768   0.00000  Uiso   1.00
O1282  O     0.15100   0.39212   0.23643   0.00000  Uiso   1.00
N1283  N     0.80375   0.13300   0.11663   0.00000  Uiso   1.00
N1284  N     0.21020   0.51463   0.08536   0.00000  Uiso   1.00
N1285  N     0.09993   0.40294   0.20798   0.00000  Uiso   1.00
N1286  N     0.85592   0.06882   0.11600   0.00000  Uiso   1.00
N1287  N     0.26236   0.45045   0.08473   0.00000  Uiso   1.00
N1288  N     0.15210   0.33876   0.20735   0.00000  Uiso   1.00
C1289  C     0.70000   0.68914   0.47005   0.00000  Uiso   1.00
C1290  C     0.64948   0.61205   0.46436   0.00000  Uiso   1.00
C1291  C     0.57794   0.58299   0.45993   0.00000  Uiso   1.00
C1292  C     0.54085   0.51139   0.45507   0.00000  Uiso   1.00
C1293  C     0.45733   0.39793   0.44629   0.00000  Uiso   1.00
C1294  C     0.76149   0.71722   0.45574   0.00000  Uiso   1.00
C1295  C     0.78413   0.77659   0.44406   0.00000  Uiso   1.00
C1296  C     0.84135   0.79353   0.43195   0.00000  Uiso   1.00
C1297  C     0.93176   0.84338   0.40979   0.00000  Uiso   1.00
C1298  C     0.73109   0.68643   0.48954   0.00000  Uiso   1.00
C1299  C     0.72819   0.71993   0.50627   0.00000  Uiso   1.00
C1300  C     0.75983   0.71096   0.52261   0.00000  Uiso   1.00
C1301  C     0.80304   0.71300   0.55293   0.00000  Uiso   1.00
C1302  C     0.76135   0.61367   0.46931   0.00000  Uiso   1.00
C1303  C     0.68280   0.57106   0.46396   0.00000  Uiso   1.00
C1304  C     0.64581   0.49948   0.45911   0.00000  Uiso   1.00
C1305  C     0.57423   0.47032   0.45467   0.00000  Uiso   1.00
C1306  C     0.79481   0.67623   0.45534   0.00000  Uiso   1.00
C1307  C     0.85201   0.69309   0.44324   0.00000  Uiso   1.00
C1308  C     0.87473   0.75246   0.43154   0.00000  Uiso   1.00
C1309  C     0.76441   0.64544   0.48913   0.00000  Uiso   1.00
C1310  C     0.79606   0.63642   0.50545   0.00000  Uiso   1.00
C1311  C     0.79321   0.66989   0.52221   0.00000  Uiso   1.00
H1312  H     0.67407   0.72106   0.47036   0.00000  Uiso   1.00
H1313  H     0.55217   0.61473   0.46024   0.00000  Uiso   1.00
H1314  H     0.75834   0.80831   0.44438   0.00000  Uiso   1.00
H1315  H     0.03574   0.41831   0.17324   0.00000  Uiso   1.00
H1316  H     0.43173   0.47877   0.44883   0.00000  Uiso   1.00
H1317  H     0.53313   0.22029   0.74872   0.00000  Uiso   1.00
H1318  H     0.08184   0.43415   0.21322   0.00000  Uiso   1.00
H1319  H     0.78730   0.58175   0.46899   0.00000  Uiso   1.00
H1320  H     0.67161   0.46777   0.45879   0.00000  Uiso   1.00
H1321  H     0.87778   0.66135   0.44293   0.00000  Uiso   1.00
H1322  H     0.82184   0.60469   0.50513   0.00000  Uiso   1.00
H1323  H     0.52868   0.35950   0.44766   0.00000  Uiso   1.00
H1324  H     0.96341   0.76769   0.41422   0.00000  Uiso   1.00
H1325  H     0.84545   0.64820   0.54538   0.00000  Uiso   1.00
O1326  O     0.40207   0.34667   0.44156   0.00000  Uiso   1.00
O1327  O     0.63909   0.21554   0.73102   0.00000  Uiso   1.00
O1328  O     0.81767   0.72545   0.56976   0.00000  Uiso   1.00
N1329  N     0.47042   0.46634   0.44996   0.00000  Uiso   1.00
N1330  N     0.87686   0.84796   0.41869   0.00000  Uiso   1.00
N1331  N     0.76660   0.73628   0.54131   0.00000  Uiso   1.00
N1332  N     0.52258   0.40216   0.44933   0.00000  Uiso   1.00
N1333  N     0.92903   0.78378   0.41806   0.00000  Uiso   1.00
N1334  N     0.81876   0.67209   0.54068   0.00000  Uiso   1.00
C1335  C     0.36667   0.02248   0.80338   0.00000  Uiso   1.00
C1336  C     0.31614   0.94539   0.79770   0.00000  Uiso   1.00
C1337  C     0.24461   0.91632   0.79326   0.00000  Uiso   1.00
C1338  C     0.20752   0.84472   0.78840   0.00000  Uiso   1.00
C1339  C     0.12400   0.73126   0.77962   0.00000  Uiso   1.00
C1340  C     0.42816   0.05056   0.78907   0.00000  Uiso   1.00
C1341  C     0.45080   0.10993   0.77740   0.00000  Uiso   1.00
C1342  C     0.50801   0.12686   0.76528   0.00000  Uiso   1.00
C1343  C     0.59843   0.17672   0.74313   0.00000  Uiso   1.00
C1344  C     0.39776   0.01977   0.82287   0.00000  Uiso   1.00
C1345  C     0.39486   0.05326   0.83960   0.00000  Uiso   1.00
C1346  C     0.42649   0.04429   0.85594   0.00000  Uiso   1.00
C1347  C     0.46971   0.04634   0.88626   0.00000  Uiso   1.00
C1348  C     0.42802   0.94700   0.80264   0.00000  Uiso   1.00
C1349  C     0.34947   0.90439   0.79729   0.00000  Uiso   1.00
C1350  C     0.31248   0.83282   0.79244   0.00000  Uiso   1.00
C1351  C     0.24090   0.80365   0.78800   0.00000  Uiso   1.00
C1352  C     0.46148   0.00957   0.78867   0.00000  Uiso   1.00
C1353  C     0.51867   0.02642   0.77657   0.00000  Uiso   1.00
C1354  C     0.54140   0.08580   0.76488   0.00000  Uiso   1.00
C1355  C     0.43108   0.97877   0.82247   0.00000  Uiso   1.00
C1356  C     0.46273   0.96975   0.83878   0.00000  Uiso   1.00
C1357  C     0.45988   0.00322   0.85554   0.00000  Uiso   1.00
H1358  H     0.34073   0.05440   0.80370   0.00000  Uiso   1.00
H1359  H     0.21884   0.94806   0.79358   0.00000  Uiso   1.00
H1360  H     0.42501   0.14164   0.77771   0.00000  Uiso   1.00
H1361  H     0.70240   0.75165   0.50658   0.00000  Uiso   1.00
H1362  H     0.09840   0.81210   0.78217   0.00000  Uiso   1.00
H1363  H     0.19980   0.55362   0.08206   0.00000  Uiso   1.00
H1364  H     0.74851   0.76748   0.54655   0.00000  Uiso   1.00
H1365  H     0.45396   0.91509   0.80232   0.00000  Uiso   1.00
H1366  H     0.33828   0.80111   0.79213   0.00000  Uiso   1.00
H1367  H     0.54445   0.99469   0.77626   0.00000  Uiso   1.00
H1368  H     0.48851   0.93803   0.83846   0.00000  Uiso   1.00
H1369  H     0.19534   0.69283   0.78099   0.00000  Uiso   1.00
H1370  H     0.63008   0.10102   0.74755   0.00000  Uiso   1.00
H1371  H     0.51212   0.98154   0.87871   0.00000  Uiso   1.00
O1372  O     0.06873   0.68001   0.77489   0.00000  Uiso   1.00
O1373  O     0.30576   0.54887   0.06435   0.00000  Uiso   1.00
O1374  O     0.48433   0.05878   0.90310   0.00000  Uiso   1.00
N1375  N     0.13709   0.79967   0.78329   0.00000  Uiso   1.00
N1376  N     0.54353   0.18129   0.75202   0.00000  Uiso   1.00
N1377  N     0.43327   0.06961   0.87465   0.00000  Uiso   1.00
N1378  N     0.18925   0.73549   0.78266   0.00000  Uiso   1.00
N1379  N     0.59569   0.11711   0.75139   0.00000  Uiso   1.00
N1380  N     0.48543   0.00543   0.87401   0.00000  Uiso   1.00
C1381  C     0.32247   0.96666   0.13672   0.00000  Uiso   1.00
C1382  C     0.29591   0.01719   0.13103   0.00000  Uiso   1.00
C1383  C     0.33838   0.08873   0.12660   0.00000  Uiso   1.00
C1384  C     0.30387   0.12582   0.12174   0.00000  Uiso   1.00
C1385  C     0.27393   0.20933   0.11296   0.00000  Uiso   1.00
C1386  C     0.28907   0.90518   0.12241   0.00000  Uiso   1.00
C1387  C     0.32579   0.88253   0.11073   0.00000  Uiso   1.00
C1388  C     0.28552   0.82532   0.09862   0.00000  Uiso   1.00
C1389  C     0.24495   0.73490   0.07646   0.00000  Uiso   1.00
C1390  C     0.28868   0.93558   0.15620   0.00000  Uiso   1.00
C1391  C     0.32507   0.93847   0.17294   0.00000  Uiso   1.00
C1392  C     0.28446   0.90684   0.18928   0.00000  Uiso   1.00
C1393  C     0.24330   0.86362   0.21959   0.00000  Uiso   1.00
C1394  C     0.18565   0.90531   0.13597   0.00000  Uiso   1.00
C1395  C     0.22159   0.98386   0.13062   0.00000  Uiso   1.00
C1396  C     0.18700   0.02085   0.12577   0.00000  Uiso   1.00
C1397  C     0.22942   0.09244   0.12133   0.00000  Uiso   1.00
C1398  C     0.21475   0.87185   0.12200   0.00000  Uiso   1.00
C1399  C     0.17441   0.81466   0.10991   0.00000  Uiso   1.00
C1400  C     0.21107   0.79194   0.09821   0.00000  Uiso   1.00
C1401  C     0.21436   0.90226   0.15580   0.00000  Uiso   1.00
C1402  C     0.17369   0.87060   0.17211   0.00000  Uiso   1.00
C1403  C     0.21001   0.87346   0.18887   0.00000  Uiso   1.00
H1404  H     0.38033   0.99260   0.13703   0.00000  Uiso   1.00
H1405  H     0.39589   0.11449   0.12691   0.00000  Uiso   1.00
H1406  H     0.38330   0.90833   0.11105   0.00000  Uiso   1.00
H1407  H     0.71591   0.63093   0.83991   0.00000  Uiso   1.00
H1408  H     0.38037   0.23493   0.11550   0.00000  Uiso   1.00
H1409  H     0.02049   0.13354   0.41539   0.00000  Uiso   1.00
H1410  H     0.68564   0.58482   0.87988   0.00000  Uiso   1.00
H1411  H     0.12779   0.87937   0.13566   0.00000  Uiso   1.00
H1412  H     0.12949   0.99505   0.12546   0.00000  Uiso   1.00
H1413  H     0.11691   0.78888   0.10960   0.00000  Uiso   1.00
H1414  H     0.11618   0.84482   0.17180   0.00000  Uiso   1.00
H1415  H     0.16415   0.13799   0.11433   0.00000  Uiso   1.00
H1416  H     0.13761   0.70326   0.08088   0.00000  Uiso   1.00
H1417  H     0.13608   0.82121   0.21204   0.00000  Uiso   1.00
O1418  O     0.27794   0.26460   0.10822   0.00000  Uiso   1.00
O1419  O     0.90978   0.02757   0.39768   0.00000  Uiso   1.00
O1420  O     0.24112   0.84900   0.23643   0.00000  Uiso   1.00
N1421  N     0.32925   0.19625   0.11663   0.00000  Uiso   1.00
N1422  N     0.30443   0.78980   0.08536   0.00000  Uiso   1.00
N1423  N     0.30301   0.90007   0.20798   0.00000  Uiso   1.00
N1424  N     0.21291   0.14408   0.11600   0.00000  Uiso   1.00
N1425  N     0.18809   0.73764   0.08473   0.00000  Uiso   1.00
N1426  N     0.18666   0.84790   0.20735   0.00000  Uiso   1.00
C1427  C     0.98914   0.30000   0.47005   0.00000  Uiso   1.00
C1428  C     0.96257   0.35052   0.46436   0.00000  Uiso   1.00
C1429  C     0.00505   0.42206   0.45993   0.00000  Uiso   1.00
C1430  C     0.97054   0.45915   0.45507   0.00000  Uiso   1.00
C1431  C     0.94059   0.54267   0.44629   0.00000  Uiso   1.00
C1432  C     0.95573   0.23851   0.45574   0.00000  Uiso   1.00
C1433  C     0.99246   0.21587   0.44406   0.00000  Uiso   1.00
C1434  C     0.95218   0.15865   0.43195   0.00000  Uiso   1.00
C1435  C     0.91162   0.06824   0.40979   0.00000  Uiso   1.00
C1436  C     0.95534   0.26891   0.48954   0.00000  Uiso   1.00
C1437  C     0.99174   0.27181   0.50627   0.00000  Uiso   1.00
C1438  C     0.95113   0.24017   0.52261   0.00000  Uiso   1.00
C1439  C     0.90996   0.19696   0.55293   0.00000  Uiso   1.00
C1440  C     0.85232   0.23865   0.46931   0.00000  Uiso   1.00
C1441  C     0.88826   0.31720   0.46396   0.00000  Uiso   1.00
C1442  C     0.85367   0.35419   0.45911   0.00000  Uiso   1.00
C1443  C     0.89609   0.42577   0.45467   0.00000  Uiso   1.00
C1444  C     0.88142   0.20519   0.45534   0.00000  Uiso   1.00
C1445  C     0.84108   0.14799   0.44324   0.00000  Uiso   1.00
C1446  C     0.87773   0.12527   0.43154   0.00000  Uiso   1.00
C1447  C     0.88103   0.23559   0.48913   0.00000  Uiso   1.00
C1448  C     0.84036   0.20394   0.50545   0.00000  Uiso   1.00
C1449  C     0.87668   0.20679   0.52221   0.00000  Uiso   1.00
H1450  H     0.04700   0.32593   0.47036   0.00000  Uiso   1.00
H1451  H     0.06256   0.44783   0.46024   0.00000  Uiso   1.00
H1452  H     0.04997   0.24166   0.44438   0.00000  Uiso   1.00
H1453  H     0.38258   0.96426   0.17324   0.00000  Uiso   1.00
H1454  H     0.04704   0.56827   0.44883   0.00000  Uiso   1.00
H1455  H     0.68716   0.46687   0.74872   0.00000  Uiso   1.00
H1456  H     0.35230   0.91816   0.21322   0.00000  Uiso   1.00
H1457  H     0.79446   0.21270   0.46899   0.00000  Uiso   1.00
H1458  H     0.79616   0.32839   0.45879   0.00000  Uiso   1.00
H1459  H     0.78357   0.12222   0.44293   0.00000  Uiso   1.00
H1460  H     0.78285   0.17816   0.50513   0.00000  Uiso   1.00
H1461  H     0.83082   0.47132   0.44766   0.00000  Uiso   1.00
H1462  H     0.80427   0.03659   0.41422   0.00000  Uiso   1.00
H1463  H     0.80275   0.15455   0.54538   0.00000  Uiso   1.00
O1464  O     0.94461   0.59793   0.44156   0.00000  Uiso   1.00
O1465  O     0.57645   0.36091   0.73102   0.00000  Uiso   1.00
O1466  O     0.90778   0.18233   0.56976   0.00000  Uiso   1.00
N1467  N     0.99592   0.52958   0.44996   0.00000  Uiso   1.00
N1468  N     0.97110   0.12314   0.41869   0.00000  Uiso   1.00
N1469  N     0.96968   0.23340   0.54131   0.00000  Uiso   1.00
N1470  N     0.87957   0.47742   0.44933   0.00000  Uiso   1.00
N1471  N     0.85475   0.07097   0.41806   0.00000  Uiso   1.00
N1472  N     0.85333   0.18124   0.54068   0.00000  Uiso   1.00
C1473  C     0.65581   0.63333   0.80338   0.00000  Uiso   1.00
C1474  C     0.62924   0.68386   0.79770   0.00000  Uiso   1.00
C1475  C     0.67171   0.75539   0.79326   0.00000  Uiso   1.00
C1476  C     0.63720   0.79248   0.78840   0.00000  Uiso   1.00
C1477  C     0.60726   0.87600   0.77962   0.00000  Uiso   1.00
C1478  C     0.62240   0.57184   0.78907   0.00000  Uiso   1.00
C1479  C     0.65913   0.54920   0.77740   0.00000  Uiso   1.00
C1480  C     0.61885   0.49199   0.76528   0.00000  Uiso   1.00
C1481  C     0.57829   0.40157   0.74313   0.00000  Uiso   1.00
C1482  C     0.62201   0.60224   0.82287   0.00000  Uiso   1.00
C1483  C     0.65840   0.60514   0.83960   0.00000  Uiso   1.00
C1484  C     0.61780   0.57351   0.85594   0.00000  Uiso   1.00
C1485  C     0.57663   0.53029   0.88626   0.00000  Uiso   1.00
C1486  C     0.51898   0.57198   0.80264   0.00000  Uiso   1.00
C1487  C     0.55492   0.65053   0.79729   0.00000  Uiso   1.00
C1488  C     0.52034   0.68752   0.79244   0.00000  Uiso   1.00
C1489  C     0.56275   0.75910   0.78800   0.00000  Uiso   1.00
C1490  C     0.54809   0.53852   0.78867   0.00000  Uiso   1.00
C1491  C     0.50775   0.48133   0.77657   0.00000  Uiso   1.00
C1492  C     0.54440   0.45860   0.76488   0.00000  Uiso   1.00
C1493  C     0.54769   0.56892   0.82247   0.00000  Uiso   1.00
C1494  C     0.50703   0.53727   0.83878   0.00000  Uiso   1.00
C1495  C     0.54335   0.54012   0.85554   0.00000  Uiso   1.00
H1496  H     0.71366   0.65927   0.80370   0.00000  Uiso   1.00
H1497  H     0.72923   0.78116   0.79358   0.00000  Uiso   1.00
H1498  H     0.71663   0.57499   0.77771   0.00000  Uiso   1.00
H1499  H     0.04925   0.29760   0.50658   0.00000  Uiso   1.00
H1500  H     0.71371   0.90160   0.78217   0.00000  Uiso   1.00
H1501  H     0.35382   0.80020   0.08206   0.00000  Uiso   1.00
H1502  H     0.01897   0.25149   0.54655   0.00000  Uiso   1.00
H1503  H     0.46112   0.54604   0.80232   0.00000  Uiso   1.00
H1504  H     0.46283   0.66172   0.79213   0.00000  Uiso   1.00
H1505  H     0.45024   0.45555   0.77626   0.00000  Uiso   1.00
H1506  H     0.44952   0.51149   0.83846   0.00000  Uiso   1.00
H1507  H     0.49749   0.80466   0.78099   0.00000  Uiso   1.00
H1508  H     0.47094   0.36992   0.74755   0.00000  Uiso   1.00
H1509  H     0.46942   0.48788   0.87871   0.00000  Uiso   1.00
O1510  O     0.61127   0.93127   0.77489   0.00000  Uiso   1.00
O1511  O     0.24311   0.69424   0.06435   0.00000  Uiso   1.00
O1512  O     0.57445   0.51567   0.90310   0.00000  Uiso   1.00
N1513  N     0.66258   0.86291   0.78329   0.00000  Uiso   1.00
N1514  N     0.63777   0.45647   0.75202   0.00000  Uiso   1.00
N1515  N     0.63634   0.56673   0.87465   0.00000  Uiso   1.00
N1516  N     0.54624   0.81075   0.78266   0.00000  Uiso   1.00
N1517  N     0.52142   0.40431   0.75139   0.00000  Uiso   1.00
N1518  N     0.52000   0.51457   0.87401   0.00000  Uiso   1.00
C1519  C     0.64419   0.67753   0.13672   0.00000  Uiso   1.00
C1520  C     0.72128   0.70409   0.13103   0.00000  Uiso   1.00
C1521  C     0.75035   0.66162   0.12660   0.00000  Uiso   1.00
C1522  C     0.82195   0.69613   0.12174   0.00000  Uiso   1.00
C1523  C     0.93541   0.72607   0.11296   0.00000  Uiso   1.00
C1524  C     0.61611   0.71093   0.12241   0.00000  Uiso   1.00
C1525  C     0.55674   0.67421   0.11073   0.00000  Uiso   1.00
C1526  C     0.53980   0.71448   0.09862   0.00000  Uiso   1.00
C1527  C     0.48995   0.75505   0.07646   0.00000  Uiso   1.00
C1528  C     0.64690   0.71132   0.15620   0.00000  Uiso   1.00
C1529  C     0.61340   0.67493   0.17294   0.00000  Uiso   1.00
C1530  C     0.62238   0.71554   0.18928   0.00000  Uiso   1.00
C1531  C     0.62033   0.75670   0.21959   0.00000  Uiso   1.00
C1532  C     0.71966   0.81435   0.13597   0.00000  Uiso   1.00
C1533  C     0.76227   0.77841   0.13062   0.00000  Uiso   1.00
C1534  C     0.83385   0.81300   0.12577   0.00000  Uiso   1.00
C1535  C     0.86302   0.77058   0.12133   0.00000  Uiso   1.00
C1536  C     0.65710   0.78525   0.12200   0.00000  Uiso   1.00
C1537  C     0.64024   0.82559   0.10991   0.00000  Uiso   1.00
C1538  C     0.58087   0.78893   0.09821   0.00000  Uiso   1.00
C1539  C     0.68789   0.78564   0.15580   0.00000  Uiso   1.00
C1540  C     0.69691   0.82631   0.17211   0.00000  Uiso   1.00
C1541  C     0.66344   0.78999   0.18887   0.00000  Uiso   1.00
H1542  H     0.61227   0.61967   0.13703   0.00000  Uiso   1.00
H1543  H     0.71860   0.60411   0.12691   0.00000  Uiso   1.00
H1544  H     0.52502   0.61670   0.11105   0.00000  Uiso   1.00
H1545  H     0.91502   0.28409   0.83991   0.00000  Uiso   1.00
H1546  H     0.85456   0.61963   0.11550   0.00000  Uiso   1.00
H1547  H     0.11304   0.97951   0.41539   0.00000  Uiso   1.00
H1548  H     0.89919   0.31436   0.87988   0.00000  Uiso   1.00
H1549  H     0.75158   0.87221   0.13566   0.00000  Uiso   1.00
H1550  H     0.86556   0.87051   0.12546   0.00000  Uiso   1.00
H1551  H     0.67198   0.88309   0.10960   0.00000  Uiso   1.00
H1552  H     0.72864   0.88382   0.17180   0.00000  Uiso   1.00
H1553  H     0.97384   0.83585   0.11433   0.00000  Uiso   1.00
H1554  H     0.56565   0.86239   0.08088   0.00000  Uiso   1.00
H1555  H     0.68513   0.86392   0.21204   0.00000  Uiso   1.00
O1556  O     0.98666   0.72206   0.10822   0.00000  Uiso   1.00
O1557  O     0.11779   0.09022   0.39768   0.00000  Uiso   1.00
O1558  O     0.60788   0.75888   0.23643   0.00000  Uiso   1.00
N1559  N     0.86700   0.67075   0.11663   0.00000  Uiso   1.00
N1560  N     0.48537   0.69557   0.08536   0.00000  Uiso   1.00
N1561  N     0.59706   0.69699   0.20798   0.00000  Uiso   1.00
N1562  N     0.93118   0.78709   0.11600   0.00000  Uiso   1.00
N1563  N     0.54955   0.81191   0.08473   0.00000  Uiso   1.00
N1564  N     0.66124   0.81334   0.20735   0.00000  Uiso   1.00
C1565  C     0.31086   0.01086   0.47005   0.00000  Uiso   1.00
C1566  C     0.38795   0.03743   0.46436   0.00000  Uiso   1.00
C1567  C     0.41701   0.99495   0.45993   0.00000  Uiso   1.00
C1568  C     0.48861   0.02946   0.45507   0.00000  Uiso   1.00
C1569  C     0.60207   0.05941   0.44629   0.00000  Uiso   1.00
C1570  C     0.28278   0.04427   0.45574   0.00000  Uiso   1.00
C1571  C     0.22341   0.00754   0.44406   0.00000  Uiso   1.00
C1572  C     0.20647   0.04782   0.43195   0.00000  Uiso   1.00
C1573  C     0.15662   0.08838   0.40979   0.00000  Uiso   1.00
C1574  C     0.31357   0.04466   0.48954   0.00000  Uiso   1.00
C1575  C     0.28007   0.00826   0.50627   0.00000  Uiso   1.00
C1576  C     0.28904   0.04887   0.52261   0.00000  Uiso   1.00
C1577  C     0.28700   0.09004   0.55293   0.00000  Uiso   1.00
C1578  C     0.38633   0.14768   0.46931   0.00000  Uiso   1.00
C1579  C     0.42894   0.11174   0.46396   0.00000  Uiso   1.00
C1580  C     0.50052   0.14633   0.45911   0.00000  Uiso   1.00
C1581  C     0.52968   0.10391   0.45467   0.00000  Uiso   1.00
C1582  C     0.32377   0.11858   0.45534   0.00000  Uiso   1.00
C1583  C     0.30691   0.15892   0.44324   0.00000  Uiso   1.00
C1584  C     0.24754   0.12227   0.43154   0.00000  Uiso   1.00
C1585  C     0.35456   0.11897   0.48913   0.00000  Uiso   1.00
C1586  C     0.36358   0.15964   0.50545   0.00000  Uiso   1.00
C1587  C     0.33011   0.12332   0.52221   0.00000  Uiso   1.00
H1588  H     0.27894   0.95300   0.47036   0.00000  Uiso   1.00
H1589  H     0.38527   0.93744   0.46024   0.00000  Uiso   1.00
H1590  H     0.19169   0.95003   0.44438   0.00000  Uiso   1.00
H1591  H     0.58169   0.61742   0.17324   0.00000  Uiso   1.00
H1592  H     0.52123   0.95296   0.44883   0.00000  Uiso   1.00
H1593  H     0.77971   0.31284   0.74872   0.00000  Uiso   1.00
H1594  H     0.56585   0.64770   0.21322   0.00000  Uiso   1.00
H1595  H     0.41825   0.20554   0.46899   0.00000  Uiso   1.00
H1596  H     0.53223   0.20384   0.45879   0.00000  Uiso   1.00
H1597  H     0.33865   0.21643   0.44293   0.00000  Uiso   1.00
H1598  H     0.39531   0.21715   0.50513   0.00000  Uiso   1.00
H1599  H     0.64050   0.16918   0.44766   0.00000  Uiso   1.00
H1600  H     0.23231   0.19573   0.41422   0.00000  Uiso   1.00
H1601  H     0.35180   0.19725   0.54538   0.00000  Uiso   1.00
O1602  O     0.65333   0.05539   0.44156   0.00000  Uiso   1.00
O1603  O     0.78446   0.42355   0.73102   0.00000  Uiso   1.00
O1604  O     0.27455   0.09222   0.56976   0.00000  Uiso   1.00
N1605  N     0.53366   0.00408   0.44996   0.00000  Uiso   1.00
N1606  N     0.15204   0.02890   0.41869   0.00000  Uiso   1.00
N1607  N     0.26372   0.03032   0.54131   0.00000  Uiso   1.00
N1608  N     0.59784   0.12043   0.44933   0.00000  Uiso   1.00
N1609  N     0.21622   0.14525   0.41806   0.00000  Uiso   1.00
N1610  N     0.32791   0.14667   0.54068   0.00000  Uiso   1.00
C1611  C     0.97752   0.34419   0.80338   0.00000  Uiso   1.00
C1612  C     0.05461   0.37076   0.79770   0.00000  Uiso   1.00
C1613  C     0.08368   0.32829   0.79326   0.00000  Uiso   1.00
C1614  C     0.15528   0.36280   0.78840   0.00000  Uiso   1.00
C1615  C     0.26874   0.39274   0.77962   0.00000  Uiso   1.00
C1616  C     0.94944   0.37760   0.78907   0.00000  Uiso   1.00
C1617  C     0.89007   0.34087   0.77740   0.00000  Uiso   1.00
C1618  C     0.87314   0.38115   0.76528   0.00000  Uiso   1.00
C1619  C     0.82328   0.42171   0.74313   0.00000  Uiso   1.00
C1620  C     0.98023   0.37799   0.82287   0.00000  Uiso   1.00
C1621  C     0.94674   0.34160   0.83960   0.00000  Uiso   1.00
C1622  C     0.95571   0.38220   0.85594   0.00000  Uiso   1.00
C1623  C     0.95366   0.42337   0.88626   0.00000  Uiso   1.00
C1624  C     0.05300   0.48102   0.80264   0.00000  Uiso   1.00
C1625  C     0.09561   0.44508   0.79729   0.00000  Uiso   1.00
C1626  C     0.16718   0.47966   0.79244   0.00000  Uiso   1.00
C1627  C     0.19635   0.43725   0.78800   0.00000  Uiso   1.00
C1628  C     0.99043   0.45191   0.78867   0.00000  Uiso   1.00
C1629  C     0.97358   0.49225   0.77657   0.00000  Uiso   1.00
C1630  C     0.91420   0.45560   0.76488   0.00000  Uiso   1.00
C1631  C     0.02123   0.45231   0.82247   0.00000  Uiso   1.00
C1632  C     0.03025   0.49297   0.83878   0.00000  Uiso   1.00
C1633  C     0.99678   0.45665   0.85554   0.00000  Uiso   1.00
H1634  H     0.94560   0.28634   0.80370   0.00000  Uiso   1.00
H1635  H     0.05194   0.27077   0.79358   0.00000  Uiso   1.00
H1636  H     0.85836   0.28337   0.77771   0.00000  Uiso   1.00
H1637  H     0.24835   0.95075   0.50658   0.00000  Uiso   1.00
H1638  H     0.18790   0.28629   0.78217   0.00000  Uiso   1.00
H1639  H     0.44638   0.64618   0.08206   0.00000  Uiso   1.00
H1640  H     0.23252   0.98103   0.54655   0.00000  Uiso   1.00
H1641  H     0.08491   0.53888   0.80232   0.00000  Uiso   1.00
H1642  H     0.19889   0.53717   0.79213   0.00000  Uiso   1.00
H1643  H     0.00531   0.54976   0.77626   0.00000  Uiso   1.00
H1644  H     0.06197   0.55048   0.83846   0.00000  Uiso   1.00
H1645  H     0.30717   0.50251   0.78099   0.00000  Uiso   1.00
H1646  H     0.89898   0.52906   0.74755   0.00000  Uiso   1.00
H1647  H     0.01846   0.53058   0.87871   0.00000  Uiso   1.00
O1648  O     0.31999   0.38873   0.77489   0.00000  Uiso   1.00
O1649  O     0.45113   0.75689   0.06435   0.00000  Uiso   1.00
O1650  O     0.94122   0.42555   0.90310   0.00000  Uiso   1.00
N1651  N     0.20033   0.33742   0.78329   0.00000  Uiso   1.00
N1652  N     0.81871   0.36223   0.75202   0.00000  Uiso   1.00
N1653  N     0.93039   0.36366   0.87465   0.00000  Uiso   1.00
N1654  N     0.26451   0.45376   0.78266   0.00000  Uiso   1.00
N1655  N     0.88289   0.47858   0.75139   0.00000  Uiso   1.00
N1656  N     0.99457   0.48000   0.87401   0.00000  Uiso   1.00
