data_job_05028
_audit_creation_date              2018-12-19
_audit_creation_method            'Materials Studio'
_symmetry_space_group_name_H-M    'P1'
_symmetry_Int_Tables_number       1
_symmetry_cell_setting            triclinic
loop_
_symmetry_equiv_pos_as_xyz
  x,y,z
_cell_length_a                    37.9220
_cell_length_b                    38.7485
_cell_length_c                    7.2461
_cell_angle_alpha                 90.0000
_cell_angle_beta                  90.0000
_cell_angle_gamma                 90.0000
loop_
_atom_site_label
_atom_site_type_symbol
_atom_site_fract_x
_atom_site_fract_y
_atom_site_fract_z
_atom_site_U_iso_or_equiv
_atom_site_adp_type
_atom_site_occupancy
C1     C     0.58773   0.78439   0.62992   0.00000  Uiso   1.00
C2     C     0.57433   0.75189   0.53409   0.00000  Uiso   1.00
C3     C     0.55654   0.72488   0.61855   0.00000  Uiso   1.00
C4     C     0.54649   0.69746   0.50695   0.00000  Uiso   1.00
C5     C     0.52457   0.64705   0.38696   0.00000  Uiso   1.00
C6     C     0.62716   0.78614   0.58959   0.00000  Uiso   1.00
C7     C     0.65377   0.78793   0.72071   0.00000  Uiso   1.00
C8     C     0.68819   0.78935   0.65581   0.00000  Uiso   1.00
C9     C     0.74827   0.79214   0.62198   0.00000  Uiso   1.00
C10    C     0.57116   0.81468   0.52733   0.00000  Uiso   1.00
C11    C     0.55070   0.84047   0.60611   0.00000  Uiso   1.00
C12    C     0.53798   0.86592   0.48880   0.00000  Uiso   1.00
C13    C     0.51112   0.91302   0.35830   0.00000  Uiso   1.00
C14    C     0.60153   0.78374   0.28153   0.00000  Uiso   1.00
C15    C     0.58183   0.75154   0.34486   0.00000  Uiso   1.00
C16    C     0.57181   0.72416   0.23310   0.00000  Uiso   1.00
C17    C     0.55400   0.69711   0.31738   0.00000  Uiso   1.00
C18    C     0.63465   0.78579   0.40036   0.00000  Uiso   1.00
C19    C     0.66904   0.78721   0.33526   0.00000  Uiso   1.00
C20    C     0.69570   0.78900   0.46624   0.00000  Uiso   1.00
C21    C     0.57866   0.81433   0.33810   0.00000  Uiso   1.00
C22    C     0.56597   0.83975   0.22065   0.00000  Uiso   1.00
C23    C     0.54550   0.86557   0.29923   0.00000  Uiso   1.00
H24    H     0.58190   0.78466   0.77724   0.00000  Uiso   1.00
H25    H     0.55074   0.72516   0.76501   0.00000  Uiso   1.00
H26    H     0.64796   0.78820   0.86714   0.00000  Uiso   1.00
H27    H     0.54491   0.84073   0.75255   0.00000  Uiso   1.00
H28    H     0.51952   0.65902   0.66799   0.00000  Uiso   1.00
H29    H     0.72451   0.79197   0.88335   0.00000  Uiso   1.00
H30    H     0.50720   0.90274   0.64172   0.00000  Uiso   1.00
H31    H     0.60737   0.78347   0.13420   0.00000  Uiso   1.00
H32    H     0.57761   0.72390   0.08667   0.00000  Uiso   1.00
H33    H     0.67483   0.78695   0.18881   0.00000  Uiso   1.00
H34    H     0.57178   0.83947   0.07422   0.00000  Uiso   1.00
H35    H     0.54133   0.65800   0.11743   0.00000  Uiso   1.00
H36    H     0.74632   0.79095   0.33279   0.00000  Uiso   1.00
H37    H     0.52901   0.90171   0.09116   0.00000  Uiso   1.00
O38    O     0.51041   0.61934   0.37306   0.00000  Uiso   1.00
O39    O     0.77934   0.79377   0.65560   0.00000  Uiso   1.00
O40    O     0.49423   0.93909   0.33859   0.00000  Uiso   1.00
N41    N     0.52873   0.66696   0.54493   0.00000  Uiso   1.00
N42    N     0.72038   0.79125   0.74628   0.00000  Uiso   1.00
N43    N     0.51723   0.89481   0.52039   0.00000  Uiso   1.00
N44    N     0.54047   0.66641   0.24868   0.00000  Uiso   1.00
N45    N     0.73212   0.79071   0.45003   0.00000  Uiso   1.00
N46    N     0.52896   0.89427   0.22413   0.00000  Uiso   1.00
C47    C     0.58773   0.28439   0.12992   0.00000  Uiso   1.00
C48    C     0.57433   0.25189   0.03409   0.00000  Uiso   1.00
C49    C     0.55654   0.22488   0.11855   0.00000  Uiso   1.00
C50    C     0.54649   0.19746   0.00695   0.00000  Uiso   1.00
C51    C     0.52457   0.14705   0.88696   0.00000  Uiso   1.00
C52    C     0.62716   0.28614   0.08959   0.00000  Uiso   1.00
C53    C     0.65377   0.28793   0.22071   0.00000  Uiso   1.00
C54    C     0.68819   0.28935   0.15581   0.00000  Uiso   1.00
C55    C     0.74827   0.29214   0.12198   0.00000  Uiso   1.00
C56    C     0.57116   0.31468   0.02733   0.00000  Uiso   1.00
C57    C     0.55070   0.34047   0.10611   0.00000  Uiso   1.00
C58    C     0.53798   0.36592   0.98880   0.00000  Uiso   1.00
C59    C     0.51112   0.41302   0.85830   0.00000  Uiso   1.00
C60    C     0.60153   0.28374   0.78153   0.00000  Uiso   1.00
C61    C     0.58183   0.25154   0.84486   0.00000  Uiso   1.00
C62    C     0.57181   0.22416   0.73310   0.00000  Uiso   1.00
C63    C     0.55400   0.19711   0.81738   0.00000  Uiso   1.00
C64    C     0.63465   0.28579   0.90036   0.00000  Uiso   1.00
C65    C     0.66904   0.28721   0.83526   0.00000  Uiso   1.00
C66    C     0.69570   0.28900   0.96624   0.00000  Uiso   1.00
C67    C     0.57866   0.31433   0.83810   0.00000  Uiso   1.00
C68    C     0.56597   0.33975   0.72065   0.00000  Uiso   1.00
C69    C     0.54550   0.36557   0.79923   0.00000  Uiso   1.00
H70    H     0.58190   0.28466   0.27724   0.00000  Uiso   1.00
H71    H     0.55074   0.22516   0.26501   0.00000  Uiso   1.00
H72    H     0.64796   0.28820   0.36714   0.00000  Uiso   1.00
H73    H     0.54491   0.34073   0.25255   0.00000  Uiso   1.00
H74    H     0.51952   0.15902   0.16799   0.00000  Uiso   1.00
H75    H     0.72451   0.29197   0.38335   0.00000  Uiso   1.00
H76    H     0.50720   0.40274   0.14172   0.00000  Uiso   1.00
H77    H     0.60737   0.28347   0.63420   0.00000  Uiso   1.00
H78    H     0.57761   0.22390   0.58667   0.00000  Uiso   1.00
H79    H     0.67483   0.28695   0.68881   0.00000  Uiso   1.00
H80    H     0.57178   0.33947   0.57422   0.00000  Uiso   1.00
H81    H     0.54133   0.15800   0.61743   0.00000  Uiso   1.00
H82    H     0.74632   0.29095   0.83279   0.00000  Uiso   1.00
H83    H     0.52901   0.40171   0.59116   0.00000  Uiso   1.00
O84    O     0.51041   0.11934   0.87306   0.00000  Uiso   1.00
O85    O     0.77934   0.29377   0.15560   0.00000  Uiso   1.00
O86    O     0.49423   0.43909   0.83859   0.00000  Uiso   1.00
N87    N     0.52873   0.16696   0.04493   0.00000  Uiso   1.00
N88    N     0.72038   0.29125   0.24628   0.00000  Uiso   1.00
N89    N     0.51723   0.39481   0.02039   0.00000  Uiso   1.00
N90    N     0.54047   0.16641   0.74868   0.00000  Uiso   1.00
N91    N     0.73212   0.29071   0.95003   0.00000  Uiso   1.00
N92    N     0.52896   0.39427   0.72413   0.00000  Uiso   1.00
C93    C     0.08773   0.78439   0.12992   0.00000  Uiso   1.00
C94    C     0.07433   0.75189   0.03409   0.00000  Uiso   1.00
C95    C     0.05654   0.72488   0.11855   0.00000  Uiso   1.00
C96    C     0.04649   0.69746   0.00695   0.00000  Uiso   1.00
C97    C     0.02457   0.64705   0.88696   0.00000  Uiso   1.00
C98    C     0.12716   0.78614   0.08959   0.00000  Uiso   1.00
C99    C     0.15377   0.78793   0.22071   0.00000  Uiso   1.00
C100   C     0.18819   0.78935   0.15581   0.00000  Uiso   1.00
C101   C     0.24827   0.79214   0.12198   0.00000  Uiso   1.00
C102   C     0.07116   0.81468   0.02733   0.00000  Uiso   1.00
C103   C     0.05070   0.84047   0.10611   0.00000  Uiso   1.00
C104   C     0.03798   0.86592   0.98880   0.00000  Uiso   1.00
C105   C     0.01112   0.91302   0.85830   0.00000  Uiso   1.00
C106   C     0.10153   0.78374   0.78153   0.00000  Uiso   1.00
C107   C     0.08183   0.75154   0.84486   0.00000  Uiso   1.00
C108   C     0.07181   0.72416   0.73310   0.00000  Uiso   1.00
C109   C     0.05400   0.69711   0.81738   0.00000  Uiso   1.00
C110   C     0.13465   0.78579   0.90036   0.00000  Uiso   1.00
C111   C     0.16904   0.78721   0.83526   0.00000  Uiso   1.00
C112   C     0.19570   0.78900   0.96624   0.00000  Uiso   1.00
C113   C     0.07866   0.81433   0.83810   0.00000  Uiso   1.00
C114   C     0.06597   0.83975   0.72065   0.00000  Uiso   1.00
C115   C     0.04550   0.86557   0.79923   0.00000  Uiso   1.00
H116   H     0.08190   0.78466   0.27724   0.00000  Uiso   1.00
H117   H     0.05074   0.72516   0.26501   0.00000  Uiso   1.00
H118   H     0.14796   0.78820   0.36714   0.00000  Uiso   1.00
H119   H     0.04491   0.84073   0.25255   0.00000  Uiso   1.00
H120   H     0.01952   0.65902   0.16799   0.00000  Uiso   1.00
H121   H     0.22451   0.79197   0.38335   0.00000  Uiso   1.00
H122   H     0.00720   0.90274   0.14172   0.00000  Uiso   1.00
H123   H     0.10737   0.78347   0.63420   0.00000  Uiso   1.00
H124   H     0.07761   0.72390   0.58667   0.00000  Uiso   1.00
H125   H     0.17483   0.78695   0.68881   0.00000  Uiso   1.00
H126   H     0.07178   0.83947   0.57422   0.00000  Uiso   1.00
H127   H     0.04133   0.65800   0.61743   0.00000  Uiso   1.00
H128   H     0.24632   0.79095   0.83279   0.00000  Uiso   1.00
H129   H     0.02901   0.90171   0.59116   0.00000  Uiso   1.00
O130   O     0.01041   0.61934   0.87306   0.00000  Uiso   1.00
O131   O     0.27934   0.79377   0.15560   0.00000  Uiso   1.00
O132   O     0.99423   0.93909   0.83859   0.00000  Uiso   1.00
N133   N     0.02873   0.66696   0.04493   0.00000  Uiso   1.00
N134   N     0.22038   0.79125   0.24628   0.00000  Uiso   1.00
N135   N     0.01723   0.89481   0.02039   0.00000  Uiso   1.00
N136   N     0.04047   0.66641   0.74868   0.00000  Uiso   1.00
N137   N     0.23212   0.79071   0.95003   0.00000  Uiso   1.00
N138   N     0.02896   0.89427   0.72413   0.00000  Uiso   1.00
C139   C     0.08773   0.28439   0.62992   0.00000  Uiso   1.00
C140   C     0.07433   0.25189   0.53409   0.00000  Uiso   1.00
C141   C     0.05654   0.22488   0.61855   0.00000  Uiso   1.00
C142   C     0.04649   0.19746   0.50695   0.00000  Uiso   1.00
C143   C     0.02457   0.14705   0.38696   0.00000  Uiso   1.00
C144   C     0.12716   0.28614   0.58959   0.00000  Uiso   1.00
C145   C     0.15377   0.28793   0.72071   0.00000  Uiso   1.00
C146   C     0.18819   0.28935   0.65581   0.00000  Uiso   1.00
C147   C     0.24827   0.29214   0.62198   0.00000  Uiso   1.00
C148   C     0.07116   0.31468   0.52733   0.00000  Uiso   1.00
C149   C     0.05070   0.34047   0.60611   0.00000  Uiso   1.00
C150   C     0.03798   0.36592   0.48880   0.00000  Uiso   1.00
C151   C     0.01112   0.41302   0.35830   0.00000  Uiso   1.00
C152   C     0.10153   0.28374   0.28153   0.00000  Uiso   1.00
C153   C     0.08183   0.25154   0.34486   0.00000  Uiso   1.00
C154   C     0.07181   0.22416   0.23310   0.00000  Uiso   1.00
C155   C     0.05400   0.19711   0.31738   0.00000  Uiso   1.00
C156   C     0.13465   0.28579   0.40036   0.00000  Uiso   1.00
C157   C     0.16904   0.28721   0.33526   0.00000  Uiso   1.00
C158   C     0.19570   0.28900   0.46624   0.00000  Uiso   1.00
C159   C     0.07866   0.31433   0.33810   0.00000  Uiso   1.00
C160   C     0.06597   0.33975   0.22065   0.00000  Uiso   1.00
C161   C     0.04550   0.36557   0.29923   0.00000  Uiso   1.00
H162   H     0.08190   0.28466   0.77724   0.00000  Uiso   1.00
H163   H     0.05074   0.22516   0.76501   0.00000  Uiso   1.00
H164   H     0.14796   0.28820   0.86714   0.00000  Uiso   1.00
H165   H     0.04491   0.34073   0.75255   0.00000  Uiso   1.00
H166   H     0.01952   0.15902   0.66799   0.00000  Uiso   1.00
H167   H     0.22451   0.29197   0.88335   0.00000  Uiso   1.00
H168   H     0.00720   0.40274   0.64172   0.00000  Uiso   1.00
H169   H     0.10737   0.28347   0.13420   0.00000  Uiso   1.00
H170   H     0.07761   0.22390   0.08667   0.00000  Uiso   1.00
H171   H     0.17483   0.28695   0.18881   0.00000  Uiso   1.00
H172   H     0.07178   0.33947   0.07422   0.00000  Uiso   1.00
H173   H     0.04133   0.15800   0.11743   0.00000  Uiso   1.00
H174   H     0.24632   0.29095   0.33279   0.00000  Uiso   1.00
H175   H     0.02901   0.40171   0.09116   0.00000  Uiso   1.00
O176   O     0.01041   0.11934   0.37306   0.00000  Uiso   1.00
O177   O     0.27934   0.29377   0.65560   0.00000  Uiso   1.00
O178   O     0.99423   0.43909   0.33859   0.00000  Uiso   1.00
N179   N     0.02873   0.16696   0.54493   0.00000  Uiso   1.00
N180   N     0.22038   0.29125   0.74628   0.00000  Uiso   1.00
N181   N     0.01723   0.39481   0.52039   0.00000  Uiso   1.00
N182   N     0.04047   0.16641   0.24868   0.00000  Uiso   1.00
N183   N     0.23212   0.29071   0.45003   0.00000  Uiso   1.00
N184   N     0.02896   0.39427   0.22413   0.00000  Uiso   1.00
C185   C     0.41227   0.21561   0.62992   0.00000  Uiso   1.00
C186   C     0.42567   0.24811   0.53409   0.00000  Uiso   1.00
C187   C     0.44346   0.27512   0.61855   0.00000  Uiso   1.00
C188   C     0.45351   0.30254   0.50695   0.00000  Uiso   1.00
C189   C     0.47543   0.35295   0.38696   0.00000  Uiso   1.00
C190   C     0.37284   0.21386   0.58959   0.00000  Uiso   1.00
C191   C     0.34623   0.21207   0.72071   0.00000  Uiso   1.00
C192   C     0.31181   0.21065   0.65581   0.00000  Uiso   1.00
C193   C     0.25173   0.20786   0.62198   0.00000  Uiso   1.00
C194   C     0.42884   0.18532   0.52733   0.00000  Uiso   1.00
C195   C     0.44930   0.15953   0.60611   0.00000  Uiso   1.00
C196   C     0.46202   0.13408   0.48880   0.00000  Uiso   1.00
C197   C     0.48888   0.08698   0.35830   0.00000  Uiso   1.00
C198   C     0.39847   0.21626   0.28153   0.00000  Uiso   1.00
C199   C     0.41817   0.24846   0.34486   0.00000  Uiso   1.00
C200   C     0.42819   0.27584   0.23310   0.00000  Uiso   1.00
C201   C     0.44600   0.30289   0.31738   0.00000  Uiso   1.00
C202   C     0.36535   0.21421   0.40036   0.00000  Uiso   1.00
C203   C     0.33096   0.21279   0.33526   0.00000  Uiso   1.00
C204   C     0.30430   0.21100   0.46624   0.00000  Uiso   1.00
C205   C     0.42134   0.18567   0.33810   0.00000  Uiso   1.00
C206   C     0.43403   0.16025   0.22065   0.00000  Uiso   1.00
C207   C     0.45450   0.13443   0.29923   0.00000  Uiso   1.00
H208   H     0.41810   0.21534   0.77724   0.00000  Uiso   1.00
H209   H     0.44926   0.27484   0.76501   0.00000  Uiso   1.00
H210   H     0.35204   0.21180   0.86714   0.00000  Uiso   1.00
H211   H     0.45509   0.15927   0.75255   0.00000  Uiso   1.00
H212   H     0.48048   0.34098   0.66799   0.00000  Uiso   1.00
H213   H     0.27549   0.20803   0.88335   0.00000  Uiso   1.00
H214   H     0.49280   0.09726   0.64172   0.00000  Uiso   1.00
H215   H     0.39263   0.21653   0.13420   0.00000  Uiso   1.00
H216   H     0.42239   0.27610   0.08667   0.00000  Uiso   1.00
H217   H     0.32517   0.21305   0.18881   0.00000  Uiso   1.00
H218   H     0.42822   0.16053   0.07422   0.00000  Uiso   1.00
H219   H     0.45867   0.34200   0.11743   0.00000  Uiso   1.00
H220   H     0.25368   0.20905   0.33279   0.00000  Uiso   1.00
H221   H     0.47099   0.09829   0.09116   0.00000  Uiso   1.00
O222   O     0.48959   0.38066   0.37306   0.00000  Uiso   1.00
O223   O     0.22066   0.20623   0.65560   0.00000  Uiso   1.00
O224   O     0.50577   0.06091   0.33859   0.00000  Uiso   1.00
N225   N     0.47127   0.33304   0.54493   0.00000  Uiso   1.00
N226   N     0.27962   0.20875   0.74628   0.00000  Uiso   1.00
N227   N     0.48277   0.10519   0.52039   0.00000  Uiso   1.00
N228   N     0.45953   0.33359   0.24868   0.00000  Uiso   1.00
N229   N     0.26788   0.20929   0.45003   0.00000  Uiso   1.00
N230   N     0.47104   0.10573   0.22413   0.00000  Uiso   1.00
C231   C     0.41227   0.71561   0.12992   0.00000  Uiso   1.00
C232   C     0.42567   0.74811   0.03409   0.00000  Uiso   1.00
C233   C     0.44346   0.77512   0.11855   0.00000  Uiso   1.00
C234   C     0.45351   0.80254   0.00695   0.00000  Uiso   1.00
C235   C     0.47543   0.85295   0.88696   0.00000  Uiso   1.00
C236   C     0.37284   0.71386   0.08959   0.00000  Uiso   1.00
C237   C     0.34623   0.71207   0.22071   0.00000  Uiso   1.00
C238   C     0.31181   0.71065   0.15581   0.00000  Uiso   1.00
C239   C     0.25173   0.70786   0.12198   0.00000  Uiso   1.00
C240   C     0.42884   0.68532   0.02733   0.00000  Uiso   1.00
C241   C     0.44930   0.65953   0.10611   0.00000  Uiso   1.00
C242   C     0.46202   0.63408   0.98880   0.00000  Uiso   1.00
C243   C     0.48888   0.58698   0.85830   0.00000  Uiso   1.00
C244   C     0.39847   0.71626   0.78153   0.00000  Uiso   1.00
C245   C     0.41817   0.74846   0.84486   0.00000  Uiso   1.00
C246   C     0.42819   0.77584   0.73310   0.00000  Uiso   1.00
C247   C     0.44600   0.80289   0.81738   0.00000  Uiso   1.00
C248   C     0.36535   0.71421   0.90036   0.00000  Uiso   1.00
C249   C     0.33096   0.71279   0.83526   0.00000  Uiso   1.00
C250   C     0.30430   0.71100   0.96624   0.00000  Uiso   1.00
C251   C     0.42134   0.68567   0.83810   0.00000  Uiso   1.00
C252   C     0.43403   0.66025   0.72065   0.00000  Uiso   1.00
C253   C     0.45450   0.63443   0.79923   0.00000  Uiso   1.00
H254   H     0.41810   0.71534   0.27724   0.00000  Uiso   1.00
H255   H     0.44926   0.77484   0.26501   0.00000  Uiso   1.00
H256   H     0.35204   0.71180   0.36714   0.00000  Uiso   1.00
H257   H     0.45509   0.65927   0.25255   0.00000  Uiso   1.00
H258   H     0.48048   0.84098   0.16799   0.00000  Uiso   1.00
H259   H     0.27549   0.70803   0.38335   0.00000  Uiso   1.00
H260   H     0.49280   0.59726   0.14172   0.00000  Uiso   1.00
H261   H     0.39263   0.71653   0.63420   0.00000  Uiso   1.00
H262   H     0.42239   0.77610   0.58667   0.00000  Uiso   1.00
H263   H     0.32517   0.71305   0.68881   0.00000  Uiso   1.00
H264   H     0.42822   0.66053   0.57422   0.00000  Uiso   1.00
H265   H     0.45867   0.84200   0.61743   0.00000  Uiso   1.00
H266   H     0.25368   0.70905   0.83279   0.00000  Uiso   1.00
H267   H     0.47099   0.59829   0.59116   0.00000  Uiso   1.00
O268   O     0.48959   0.88066   0.87306   0.00000  Uiso   1.00
O269   O     0.22066   0.70623   0.15560   0.00000  Uiso   1.00
O270   O     0.50577   0.56091   0.83859   0.00000  Uiso   1.00
N271   N     0.47127   0.83304   0.04493   0.00000  Uiso   1.00
N272   N     0.27962   0.70875   0.24628   0.00000  Uiso   1.00
N273   N     0.48277   0.60519   0.02039   0.00000  Uiso   1.00
N274   N     0.45953   0.83359   0.74868   0.00000  Uiso   1.00
N275   N     0.26788   0.70929   0.95003   0.00000  Uiso   1.00
N276   N     0.47104   0.60573   0.72413   0.00000  Uiso   1.00
C277   C     0.91227   0.21561   0.12992   0.00000  Uiso   1.00
C278   C     0.92567   0.24811   0.03409   0.00000  Uiso   1.00
C279   C     0.94346   0.27512   0.11855   0.00000  Uiso   1.00
C280   C     0.95351   0.30254   0.00695   0.00000  Uiso   1.00
C281   C     0.97543   0.35295   0.88696   0.00000  Uiso   1.00
C282   C     0.87284   0.21386   0.08959   0.00000  Uiso   1.00
C283   C     0.84623   0.21207   0.22071   0.00000  Uiso   1.00
C284   C     0.81181   0.21065   0.15581   0.00000  Uiso   1.00
C285   C     0.75173   0.20786   0.12198   0.00000  Uiso   1.00
C286   C     0.92884   0.18532   0.02733   0.00000  Uiso   1.00
C287   C     0.94930   0.15953   0.10611   0.00000  Uiso   1.00
C288   C     0.96202   0.13408   0.98880   0.00000  Uiso   1.00
C289   C     0.98888   0.08698   0.85830   0.00000  Uiso   1.00
C290   C     0.89847   0.21626   0.78153   0.00000  Uiso   1.00
C291   C     0.91817   0.24846   0.84486   0.00000  Uiso   1.00
C292   C     0.92819   0.27584   0.73310   0.00000  Uiso   1.00
C293   C     0.94600   0.30289   0.81738   0.00000  Uiso   1.00
C294   C     0.86535   0.21421   0.90036   0.00000  Uiso   1.00
C295   C     0.83096   0.21279   0.83526   0.00000  Uiso   1.00
C296   C     0.80430   0.21100   0.96624   0.00000  Uiso   1.00
C297   C     0.92134   0.18567   0.83810   0.00000  Uiso   1.00
C298   C     0.93403   0.16025   0.72065   0.00000  Uiso   1.00
C299   C     0.95450   0.13443   0.79923   0.00000  Uiso   1.00
H300   H     0.91810   0.21534   0.27724   0.00000  Uiso   1.00
H301   H     0.94926   0.27484   0.26501   0.00000  Uiso   1.00
H302   H     0.85204   0.21180   0.36714   0.00000  Uiso   1.00
H303   H     0.95509   0.15927   0.25255   0.00000  Uiso   1.00
H304   H     0.98048   0.34098   0.16799   0.00000  Uiso   1.00
H305   H     0.77549   0.20803   0.38335   0.00000  Uiso   1.00
H306   H     0.99280   0.09726   0.14172   0.00000  Uiso   1.00
H307   H     0.89263   0.21653   0.63420   0.00000  Uiso   1.00
H308   H     0.92239   0.27610   0.58667   0.00000  Uiso   1.00
H309   H     0.82517   0.21305   0.68881   0.00000  Uiso   1.00
H310   H     0.92822   0.16053   0.57422   0.00000  Uiso   1.00
H311   H     0.95867   0.34200   0.61743   0.00000  Uiso   1.00
H312   H     0.75368   0.20905   0.83279   0.00000  Uiso   1.00
H313   H     0.97099   0.09829   0.59116   0.00000  Uiso   1.00
O314   O     0.98959   0.38066   0.87306   0.00000  Uiso   1.00
O315   O     0.72066   0.20623   0.15560   0.00000  Uiso   1.00
O316   O     0.00577   0.06091   0.83859   0.00000  Uiso   1.00
N317   N     0.97127   0.33304   0.04493   0.00000  Uiso   1.00
N318   N     0.77962   0.20875   0.24628   0.00000  Uiso   1.00
N319   N     0.98277   0.10519   0.02039   0.00000  Uiso   1.00
N320   N     0.95953   0.33359   0.74868   0.00000  Uiso   1.00
N321   N     0.76788   0.20929   0.95003   0.00000  Uiso   1.00
N322   N     0.97104   0.10573   0.72413   0.00000  Uiso   1.00
C323   C     0.91227   0.71561   0.62992   0.00000  Uiso   1.00
C324   C     0.92567   0.74811   0.53409   0.00000  Uiso   1.00
C325   C     0.94346   0.77512   0.61855   0.00000  Uiso   1.00
C326   C     0.95351   0.80254   0.50695   0.00000  Uiso   1.00
C327   C     0.97543   0.85295   0.38696   0.00000  Uiso   1.00
C328   C     0.87284   0.71386   0.58959   0.00000  Uiso   1.00
C329   C     0.84623   0.71207   0.72071   0.00000  Uiso   1.00
C330   C     0.81181   0.71065   0.65581   0.00000  Uiso   1.00
C331   C     0.75173   0.70786   0.62198   0.00000  Uiso   1.00
C332   C     0.92884   0.68532   0.52733   0.00000  Uiso   1.00
C333   C     0.94930   0.65953   0.60611   0.00000  Uiso   1.00
C334   C     0.96202   0.63408   0.48880   0.00000  Uiso   1.00
C335   C     0.98888   0.58698   0.35830   0.00000  Uiso   1.00
C336   C     0.89847   0.71626   0.28153   0.00000  Uiso   1.00
C337   C     0.91817   0.74846   0.34486   0.00000  Uiso   1.00
C338   C     0.92819   0.77584   0.23310   0.00000  Uiso   1.00
C339   C     0.94600   0.80289   0.31738   0.00000  Uiso   1.00
C340   C     0.86535   0.71421   0.40036   0.00000  Uiso   1.00
C341   C     0.83096   0.71279   0.33526   0.00000  Uiso   1.00
C342   C     0.80430   0.71100   0.46624   0.00000  Uiso   1.00
C343   C     0.92134   0.68567   0.33810   0.00000  Uiso   1.00
C344   C     0.93403   0.66025   0.22065   0.00000  Uiso   1.00
C345   C     0.95450   0.63443   0.29923   0.00000  Uiso   1.00
H346   H     0.91810   0.71534   0.77724   0.00000  Uiso   1.00
H347   H     0.94926   0.77484   0.76501   0.00000  Uiso   1.00
H348   H     0.85204   0.71180   0.86714   0.00000  Uiso   1.00
H349   H     0.95509   0.65927   0.75255   0.00000  Uiso   1.00
H350   H     0.98048   0.84098   0.66799   0.00000  Uiso   1.00
H351   H     0.77549   0.70803   0.88335   0.00000  Uiso   1.00
H352   H     0.99280   0.59726   0.64172   0.00000  Uiso   1.00
H353   H     0.89263   0.71653   0.13420   0.00000  Uiso   1.00
H354   H     0.92239   0.77610   0.08667   0.00000  Uiso   1.00
H355   H     0.82517   0.71305   0.18881   0.00000  Uiso   1.00
H356   H     0.92822   0.66053   0.07422   0.00000  Uiso   1.00
H357   H     0.95867   0.84200   0.11743   0.00000  Uiso   1.00
H358   H     0.75368   0.70905   0.33279   0.00000  Uiso   1.00
H359   H     0.97099   0.59829   0.09116   0.00000  Uiso   1.00
O360   O     0.98959   0.88066   0.37306   0.00000  Uiso   1.00
O361   O     0.72066   0.70623   0.65560   0.00000  Uiso   1.00
O362   O     0.00577   0.56091   0.33859   0.00000  Uiso   1.00
N363   N     0.97127   0.83304   0.54493   0.00000  Uiso   1.00
N364   N     0.77962   0.70875   0.74628   0.00000  Uiso   1.00
N365   N     0.98277   0.60519   0.52039   0.00000  Uiso   1.00
N366   N     0.95953   0.83359   0.24868   0.00000  Uiso   1.00
N367   N     0.76788   0.70929   0.45003   0.00000  Uiso   1.00
N368   N     0.97104   0.60573   0.22413   0.00000  Uiso   1.00
C369   C     0.83773   0.46561   0.87992   0.00000  Uiso   1.00
C370   C     0.82433   0.49811   0.78409   0.00000  Uiso   1.00
C371   C     0.80654   0.52512   0.86855   0.00000  Uiso   1.00
C372   C     0.79649   0.55254   0.75695   0.00000  Uiso   1.00
C373   C     0.77457   0.60295   0.63696   0.00000  Uiso   1.00
C374   C     0.87716   0.46386   0.83959   0.00000  Uiso   1.00
C375   C     0.90377   0.46207   0.97071   0.00000  Uiso   1.00
C376   C     0.93819   0.46065   0.90581   0.00000  Uiso   1.00
C377   C     0.99827   0.45786   0.87198   0.00000  Uiso   1.00
C378   C     0.82116   0.43532   0.77733   0.00000  Uiso   1.00
C379   C     0.80070   0.40953   0.85611   0.00000  Uiso   1.00
C380   C     0.78798   0.38408   0.73880   0.00000  Uiso   1.00
C381   C     0.76112   0.33698   0.60830   0.00000  Uiso   1.00
C382   C     0.85153   0.46626   0.53153   0.00000  Uiso   1.00
C383   C     0.83183   0.49846   0.59486   0.00000  Uiso   1.00
C384   C     0.82181   0.52584   0.48310   0.00000  Uiso   1.00
C385   C     0.80400   0.55289   0.56738   0.00000  Uiso   1.00
C386   C     0.88465   0.46421   0.65036   0.00000  Uiso   1.00
C387   C     0.91904   0.46279   0.58526   0.00000  Uiso   1.00
C388   C     0.94570   0.46100   0.71624   0.00000  Uiso   1.00
C389   C     0.82866   0.43567   0.58810   0.00000  Uiso   1.00
C390   C     0.81597   0.41025   0.47065   0.00000  Uiso   1.00
C391   C     0.79550   0.38443   0.54923   0.00000  Uiso   1.00
H392   H     0.83190   0.46534   0.02724   0.00000  Uiso   1.00
H393   H     0.80074   0.52484   0.01501   0.00000  Uiso   1.00
H394   H     0.89796   0.46180   0.11714   0.00000  Uiso   1.00
H395   H     0.79491   0.40927   0.00255   0.00000  Uiso   1.00
H396   H     0.76952   0.59098   0.91799   0.00000  Uiso   1.00
H397   H     0.97451   0.45803   0.13335   0.00000  Uiso   1.00
H398   H     0.75720   0.34726   0.89172   0.00000  Uiso   1.00
H399   H     0.85737   0.46653   0.38420   0.00000  Uiso   1.00
H400   H     0.82761   0.52610   0.33667   0.00000  Uiso   1.00
H401   H     0.92483   0.46305   0.43881   0.00000  Uiso   1.00
H402   H     0.82178   0.41053   0.32422   0.00000  Uiso   1.00
H403   H     0.79133   0.59200   0.36743   0.00000  Uiso   1.00
H404   H     0.99632   0.45905   0.58279   0.00000  Uiso   1.00
H405   H     0.77901   0.34829   0.34116   0.00000  Uiso   1.00
O406   O     0.76041   0.63066   0.62306   0.00000  Uiso   1.00
O407   O     0.02934   0.45623   0.90560   0.00000  Uiso   1.00
O408   O     0.74423   0.31091   0.58859   0.00000  Uiso   1.00
N409   N     0.77873   0.58304   0.79493   0.00000  Uiso   1.00
N410   N     0.97038   0.45875   0.99628   0.00000  Uiso   1.00
N411   N     0.76723   0.35519   0.77039   0.00000  Uiso   1.00
N412   N     0.79047   0.58359   0.49868   0.00000  Uiso   1.00
N413   N     0.98212   0.45929   0.70003   0.00000  Uiso   1.00
N414   N     0.77896   0.35573   0.47413   0.00000  Uiso   1.00
C415   C     0.83773   0.96561   0.37992   0.00000  Uiso   1.00
C416   C     0.82433   0.99811   0.28409   0.00000  Uiso   1.00
C417   C     0.80654   0.02512   0.36855   0.00000  Uiso   1.00
C418   C     0.79649   0.05254   0.25695   0.00000  Uiso   1.00
C419   C     0.77457   0.10295   0.13696   0.00000  Uiso   1.00
C420   C     0.87716   0.96386   0.33959   0.00000  Uiso   1.00
C421   C     0.90377   0.96207   0.47071   0.00000  Uiso   1.00
C422   C     0.93819   0.96065   0.40581   0.00000  Uiso   1.00
C423   C     0.99827   0.95786   0.37198   0.00000  Uiso   1.00
C424   C     0.82116   0.93532   0.27733   0.00000  Uiso   1.00
C425   C     0.80070   0.90953   0.35611   0.00000  Uiso   1.00
C426   C     0.78798   0.88408   0.23880   0.00000  Uiso   1.00
C427   C     0.76112   0.83698   0.10830   0.00000  Uiso   1.00
C428   C     0.85153   0.96626   0.03153   0.00000  Uiso   1.00
C429   C     0.83183   0.99846   0.09486   0.00000  Uiso   1.00
C430   C     0.82181   0.02584   0.98310   0.00000  Uiso   1.00
C431   C     0.80400   0.05289   0.06738   0.00000  Uiso   1.00
C432   C     0.88465   0.96421   0.15036   0.00000  Uiso   1.00
C433   C     0.91904   0.96279   0.08526   0.00000  Uiso   1.00
C434   C     0.94570   0.96100   0.21624   0.00000  Uiso   1.00
C435   C     0.82866   0.93567   0.08810   0.00000  Uiso   1.00
C436   C     0.81597   0.91025   0.97065   0.00000  Uiso   1.00
C437   C     0.79550   0.88443   0.04923   0.00000  Uiso   1.00
H438   H     0.83190   0.96534   0.52724   0.00000  Uiso   1.00
H439   H     0.80074   0.02484   0.51501   0.00000  Uiso   1.00
H440   H     0.89796   0.96180   0.61714   0.00000  Uiso   1.00
H441   H     0.79491   0.90927   0.50255   0.00000  Uiso   1.00
H442   H     0.76952   0.09098   0.41799   0.00000  Uiso   1.00
H443   H     0.97451   0.95803   0.63335   0.00000  Uiso   1.00
H444   H     0.75720   0.84726   0.39172   0.00000  Uiso   1.00
H445   H     0.85737   0.96653   0.88420   0.00000  Uiso   1.00
H446   H     0.82761   0.02610   0.83667   0.00000  Uiso   1.00
H447   H     0.92483   0.96305   0.93881   0.00000  Uiso   1.00
H448   H     0.82178   0.91053   0.82422   0.00000  Uiso   1.00
H449   H     0.79133   0.09200   0.86743   0.00000  Uiso   1.00
H450   H     0.99632   0.95905   0.08279   0.00000  Uiso   1.00
H451   H     0.77901   0.84829   0.84116   0.00000  Uiso   1.00
O452   O     0.76041   0.13066   0.12306   0.00000  Uiso   1.00
O453   O     0.02934   0.95623   0.40560   0.00000  Uiso   1.00
O454   O     0.74423   0.81091   0.08859   0.00000  Uiso   1.00
N455   N     0.77873   0.08304   0.29493   0.00000  Uiso   1.00
N456   N     0.97038   0.95875   0.49628   0.00000  Uiso   1.00
N457   N     0.76723   0.85519   0.27039   0.00000  Uiso   1.00
N458   N     0.79047   0.08359   0.99868   0.00000  Uiso   1.00
N459   N     0.98212   0.95929   0.20003   0.00000  Uiso   1.00
N460   N     0.77896   0.85573   0.97413   0.00000  Uiso   1.00
C461   C     0.33773   0.46561   0.37992   0.00000  Uiso   1.00
C462   C     0.32433   0.49811   0.28409   0.00000  Uiso   1.00
C463   C     0.30654   0.52512   0.36855   0.00000  Uiso   1.00
C464   C     0.29649   0.55254   0.25695   0.00000  Uiso   1.00
C465   C     0.27457   0.60295   0.13696   0.00000  Uiso   1.00
C466   C     0.37716   0.46386   0.33959   0.00000  Uiso   1.00
C467   C     0.40377   0.46207   0.47071   0.00000  Uiso   1.00
C468   C     0.43819   0.46065   0.40581   0.00000  Uiso   1.00
C469   C     0.49827   0.45786   0.37198   0.00000  Uiso   1.00
C470   C     0.32116   0.43532   0.27733   0.00000  Uiso   1.00
C471   C     0.30070   0.40953   0.35611   0.00000  Uiso   1.00
C472   C     0.28798   0.38408   0.23880   0.00000  Uiso   1.00
C473   C     0.26112   0.33698   0.10830   0.00000  Uiso   1.00
C474   C     0.35153   0.46626   0.03153   0.00000  Uiso   1.00
C475   C     0.33183   0.49846   0.09486   0.00000  Uiso   1.00
C476   C     0.32181   0.52584   0.98310   0.00000  Uiso   1.00
C477   C     0.30400   0.55289   0.06738   0.00000  Uiso   1.00
C478   C     0.38465   0.46421   0.15036   0.00000  Uiso   1.00
C479   C     0.41904   0.46279   0.08526   0.00000  Uiso   1.00
C480   C     0.44570   0.46100   0.21624   0.00000  Uiso   1.00
C481   C     0.32866   0.43567   0.08810   0.00000  Uiso   1.00
C482   C     0.31597   0.41025   0.97065   0.00000  Uiso   1.00
C483   C     0.29550   0.38443   0.04923   0.00000  Uiso   1.00
H484   H     0.33190   0.46534   0.52724   0.00000  Uiso   1.00
H485   H     0.30074   0.52484   0.51501   0.00000  Uiso   1.00
H486   H     0.39796   0.46180   0.61714   0.00000  Uiso   1.00
H487   H     0.29491   0.40927   0.50255   0.00000  Uiso   1.00
H488   H     0.26952   0.59098   0.41799   0.00000  Uiso   1.00
H489   H     0.47451   0.45803   0.63335   0.00000  Uiso   1.00
H490   H     0.25720   0.34726   0.39172   0.00000  Uiso   1.00
H491   H     0.35737   0.46653   0.88420   0.00000  Uiso   1.00
H492   H     0.32761   0.52610   0.83667   0.00000  Uiso   1.00
H493   H     0.42483   0.46305   0.93881   0.00000  Uiso   1.00
H494   H     0.32178   0.41053   0.82422   0.00000  Uiso   1.00
H495   H     0.29133   0.59200   0.86743   0.00000  Uiso   1.00
H496   H     0.49632   0.45905   0.08279   0.00000  Uiso   1.00
H497   H     0.27901   0.34829   0.84116   0.00000  Uiso   1.00
O498   O     0.26041   0.63066   0.12306   0.00000  Uiso   1.00
O499   O     0.52934   0.45623   0.40560   0.00000  Uiso   1.00
O500   O     0.24423   0.31091   0.08859   0.00000  Uiso   1.00
N501   N     0.27873   0.58304   0.29493   0.00000  Uiso   1.00
N502   N     0.47038   0.45875   0.49628   0.00000  Uiso   1.00
N503   N     0.26723   0.35519   0.27039   0.00000  Uiso   1.00
N504   N     0.29047   0.58359   0.99868   0.00000  Uiso   1.00
N505   N     0.48212   0.45929   0.20003   0.00000  Uiso   1.00
N506   N     0.27896   0.35573   0.97413   0.00000  Uiso   1.00
C507   C     0.33773   0.96561   0.87992   0.00000  Uiso   1.00
C508   C     0.32433   0.99811   0.78409   0.00000  Uiso   1.00
C509   C     0.30654   0.02512   0.86855   0.00000  Uiso   1.00
C510   C     0.29649   0.05254   0.75695   0.00000  Uiso   1.00
C511   C     0.27457   0.10295   0.63696   0.00000  Uiso   1.00
C512   C     0.37716   0.96386   0.83959   0.00000  Uiso   1.00
C513   C     0.40377   0.96207   0.97071   0.00000  Uiso   1.00
C514   C     0.43819   0.96065   0.90581   0.00000  Uiso   1.00
C515   C     0.49827   0.95786   0.87198   0.00000  Uiso   1.00
C516   C     0.32116   0.93532   0.77733   0.00000  Uiso   1.00
C517   C     0.30070   0.90953   0.85611   0.00000  Uiso   1.00
C518   C     0.28798   0.88408   0.73880   0.00000  Uiso   1.00
C519   C     0.26112   0.83698   0.60830   0.00000  Uiso   1.00
C520   C     0.35153   0.96626   0.53153   0.00000  Uiso   1.00
C521   C     0.33183   0.99846   0.59486   0.00000  Uiso   1.00
C522   C     0.32181   0.02584   0.48310   0.00000  Uiso   1.00
C523   C     0.30400   0.05289   0.56738   0.00000  Uiso   1.00
C524   C     0.38465   0.96421   0.65036   0.00000  Uiso   1.00
C525   C     0.41904   0.96279   0.58526   0.00000  Uiso   1.00
C526   C     0.44570   0.96100   0.71624   0.00000  Uiso   1.00
C527   C     0.32866   0.93567   0.58810   0.00000  Uiso   1.00
C528   C     0.31597   0.91025   0.47065   0.00000  Uiso   1.00
C529   C     0.29550   0.88443   0.54923   0.00000  Uiso   1.00
H530   H     0.33190   0.96534   0.02724   0.00000  Uiso   1.00
H531   H     0.30074   0.02484   0.01501   0.00000  Uiso   1.00
H532   H     0.39796   0.96180   0.11714   0.00000  Uiso   1.00
H533   H     0.29491   0.90927   0.00255   0.00000  Uiso   1.00
H534   H     0.26952   0.09098   0.91799   0.00000  Uiso   1.00
H535   H     0.47451   0.95803   0.13335   0.00000  Uiso   1.00
H536   H     0.25720   0.84726   0.89172   0.00000  Uiso   1.00
H537   H     0.35737   0.96653   0.38420   0.00000  Uiso   1.00
H538   H     0.32761   0.02610   0.33667   0.00000  Uiso   1.00
H539   H     0.42483   0.96305   0.43881   0.00000  Uiso   1.00
H540   H     0.32178   0.91053   0.32422   0.00000  Uiso   1.00
H541   H     0.29133   0.09200   0.36743   0.00000  Uiso   1.00
H542   H     0.49632   0.95905   0.58279   0.00000  Uiso   1.00
H543   H     0.27901   0.84829   0.34116   0.00000  Uiso   1.00
O544   O     0.26041   0.13066   0.62306   0.00000  Uiso   1.00
O545   O     0.52934   0.95623   0.90560   0.00000  Uiso   1.00
O546   O     0.24423   0.81091   0.58859   0.00000  Uiso   1.00
N547   N     0.27873   0.08304   0.79493   0.00000  Uiso   1.00
N548   N     0.47038   0.95875   0.99628   0.00000  Uiso   1.00
N549   N     0.26723   0.85519   0.77039   0.00000  Uiso   1.00
N550   N     0.29047   0.08359   0.49868   0.00000  Uiso   1.00
N551   N     0.48212   0.95929   0.70003   0.00000  Uiso   1.00
N552   N     0.27896   0.85573   0.47413   0.00000  Uiso   1.00
C553   C     0.66227   0.03439   0.87992   0.00000  Uiso   1.00
C554   C     0.67567   0.00189   0.78409   0.00000  Uiso   1.00
C555   C     0.69346   0.97488   0.86855   0.00000  Uiso   1.00
C556   C     0.70351   0.94746   0.75695   0.00000  Uiso   1.00
C557   C     0.72543   0.89705   0.63696   0.00000  Uiso   1.00
C558   C     0.62284   0.03614   0.83959   0.00000  Uiso   1.00
C559   C     0.59623   0.03793   0.97071   0.00000  Uiso   1.00
C560   C     0.56181   0.03935   0.90581   0.00000  Uiso   1.00
C561   C     0.50173   0.04214   0.87198   0.00000  Uiso   1.00
C562   C     0.67884   0.06468   0.77733   0.00000  Uiso   1.00
C563   C     0.69930   0.09047   0.85611   0.00000  Uiso   1.00
C564   C     0.71202   0.11592   0.73880   0.00000  Uiso   1.00
C565   C     0.73888   0.16302   0.60830   0.00000  Uiso   1.00
C566   C     0.64847   0.03374   0.53153   0.00000  Uiso   1.00
C567   C     0.66817   0.00154   0.59486   0.00000  Uiso   1.00
C568   C     0.67819   0.97416   0.48310   0.00000  Uiso   1.00
C569   C     0.69600   0.94711   0.56738   0.00000  Uiso   1.00
C570   C     0.61535   0.03579   0.65036   0.00000  Uiso   1.00
C571   C     0.58096   0.03721   0.58526   0.00000  Uiso   1.00
C572   C     0.55430   0.03900   0.71624   0.00000  Uiso   1.00
C573   C     0.67134   0.06433   0.58810   0.00000  Uiso   1.00
C574   C     0.68403   0.08975   0.47065   0.00000  Uiso   1.00
C575   C     0.70450   0.11557   0.54923   0.00000  Uiso   1.00
H576   H     0.66810   0.03466   0.02724   0.00000  Uiso   1.00
H577   H     0.69926   0.97516   0.01501   0.00000  Uiso   1.00
H578   H     0.60204   0.03820   0.11714   0.00000  Uiso   1.00
H579   H     0.70509   0.09073   0.00255   0.00000  Uiso   1.00
H580   H     0.73048   0.90902   0.91799   0.00000  Uiso   1.00
H581   H     0.52549   0.04197   0.13335   0.00000  Uiso   1.00
H582   H     0.74280   0.15274   0.89172   0.00000  Uiso   1.00
H583   H     0.64263   0.03347   0.38420   0.00000  Uiso   1.00
H584   H     0.67239   0.97390   0.33667   0.00000  Uiso   1.00
H585   H     0.57517   0.03695   0.43881   0.00000  Uiso   1.00
H586   H     0.67822   0.08947   0.32422   0.00000  Uiso   1.00
H587   H     0.70867   0.90800   0.36743   0.00000  Uiso   1.00
H588   H     0.50368   0.04095   0.58279   0.00000  Uiso   1.00
H589   H     0.72099   0.15171   0.34116   0.00000  Uiso   1.00
O590   O     0.73959   0.86934   0.62306   0.00000  Uiso   1.00
O591   O     0.47066   0.04377   0.90560   0.00000  Uiso   1.00
O592   O     0.75577   0.18909   0.58859   0.00000  Uiso   1.00
N593   N     0.72127   0.91696   0.79493   0.00000  Uiso   1.00
N594   N     0.52962   0.04125   0.99628   0.00000  Uiso   1.00
N595   N     0.73277   0.14481   0.77039   0.00000  Uiso   1.00
N596   N     0.70953   0.91641   0.49868   0.00000  Uiso   1.00
N597   N     0.51788   0.04071   0.70003   0.00000  Uiso   1.00
N598   N     0.72104   0.14427   0.47413   0.00000  Uiso   1.00
C599   C     0.66227   0.53439   0.37992   0.00000  Uiso   1.00
C600   C     0.67567   0.50189   0.28409   0.00000  Uiso   1.00
C601   C     0.69346   0.47488   0.36855   0.00000  Uiso   1.00
C602   C     0.70351   0.44746   0.25695   0.00000  Uiso   1.00
C603   C     0.72543   0.39705   0.13696   0.00000  Uiso   1.00
C604   C     0.62284   0.53614   0.33959   0.00000  Uiso   1.00
C605   C     0.59623   0.53793   0.47071   0.00000  Uiso   1.00
C606   C     0.56181   0.53935   0.40581   0.00000  Uiso   1.00
C607   C     0.50173   0.54214   0.37198   0.00000  Uiso   1.00
C608   C     0.67884   0.56468   0.27733   0.00000  Uiso   1.00
C609   C     0.69930   0.59047   0.35611   0.00000  Uiso   1.00
C610   C     0.71202   0.61592   0.23880   0.00000  Uiso   1.00
C611   C     0.73888   0.66302   0.10830   0.00000  Uiso   1.00
C612   C     0.64847   0.53374   0.03153   0.00000  Uiso   1.00
C613   C     0.66817   0.50154   0.09486   0.00000  Uiso   1.00
C614   C     0.67819   0.47416   0.98310   0.00000  Uiso   1.00
C615   C     0.69600   0.44711   0.06738   0.00000  Uiso   1.00
C616   C     0.61535   0.53579   0.15036   0.00000  Uiso   1.00
C617   C     0.58096   0.53721   0.08526   0.00000  Uiso   1.00
C618   C     0.55430   0.53900   0.21624   0.00000  Uiso   1.00
C619   C     0.67134   0.56433   0.08810   0.00000  Uiso   1.00
C620   C     0.68403   0.58975   0.97065   0.00000  Uiso   1.00
C621   C     0.70450   0.61557   0.04923   0.00000  Uiso   1.00
H622   H     0.66810   0.53466   0.52724   0.00000  Uiso   1.00
H623   H     0.69926   0.47516   0.51501   0.00000  Uiso   1.00
H624   H     0.60204   0.53820   0.61714   0.00000  Uiso   1.00
H625   H     0.70509   0.59073   0.50255   0.00000  Uiso   1.00
H626   H     0.73048   0.40902   0.41799   0.00000  Uiso   1.00
H627   H     0.52549   0.54197   0.63335   0.00000  Uiso   1.00
H628   H     0.74280   0.65274   0.39172   0.00000  Uiso   1.00
H629   H     0.64263   0.53347   0.88420   0.00000  Uiso   1.00
H630   H     0.67239   0.47390   0.83667   0.00000  Uiso   1.00
H631   H     0.57517   0.53695   0.93881   0.00000  Uiso   1.00
H632   H     0.67822   0.58947   0.82422   0.00000  Uiso   1.00
H633   H     0.70867   0.40800   0.86743   0.00000  Uiso   1.00
H634   H     0.50368   0.54095   0.08279   0.00000  Uiso   1.00
H635   H     0.72099   0.65171   0.84116   0.00000  Uiso   1.00
O636   O     0.73959   0.36934   0.12306   0.00000  Uiso   1.00
O637   O     0.47066   0.54377   0.40560   0.00000  Uiso   1.00
O638   O     0.75577   0.68909   0.08859   0.00000  Uiso   1.00
N639   N     0.72127   0.41696   0.29493   0.00000  Uiso   1.00
N640   N     0.52962   0.54125   0.49628   0.00000  Uiso   1.00
N641   N     0.73277   0.64481   0.27039   0.00000  Uiso   1.00
N642   N     0.70953   0.41641   0.99868   0.00000  Uiso   1.00
N643   N     0.51788   0.54071   0.20003   0.00000  Uiso   1.00
N644   N     0.72104   0.64427   0.97413   0.00000  Uiso   1.00
C645   C     0.16227   0.03439   0.37992   0.00000  Uiso   1.00
C646   C     0.17567   0.00189   0.28409   0.00000  Uiso   1.00
C647   C     0.19346   0.97488   0.36855   0.00000  Uiso   1.00
C648   C     0.20351   0.94746   0.25695   0.00000  Uiso   1.00
C649   C     0.22543   0.89705   0.13696   0.00000  Uiso   1.00
C650   C     0.12284   0.03614   0.33959   0.00000  Uiso   1.00
C651   C     0.09623   0.03793   0.47071   0.00000  Uiso   1.00
C652   C     0.06181   0.03935   0.40581   0.00000  Uiso   1.00
C653   C     0.00173   0.04214   0.37198   0.00000  Uiso   1.00
C654   C     0.17884   0.06468   0.27733   0.00000  Uiso   1.00
C655   C     0.19930   0.09047   0.35611   0.00000  Uiso   1.00
C656   C     0.21202   0.11592   0.23880   0.00000  Uiso   1.00
C657   C     0.23888   0.16302   0.10830   0.00000  Uiso   1.00
C658   C     0.14847   0.03374   0.03153   0.00000  Uiso   1.00
C659   C     0.16817   0.00154   0.09486   0.00000  Uiso   1.00
C660   C     0.17819   0.97416   0.98310   0.00000  Uiso   1.00
C661   C     0.19600   0.94711   0.06738   0.00000  Uiso   1.00
C662   C     0.11535   0.03579   0.15036   0.00000  Uiso   1.00
C663   C     0.08096   0.03721   0.08526   0.00000  Uiso   1.00
C664   C     0.05430   0.03900   0.21624   0.00000  Uiso   1.00
C665   C     0.17134   0.06433   0.08810   0.00000  Uiso   1.00
C666   C     0.18403   0.08975   0.97065   0.00000  Uiso   1.00
C667   C     0.20450   0.11557   0.04923   0.00000  Uiso   1.00
H668   H     0.16810   0.03466   0.52724   0.00000  Uiso   1.00
H669   H     0.19926   0.97516   0.51501   0.00000  Uiso   1.00
H670   H     0.10204   0.03820   0.61714   0.00000  Uiso   1.00
H671   H     0.20509   0.09073   0.50255   0.00000  Uiso   1.00
H672   H     0.23048   0.90902   0.41799   0.00000  Uiso   1.00
H673   H     0.02549   0.04197   0.63335   0.00000  Uiso   1.00
H674   H     0.24280   0.15274   0.39172   0.00000  Uiso   1.00
H675   H     0.14263   0.03347   0.88420   0.00000  Uiso   1.00
H676   H     0.17239   0.97390   0.83667   0.00000  Uiso   1.00
H677   H     0.07517   0.03695   0.93881   0.00000  Uiso   1.00
H678   H     0.17822   0.08947   0.82422   0.00000  Uiso   1.00
H679   H     0.20867   0.90800   0.86743   0.00000  Uiso   1.00
H680   H     0.00368   0.04095   0.08279   0.00000  Uiso   1.00
H681   H     0.22099   0.15171   0.84116   0.00000  Uiso   1.00
O682   O     0.23959   0.86934   0.12306   0.00000  Uiso   1.00
O683   O     0.97066   0.04377   0.40560   0.00000  Uiso   1.00
O684   O     0.25577   0.18909   0.08859   0.00000  Uiso   1.00
N685   N     0.22127   0.91696   0.29493   0.00000  Uiso   1.00
N686   N     0.02962   0.04125   0.49628   0.00000  Uiso   1.00
N687   N     0.23277   0.14481   0.27039   0.00000  Uiso   1.00
N688   N     0.20953   0.91641   0.99868   0.00000  Uiso   1.00
N689   N     0.01788   0.04071   0.20003   0.00000  Uiso   1.00
N690   N     0.22104   0.14427   0.97413   0.00000  Uiso   1.00
C691   C     0.16227   0.53439   0.87992   0.00000  Uiso   1.00
C692   C     0.17567   0.50189   0.78409   0.00000  Uiso   1.00
C693   C     0.19346   0.47488   0.86855   0.00000  Uiso   1.00
C694   C     0.20351   0.44746   0.75695   0.00000  Uiso   1.00
C695   C     0.22543   0.39705   0.63696   0.00000  Uiso   1.00
C696   C     0.12284   0.53614   0.83959   0.00000  Uiso   1.00
C697   C     0.09623   0.53793   0.97071   0.00000  Uiso   1.00
C698   C     0.06181   0.53935   0.90581   0.00000  Uiso   1.00
C699   C     0.00173   0.54214   0.87198   0.00000  Uiso   1.00
C700   C     0.17884   0.56468   0.77733   0.00000  Uiso   1.00
C701   C     0.19930   0.59047   0.85611   0.00000  Uiso   1.00
C702   C     0.21202   0.61592   0.73880   0.00000  Uiso   1.00
C703   C     0.23888   0.66302   0.60830   0.00000  Uiso   1.00
C704   C     0.14847   0.53374   0.53153   0.00000  Uiso   1.00
C705   C     0.16817   0.50154   0.59486   0.00000  Uiso   1.00
C706   C     0.17819   0.47416   0.48310   0.00000  Uiso   1.00
C707   C     0.19600   0.44711   0.56738   0.00000  Uiso   1.00
C708   C     0.11535   0.53579   0.65036   0.00000  Uiso   1.00
C709   C     0.08096   0.53721   0.58526   0.00000  Uiso   1.00
C710   C     0.05430   0.53900   0.71624   0.00000  Uiso   1.00
C711   C     0.17134   0.56433   0.58810   0.00000  Uiso   1.00
C712   C     0.18403   0.58975   0.47065   0.00000  Uiso   1.00
C713   C     0.20450   0.61557   0.54923   0.00000  Uiso   1.00
H714   H     0.16810   0.53466   0.02724   0.00000  Uiso   1.00
H715   H     0.19926   0.47516   0.01501   0.00000  Uiso   1.00
H716   H     0.10204   0.53820   0.11714   0.00000  Uiso   1.00
H717   H     0.20509   0.59073   0.00255   0.00000  Uiso   1.00
H718   H     0.23048   0.40902   0.91799   0.00000  Uiso   1.00
H719   H     0.02549   0.54197   0.13335   0.00000  Uiso   1.00
H720   H     0.24280   0.65274   0.89172   0.00000  Uiso   1.00
H721   H     0.14263   0.53347   0.38420   0.00000  Uiso   1.00
H722   H     0.17239   0.47390   0.33667   0.00000  Uiso   1.00
H723   H     0.07517   0.53695   0.43881   0.00000  Uiso   1.00
H724   H     0.17822   0.58947   0.32422   0.00000  Uiso   1.00
H725   H     0.20867   0.40800   0.36743   0.00000  Uiso   1.00
H726   H     0.00368   0.54095   0.58279   0.00000  Uiso   1.00
H727   H     0.22099   0.65171   0.34116   0.00000  Uiso   1.00
O728   O     0.23959   0.36934   0.62306   0.00000  Uiso   1.00
O729   O     0.97066   0.54377   0.90560   0.00000  Uiso   1.00
O730   O     0.25577   0.68909   0.58859   0.00000  Uiso   1.00
N731   N     0.22127   0.41696   0.79493   0.00000  Uiso   1.00
N732   N     0.02962   0.54125   0.99628   0.00000  Uiso   1.00
N733   N     0.23277   0.64481   0.77039   0.00000  Uiso   1.00
N734   N     0.20953   0.41641   0.49868   0.00000  Uiso   1.00
N735   N     0.01788   0.54071   0.70003   0.00000  Uiso   1.00
N736   N     0.22104   0.64427   0.47413   0.00000  Uiso   1.00
