data_job_01419
_audit_creation_date              2018-12-19
_audit_creation_method            'Materials Studio'
_symmetry_space_group_name_H-M    'P1'
_symmetry_Int_Tables_number       1
_symmetry_cell_setting            triclinic
loop_
_symmetry_equiv_pos_as_xyz
  x,y,z
_cell_length_a                    14.6386
_cell_length_b                    40.9591
_cell_length_c                    23.1396
_cell_angle_alpha                 90.0000
_cell_angle_beta                  90.0000
_cell_angle_gamma                 90.0000
loop_
_atom_site_label
_atom_site_type_symbol
_atom_site_fract_x
_atom_site_fract_y
_atom_site_fract_z
_atom_site_U_iso_or_equiv
_atom_site_adp_type
_atom_site_occupancy
C1     C     0.46043   0.33432   0.46374   0.00000  Uiso   1.00
C2     C     0.43166   0.32071   0.40516   0.00000  Uiso   1.00
C3     C     0.49004   0.30837   0.36326   0.00000  Uiso   1.00
C4     C     0.45034   0.29709   0.31256   0.00000  Uiso   1.00
C5     C     0.42007   0.27582   0.22287   0.00000  Uiso   1.00
C6     C     0.42209   0.36890   0.46658   0.00000  Uiso   1.00
C7     C     0.47243   0.39708   0.47633   0.00000  Uiso   1.00
C8     C     0.42468   0.42636   0.47734   0.00000  Uiso   1.00
C9     C     0.37955   0.47990   0.48305   0.00000  Uiso   1.00
C10    C     0.40807   0.31465   0.50883   0.00000  Uiso   1.00
C11    C     0.44662   0.29722   0.55412   0.00000  Uiso   1.00
C12    C     0.38706   0.28084   0.59071   0.00000  Uiso   1.00
C13    C     0.32016   0.25015   0.66203   0.00000  Uiso   1.00
C14    C     0.28610   0.33622   0.44821   0.00000  Uiso   1.00
C15    C     0.33697   0.32174   0.39673   0.00000  Uiso   1.00
C16    C     0.29716   0.31047   0.34608   0.00000  Uiso   1.00
C17    C     0.35548   0.29812   0.30411   0.00000  Uiso   1.00
C18    C     0.32740   0.36993   0.45815   0.00000  Uiso   1.00
C19    C     0.27956   0.39918   0.45915   0.00000  Uiso   1.00
C20    C     0.32981   0.42739   0.46889   0.00000  Uiso   1.00
C21    C     0.31338   0.31568   0.50040   0.00000  Uiso   1.00
C22    C     0.25374   0.29932   0.53694   0.00000  Uiso   1.00
C23    C     0.29220   0.28187   0.58227   0.00000  Uiso   1.00
H24    H     0.53415   0.33352   0.47030   0.00000  Uiso   1.00
H25    H     0.56332   0.30758   0.36980   0.00000  Uiso   1.00
H26    H     0.54571   0.39627   0.48286   0.00000  Uiso   1.00
H27    H     0.51990   0.29643   0.56063   0.00000  Uiso   1.00
H28    H     0.55390   0.27929   0.25464   0.00000  Uiso   1.00
H29    H     0.51677   0.46630   0.49305   0.00000  Uiso   1.00
H30    H     0.46235   0.25577   0.65705   0.00000  Uiso   1.00
H31    H     0.21237   0.33702   0.44165   0.00000  Uiso   1.00
H32    H     0.22388   0.31127   0.33957   0.00000  Uiso   1.00
H33    H     0.20628   0.39996   0.45263   0.00000  Uiso   1.00
H34    H     0.18047   0.30012   0.53040   0.00000  Uiso   1.00
H35    H     0.27841   0.28229   0.23010   0.00000  Uiso   1.00
H36    H     0.24128   0.46930   0.46852   0.00000  Uiso   1.00
H37    H     0.18685   0.25876   0.63252   0.00000  Uiso   1.00
O38    O     0.42954   0.26380   0.17573   0.00000  Uiso   1.00
O39    O     0.38082   0.50915   0.48853   0.00000  Uiso   1.00
O40    O     0.30942   0.23293   0.70369   0.00000  Uiso   1.00
N41    N     0.48748   0.28353   0.26288   0.00000  Uiso   1.00
N42    N     0.45277   0.45837   0.48577   0.00000  Uiso   1.00
N43    N     0.40189   0.26154   0.63911   0.00000  Uiso   1.00
N44    N     0.33924   0.28514   0.24968   0.00000  Uiso   1.00
N45    N     0.30453   0.45998   0.47257   0.00000  Uiso   1.00
N46    N     0.25365   0.26316   0.62591   0.00000  Uiso   1.00
C47    C     0.44711   0.15894   0.53959   0.00000  Uiso   1.00
C48    C     0.46087   0.16611   0.60367   0.00000  Uiso   1.00
C49    C     0.54124   0.17701   0.62896   0.00000  Uiso   1.00
C50    C     0.53993   0.18214   0.68827   0.00000  Uiso   1.00
C51    C     0.57330   0.19412   0.78278   0.00000  Uiso   1.00
C52    C     0.41422   0.12367   0.53608   0.00000  Uiso   1.00
C53    C     0.45536   0.09888   0.50453   0.00000  Uiso   1.00
C54    C     0.41477   0.06827   0.50693   0.00000  Uiso   1.00
C55    C     0.37568   0.01436   0.49647   0.00000  Uiso   1.00
C56    C     0.36672   0.17998   0.52039   0.00000  Uiso   1.00
C57    C     0.36791   0.20253   0.47564   0.00000  Uiso   1.00
C58    C     0.28732   0.21933   0.46482   0.00000  Uiso   1.00
C59    C     0.17448   0.25285   0.43000   0.00000  Uiso   1.00
C60    C     0.30187   0.14865   0.59994   0.00000  Uiso   1.00
C61    C     0.38198   0.16053   0.63645   0.00000  Uiso   1.00
C62    C     0.38055   0.16564   0.69573   0.00000  Uiso   1.00
C63    C     0.46090   0.17654   0.72110   0.00000  Uiso   1.00
C64    C     0.33534   0.11808   0.56885   0.00000  Uiso   1.00
C65    C     0.29467   0.08750   0.57130   0.00000  Uiso   1.00
C66    C     0.33574   0.06268   0.53977   0.00000  Uiso   1.00
C67    C     0.28783   0.17439   0.55316   0.00000  Uiso   1.00
C68    C     0.20722   0.19116   0.54241   0.00000  Uiso   1.00
C69    C     0.20829   0.21373   0.49765   0.00000  Uiso   1.00
H70    H     0.50853   0.16328   0.51407   0.00000  Uiso   1.00
H71    H     0.60228   0.18133   0.60358   0.00000  Uiso   1.00
H72    H     0.51640   0.10321   0.47916   0.00000  Uiso   1.00
H73    H     0.42897   0.20685   0.45028   0.00000  Uiso   1.00
H74    H     0.67143   0.19887   0.71728   0.00000  Uiso   1.00
H75    H     0.49035   0.03415   0.45492   0.00000  Uiso   1.00
H76    H     0.30597   0.25269   0.39401   0.00000  Uiso   1.00
H77    H     0.24045   0.14430   0.62546   0.00000  Uiso   1.00
H78    H     0.31949   0.16131   0.72108   0.00000  Uiso   1.00
H79    H     0.23362   0.08319   0.59666   0.00000  Uiso   1.00
H80    H     0.14618   0.18683   0.56778   0.00000  Uiso   1.00
H81    H     0.44191   0.18262   0.81265   0.00000  Uiso   1.00
H82    H     0.26082   0.01790   0.55029   0.00000  Uiso   1.00
H83    H     0.07645   0.23644   0.48938   0.00000  Uiso   1.00
O84    O     0.61351   0.20226   0.82586   0.00000  Uiso   1.00
O85    O     0.37592   0.98616   0.48165   0.00000  Uiso   1.00
O86    O     0.13404   0.27288   0.40174   0.00000  Uiso   1.00
N87    N     0.60656   0.19271   0.72660   0.00000  Uiso   1.00
N88    N     0.43727   0.03871   0.48132   0.00000  Uiso   1.00
N89    N     0.26489   0.24302   0.42436   0.00000  Uiso   1.00
N90    N     0.48306   0.18397   0.77791   0.00000  Uiso   1.00
N91    N     0.31376   0.02997   0.53263   0.00000  Uiso   1.00
N92    N     0.14138   0.23428   0.47568   0.00000  Uiso   1.00
C93    C     0.96043   0.83432   0.96374   0.00000  Uiso   1.00
C94    C     0.93166   0.82071   0.90516   0.00000  Uiso   1.00
C95    C     0.99004   0.80837   0.86326   0.00000  Uiso   1.00
C96    C     0.95034   0.79709   0.81256   0.00000  Uiso   1.00
C97    C     0.92007   0.77582   0.72287   0.00000  Uiso   1.00
C98    C     0.92209   0.86890   0.96658   0.00000  Uiso   1.00
C99    C     0.97243   0.89708   0.97633   0.00000  Uiso   1.00
C100   C     0.92468   0.92636   0.97734   0.00000  Uiso   1.00
C101   C     0.87955   0.97990   0.98305   0.00000  Uiso   1.00
C102   C     0.90807   0.81465   0.00883   0.00000  Uiso   1.00
C103   C     0.94662   0.79722   0.05412   0.00000  Uiso   1.00
C104   C     0.88706   0.78084   0.09071   0.00000  Uiso   1.00
C105   C     0.82016   0.75015   0.16203   0.00000  Uiso   1.00
C106   C     0.78610   0.83622   0.94821   0.00000  Uiso   1.00
C107   C     0.83697   0.82174   0.89673   0.00000  Uiso   1.00
C108   C     0.79716   0.81047   0.84608   0.00000  Uiso   1.00
C109   C     0.85548   0.79812   0.80411   0.00000  Uiso   1.00
C110   C     0.82740   0.86993   0.95815   0.00000  Uiso   1.00
C111   C     0.77956   0.89918   0.95915   0.00000  Uiso   1.00
C112   C     0.82981   0.92739   0.96889   0.00000  Uiso   1.00
C113   C     0.81338   0.81568   0.00040   0.00000  Uiso   1.00
C114   C     0.75374   0.79932   0.03694   0.00000  Uiso   1.00
C115   C     0.79220   0.78187   0.08227   0.00000  Uiso   1.00
H116   H     0.03415   0.83352   0.97030   0.00000  Uiso   1.00
H117   H     0.06332   0.80758   0.86980   0.00000  Uiso   1.00
H118   H     0.04571   0.89627   0.98286   0.00000  Uiso   1.00
H119   H     0.01990   0.79643   0.06063   0.00000  Uiso   1.00
H120   H     0.05390   0.77929   0.75464   0.00000  Uiso   1.00
H121   H     0.01677   0.96630   0.99305   0.00000  Uiso   1.00
H122   H     0.96235   0.75577   0.15705   0.00000  Uiso   1.00
H123   H     0.71237   0.83702   0.94165   0.00000  Uiso   1.00
H124   H     0.72388   0.81127   0.83957   0.00000  Uiso   1.00
H125   H     0.70628   0.89996   0.95263   0.00000  Uiso   1.00
H126   H     0.68047   0.80012   0.03040   0.00000  Uiso   1.00
H127   H     0.77841   0.78229   0.73010   0.00000  Uiso   1.00
H128   H     0.74128   0.96930   0.96852   0.00000  Uiso   1.00
H129   H     0.68685   0.75876   0.13252   0.00000  Uiso   1.00
O130   O     0.92954   0.76380   0.67573   0.00000  Uiso   1.00
O131   O     0.88082   0.00915   0.98853   0.00000  Uiso   1.00
O132   O     0.80942   0.73293   0.20369   0.00000  Uiso   1.00
N133   N     0.98748   0.78353   0.76288   0.00000  Uiso   1.00
N134   N     0.95277   0.95837   0.98577   0.00000  Uiso   1.00
N135   N     0.90189   0.76154   0.13911   0.00000  Uiso   1.00
N136   N     0.83924   0.78514   0.74968   0.00000  Uiso   1.00
N137   N     0.80453   0.95998   0.97257   0.00000  Uiso   1.00
N138   N     0.75365   0.76316   0.12591   0.00000  Uiso   1.00
C139   C     0.94711   0.65894   0.03959   0.00000  Uiso   1.00
C140   C     0.96087   0.66611   0.10367   0.00000  Uiso   1.00
C141   C     0.04124   0.67701   0.12896   0.00000  Uiso   1.00
C142   C     0.03993   0.68214   0.18827   0.00000  Uiso   1.00
C143   C     0.07330   0.69412   0.28278   0.00000  Uiso   1.00
C144   C     0.91422   0.62367   0.03608   0.00000  Uiso   1.00
C145   C     0.95536   0.59888   0.00453   0.00000  Uiso   1.00
C146   C     0.91477   0.56827   0.00693   0.00000  Uiso   1.00
C147   C     0.87568   0.51436   0.99647   0.00000  Uiso   1.00
C148   C     0.86672   0.67998   0.02039   0.00000  Uiso   1.00
C149   C     0.86791   0.70253   0.97564   0.00000  Uiso   1.00
C150   C     0.78732   0.71933   0.96482   0.00000  Uiso   1.00
C151   C     0.67448   0.75285   0.93000   0.00000  Uiso   1.00
C152   C     0.80187   0.64865   0.09994   0.00000  Uiso   1.00
C153   C     0.88198   0.66053   0.13645   0.00000  Uiso   1.00
C154   C     0.88055   0.66564   0.19573   0.00000  Uiso   1.00
C155   C     0.96090   0.67654   0.22110   0.00000  Uiso   1.00
C156   C     0.83534   0.61808   0.06885   0.00000  Uiso   1.00
C157   C     0.79467   0.58750   0.07130   0.00000  Uiso   1.00
C158   C     0.83574   0.56268   0.03977   0.00000  Uiso   1.00
C159   C     0.78783   0.67439   0.05316   0.00000  Uiso   1.00
C160   C     0.70722   0.69116   0.04241   0.00000  Uiso   1.00
C161   C     0.70829   0.71373   0.99765   0.00000  Uiso   1.00
H162   H     0.00853   0.66328   0.01407   0.00000  Uiso   1.00
H163   H     0.10228   0.68133   0.10358   0.00000  Uiso   1.00
H164   H     0.01640   0.60321   0.97916   0.00000  Uiso   1.00
H165   H     0.92897   0.70685   0.95028   0.00000  Uiso   1.00
H166   H     0.17143   0.69887   0.21728   0.00000  Uiso   1.00
H167   H     0.99035   0.53415   0.95492   0.00000  Uiso   1.00
H168   H     0.80597   0.75269   0.89401   0.00000  Uiso   1.00
H169   H     0.74045   0.64430   0.12546   0.00000  Uiso   1.00
H170   H     0.81949   0.66131   0.22108   0.00000  Uiso   1.00
H171   H     0.73362   0.58319   0.09666   0.00000  Uiso   1.00
H172   H     0.64618   0.68683   0.06778   0.00000  Uiso   1.00
H173   H     0.94191   0.68262   0.31265   0.00000  Uiso   1.00
H174   H     0.76082   0.51790   0.05029   0.00000  Uiso   1.00
H175   H     0.57645   0.73644   0.98938   0.00000  Uiso   1.00
O176   O     0.11351   0.70226   0.32586   0.00000  Uiso   1.00
O177   O     0.87592   0.48616   0.98165   0.00000  Uiso   1.00
O178   O     0.63404   0.77288   0.90174   0.00000  Uiso   1.00
N179   N     0.10656   0.69271   0.22660   0.00000  Uiso   1.00
N180   N     0.93727   0.53871   0.98132   0.00000  Uiso   1.00
N181   N     0.76489   0.74302   0.92436   0.00000  Uiso   1.00
N182   N     0.98306   0.68397   0.27791   0.00000  Uiso   1.00
N183   N     0.81376   0.52997   0.03263   0.00000  Uiso   1.00
N184   N     0.64138   0.73428   0.97568   0.00000  Uiso   1.00
C185   C     0.53957   0.66568   0.46374   0.00000  Uiso   1.00
C186   C     0.56834   0.67929   0.40516   0.00000  Uiso   1.00
C187   C     0.50996   0.69163   0.36326   0.00000  Uiso   1.00
C188   C     0.54966   0.70291   0.31256   0.00000  Uiso   1.00
C189   C     0.57993   0.72418   0.22287   0.00000  Uiso   1.00
C190   C     0.57791   0.63110   0.46658   0.00000  Uiso   1.00
C191   C     0.52757   0.60292   0.47633   0.00000  Uiso   1.00
C192   C     0.57532   0.57364   0.47734   0.00000  Uiso   1.00
C193   C     0.62045   0.52010   0.48305   0.00000  Uiso   1.00
C194   C     0.59193   0.68535   0.50883   0.00000  Uiso   1.00
C195   C     0.55338   0.70278   0.55412   0.00000  Uiso   1.00
C196   C     0.61294   0.71916   0.59071   0.00000  Uiso   1.00
C197   C     0.67984   0.74985   0.66203   0.00000  Uiso   1.00
C198   C     0.71390   0.66378   0.44821   0.00000  Uiso   1.00
C199   C     0.66303   0.67826   0.39673   0.00000  Uiso   1.00
C200   C     0.70284   0.68953   0.34608   0.00000  Uiso   1.00
C201   C     0.64452   0.70188   0.30411   0.00000  Uiso   1.00
C202   C     0.67260   0.63007   0.45815   0.00000  Uiso   1.00
C203   C     0.72044   0.60082   0.45915   0.00000  Uiso   1.00
C204   C     0.67019   0.57261   0.46889   0.00000  Uiso   1.00
C205   C     0.68662   0.68432   0.50040   0.00000  Uiso   1.00
C206   C     0.74626   0.70068   0.53694   0.00000  Uiso   1.00
C207   C     0.70780   0.71813   0.58227   0.00000  Uiso   1.00
H208   H     0.46585   0.66648   0.47030   0.00000  Uiso   1.00
H209   H     0.43668   0.69242   0.36980   0.00000  Uiso   1.00
H210   H     0.45429   0.60373   0.48286   0.00000  Uiso   1.00
H211   H     0.48010   0.70357   0.56063   0.00000  Uiso   1.00
H212   H     0.44610   0.72071   0.25464   0.00000  Uiso   1.00
H213   H     0.48323   0.53370   0.49305   0.00000  Uiso   1.00
H214   H     0.53765   0.74423   0.65705   0.00000  Uiso   1.00
H215   H     0.78763   0.66298   0.44165   0.00000  Uiso   1.00
H216   H     0.77612   0.68873   0.33957   0.00000  Uiso   1.00
H217   H     0.79372   0.60004   0.45263   0.00000  Uiso   1.00
H218   H     0.81953   0.69988   0.53040   0.00000  Uiso   1.00
H219   H     0.72159   0.71771   0.23010   0.00000  Uiso   1.00
H220   H     0.75872   0.53070   0.46852   0.00000  Uiso   1.00
H221   H     0.81315   0.74124   0.63252   0.00000  Uiso   1.00
O222   O     0.57046   0.73620   0.17573   0.00000  Uiso   1.00
O223   O     0.61918   0.49085   0.48853   0.00000  Uiso   1.00
O224   O     0.69058   0.76707   0.70369   0.00000  Uiso   1.00
N225   N     0.51252   0.71647   0.26288   0.00000  Uiso   1.00
N226   N     0.54723   0.54163   0.48577   0.00000  Uiso   1.00
N227   N     0.59811   0.73846   0.63911   0.00000  Uiso   1.00
N228   N     0.66076   0.71486   0.24968   0.00000  Uiso   1.00
N229   N     0.69547   0.54002   0.47257   0.00000  Uiso   1.00
N230   N     0.74635   0.73684   0.62591   0.00000  Uiso   1.00
C231   C     0.55289   0.84106   0.53959   0.00000  Uiso   1.00
C232   C     0.53913   0.83389   0.60367   0.00000  Uiso   1.00
C233   C     0.45876   0.82299   0.62896   0.00000  Uiso   1.00
C234   C     0.46007   0.81786   0.68827   0.00000  Uiso   1.00
C235   C     0.42670   0.80588   0.78278   0.00000  Uiso   1.00
C236   C     0.58578   0.87633   0.53608   0.00000  Uiso   1.00
C237   C     0.54464   0.90112   0.50453   0.00000  Uiso   1.00
C238   C     0.58523   0.93173   0.50693   0.00000  Uiso   1.00
C239   C     0.62432   0.98564   0.49647   0.00000  Uiso   1.00
C240   C     0.63328   0.82002   0.52039   0.00000  Uiso   1.00
C241   C     0.63209   0.79747   0.47564   0.00000  Uiso   1.00
C242   C     0.71268   0.78067   0.46482   0.00000  Uiso   1.00
C243   C     0.82552   0.74715   0.43000   0.00000  Uiso   1.00
C244   C     0.69813   0.85135   0.59994   0.00000  Uiso   1.00
C245   C     0.61802   0.83947   0.63645   0.00000  Uiso   1.00
C246   C     0.61945   0.83436   0.69573   0.00000  Uiso   1.00
C247   C     0.53910   0.82346   0.72110   0.00000  Uiso   1.00
C248   C     0.66466   0.88192   0.56885   0.00000  Uiso   1.00
C249   C     0.70533   0.91250   0.57130   0.00000  Uiso   1.00
C250   C     0.66426   0.93732   0.53977   0.00000  Uiso   1.00
C251   C     0.71217   0.82561   0.55316   0.00000  Uiso   1.00
C252   C     0.79278   0.80884   0.54241   0.00000  Uiso   1.00
C253   C     0.79171   0.78627   0.49765   0.00000  Uiso   1.00
H254   H     0.49147   0.83672   0.51407   0.00000  Uiso   1.00
H255   H     0.39772   0.81867   0.60358   0.00000  Uiso   1.00
H256   H     0.48360   0.89679   0.47916   0.00000  Uiso   1.00
H257   H     0.57103   0.79315   0.45028   0.00000  Uiso   1.00
H258   H     0.32857   0.80113   0.71728   0.00000  Uiso   1.00
H259   H     0.50965   0.96585   0.45492   0.00000  Uiso   1.00
H260   H     0.69403   0.74731   0.39401   0.00000  Uiso   1.00
H261   H     0.75955   0.85570   0.62546   0.00000  Uiso   1.00
H262   H     0.68051   0.83869   0.72108   0.00000  Uiso   1.00
H263   H     0.76638   0.91681   0.59666   0.00000  Uiso   1.00
H264   H     0.85382   0.81317   0.56778   0.00000  Uiso   1.00
H265   H     0.55809   0.81738   0.81265   0.00000  Uiso   1.00
H266   H     0.73918   0.98210   0.55029   0.00000  Uiso   1.00
H267   H     0.92355   0.76356   0.48938   0.00000  Uiso   1.00
O268   O     0.38649   0.79774   0.82586   0.00000  Uiso   1.00
O269   O     0.62408   0.01384   0.48165   0.00000  Uiso   1.00
O270   O     0.86596   0.72712   0.40174   0.00000  Uiso   1.00
N271   N     0.39344   0.80729   0.72660   0.00000  Uiso   1.00
N272   N     0.56273   0.96129   0.48132   0.00000  Uiso   1.00
N273   N     0.73511   0.75698   0.42436   0.00000  Uiso   1.00
N274   N     0.51694   0.81603   0.77791   0.00000  Uiso   1.00
N275   N     0.68624   0.97003   0.53263   0.00000  Uiso   1.00
N276   N     0.85862   0.76572   0.47568   0.00000  Uiso   1.00
C277   C     0.03957   0.16568   0.96374   0.00000  Uiso   1.00
C278   C     0.06834   0.17929   0.90516   0.00000  Uiso   1.00
C279   C     0.00996   0.19163   0.86326   0.00000  Uiso   1.00
C280   C     0.04966   0.20291   0.81256   0.00000  Uiso   1.00
C281   C     0.07993   0.22418   0.72287   0.00000  Uiso   1.00
C282   C     0.07791   0.13110   0.96658   0.00000  Uiso   1.00
C283   C     0.02757   0.10292   0.97633   0.00000  Uiso   1.00
C284   C     0.07532   0.07364   0.97734   0.00000  Uiso   1.00
C285   C     0.12045   0.02010   0.98305   0.00000  Uiso   1.00
C286   C     0.09193   0.18535   0.00883   0.00000  Uiso   1.00
C287   C     0.05338   0.20278   0.05412   0.00000  Uiso   1.00
C288   C     0.11294   0.21916   0.09071   0.00000  Uiso   1.00
C289   C     0.17984   0.24985   0.16203   0.00000  Uiso   1.00
C290   C     0.21390   0.16378   0.94821   0.00000  Uiso   1.00
C291   C     0.16303   0.17826   0.89673   0.00000  Uiso   1.00
C292   C     0.20284   0.18953   0.84608   0.00000  Uiso   1.00
C293   C     0.14452   0.20188   0.80411   0.00000  Uiso   1.00
C294   C     0.17260   0.13007   0.95815   0.00000  Uiso   1.00
C295   C     0.22044   0.10082   0.95915   0.00000  Uiso   1.00
C296   C     0.17019   0.07261   0.96889   0.00000  Uiso   1.00
C297   C     0.18662   0.18432   0.00040   0.00000  Uiso   1.00
C298   C     0.24626   0.20068   0.03694   0.00000  Uiso   1.00
C299   C     0.20780   0.21813   0.08227   0.00000  Uiso   1.00
H300   H     0.96585   0.16648   0.97030   0.00000  Uiso   1.00
H301   H     0.93668   0.19242   0.86980   0.00000  Uiso   1.00
H302   H     0.95429   0.10373   0.98286   0.00000  Uiso   1.00
H303   H     0.98010   0.20357   0.06063   0.00000  Uiso   1.00
H304   H     0.94610   0.22071   0.75464   0.00000  Uiso   1.00
H305   H     0.98323   0.03370   0.99305   0.00000  Uiso   1.00
H306   H     0.03765   0.24423   0.15705   0.00000  Uiso   1.00
H307   H     0.28763   0.16298   0.94165   0.00000  Uiso   1.00
H308   H     0.27612   0.18873   0.83957   0.00000  Uiso   1.00
H309   H     0.29372   0.10004   0.95263   0.00000  Uiso   1.00
H310   H     0.31953   0.19988   0.03040   0.00000  Uiso   1.00
H311   H     0.22159   0.21771   0.73010   0.00000  Uiso   1.00
H312   H     0.25872   0.03070   0.96852   0.00000  Uiso   1.00
H313   H     0.31315   0.24124   0.13252   0.00000  Uiso   1.00
O314   O     0.07046   0.23620   0.67573   0.00000  Uiso   1.00
O315   O     0.11918   0.99085   0.98853   0.00000  Uiso   1.00
O316   O     0.19058   0.26707   0.20369   0.00000  Uiso   1.00
N317   N     0.01252   0.21647   0.76288   0.00000  Uiso   1.00
N318   N     0.04723   0.04163   0.98577   0.00000  Uiso   1.00
N319   N     0.09811   0.23846   0.13911   0.00000  Uiso   1.00
N320   N     0.16076   0.21486   0.74968   0.00000  Uiso   1.00
N321   N     0.19547   0.04002   0.97257   0.00000  Uiso   1.00
N322   N     0.24635   0.23684   0.12591   0.00000  Uiso   1.00
C323   C     0.05289   0.34106   0.03959   0.00000  Uiso   1.00
C324   C     0.03913   0.33389   0.10367   0.00000  Uiso   1.00
C325   C     0.95876   0.32299   0.12896   0.00000  Uiso   1.00
C326   C     0.96007   0.31786   0.18827   0.00000  Uiso   1.00
C327   C     0.92670   0.30588   0.28278   0.00000  Uiso   1.00
C328   C     0.08578   0.37633   0.03608   0.00000  Uiso   1.00
C329   C     0.04464   0.40112   0.00453   0.00000  Uiso   1.00
C330   C     0.08523   0.43173   0.00693   0.00000  Uiso   1.00
C331   C     0.12432   0.48564   0.99647   0.00000  Uiso   1.00
C332   C     0.13328   0.32002   0.02039   0.00000  Uiso   1.00
C333   C     0.13209   0.29747   0.97564   0.00000  Uiso   1.00
C334   C     0.21268   0.28067   0.96482   0.00000  Uiso   1.00
C335   C     0.32552   0.24715   0.93000   0.00000  Uiso   1.00
C336   C     0.19813   0.35135   0.09994   0.00000  Uiso   1.00
C337   C     0.11802   0.33947   0.13645   0.00000  Uiso   1.00
C338   C     0.11945   0.33436   0.19573   0.00000  Uiso   1.00
C339   C     0.03910   0.32346   0.22110   0.00000  Uiso   1.00
C340   C     0.16466   0.38192   0.06885   0.00000  Uiso   1.00
C341   C     0.20533   0.41250   0.07130   0.00000  Uiso   1.00
C342   C     0.16426   0.43732   0.03977   0.00000  Uiso   1.00
C343   C     0.21217   0.32561   0.05316   0.00000  Uiso   1.00
C344   C     0.29278   0.30884   0.04241   0.00000  Uiso   1.00
C345   C     0.29171   0.28627   0.99765   0.00000  Uiso   1.00
H346   H     0.99147   0.33672   0.01407   0.00000  Uiso   1.00
H347   H     0.89772   0.31867   0.10358   0.00000  Uiso   1.00
H348   H     0.98360   0.39679   0.97916   0.00000  Uiso   1.00
H349   H     0.07103   0.29315   0.95028   0.00000  Uiso   1.00
H350   H     0.82857   0.30113   0.21728   0.00000  Uiso   1.00
H351   H     0.00965   0.46585   0.95492   0.00000  Uiso   1.00
H352   H     0.19403   0.24731   0.89401   0.00000  Uiso   1.00
H353   H     0.25955   0.35570   0.12546   0.00000  Uiso   1.00
H354   H     0.18051   0.33869   0.22108   0.00000  Uiso   1.00
H355   H     0.26638   0.41681   0.09666   0.00000  Uiso   1.00
H356   H     0.35382   0.31317   0.06778   0.00000  Uiso   1.00
H357   H     0.05809   0.31738   0.31265   0.00000  Uiso   1.00
H358   H     0.23918   0.48210   0.05029   0.00000  Uiso   1.00
H359   H     0.42355   0.26356   0.98938   0.00000  Uiso   1.00
O360   O     0.88649   0.29774   0.32586   0.00000  Uiso   1.00
O361   O     0.12408   0.51384   0.98165   0.00000  Uiso   1.00
O362   O     0.36596   0.22712   0.90174   0.00000  Uiso   1.00
N363   N     0.89344   0.30729   0.22660   0.00000  Uiso   1.00
N364   N     0.06273   0.46129   0.98132   0.00000  Uiso   1.00
N365   N     0.23511   0.25698   0.92436   0.00000  Uiso   1.00
N366   N     0.01694   0.31603   0.27791   0.00000  Uiso   1.00
N367   N     0.18624   0.47003   0.03263   0.00000  Uiso   1.00
N368   N     0.35862   0.26572   0.97568   0.00000  Uiso   1.00
C369   C     0.96043   0.16568   0.46374   0.00000  Uiso   1.00
C370   C     0.93166   0.17929   0.40516   0.00000  Uiso   1.00
C371   C     0.99004   0.19163   0.36326   0.00000  Uiso   1.00
C372   C     0.95034   0.20291   0.31256   0.00000  Uiso   1.00
C373   C     0.92007   0.22418   0.22287   0.00000  Uiso   1.00
C374   C     0.92209   0.13110   0.46658   0.00000  Uiso   1.00
C375   C     0.97243   0.10292   0.47633   0.00000  Uiso   1.00
C376   C     0.92468   0.07364   0.47734   0.00000  Uiso   1.00
C377   C     0.87955   0.02010   0.48305   0.00000  Uiso   1.00
C378   C     0.90807   0.18535   0.50883   0.00000  Uiso   1.00
C379   C     0.94662   0.20278   0.55412   0.00000  Uiso   1.00
C380   C     0.88706   0.21916   0.59071   0.00000  Uiso   1.00
C381   C     0.82016   0.24985   0.66203   0.00000  Uiso   1.00
C382   C     0.78610   0.16378   0.44821   0.00000  Uiso   1.00
C383   C     0.83697   0.17826   0.39673   0.00000  Uiso   1.00
C384   C     0.79716   0.18953   0.34608   0.00000  Uiso   1.00
C385   C     0.85548   0.20188   0.30411   0.00000  Uiso   1.00
C386   C     0.82740   0.13007   0.45815   0.00000  Uiso   1.00
C387   C     0.77956   0.10082   0.45915   0.00000  Uiso   1.00
C388   C     0.82981   0.07261   0.46889   0.00000  Uiso   1.00
C389   C     0.81338   0.18432   0.50040   0.00000  Uiso   1.00
C390   C     0.75374   0.20068   0.53694   0.00000  Uiso   1.00
C391   C     0.79220   0.21813   0.58227   0.00000  Uiso   1.00
H392   H     0.03415   0.16648   0.47030   0.00000  Uiso   1.00
H393   H     0.06332   0.19242   0.36980   0.00000  Uiso   1.00
H394   H     0.04571   0.10373   0.48286   0.00000  Uiso   1.00
H395   H     0.01990   0.20357   0.56063   0.00000  Uiso   1.00
H396   H     0.05390   0.22071   0.25464   0.00000  Uiso   1.00
H397   H     0.01677   0.03370   0.49305   0.00000  Uiso   1.00
H398   H     0.96235   0.24423   0.65705   0.00000  Uiso   1.00
H399   H     0.71237   0.16298   0.44165   0.00000  Uiso   1.00
H400   H     0.72388   0.18873   0.33957   0.00000  Uiso   1.00
H401   H     0.70628   0.10004   0.45263   0.00000  Uiso   1.00
H402   H     0.68047   0.19988   0.53040   0.00000  Uiso   1.00
H403   H     0.77841   0.21771   0.23010   0.00000  Uiso   1.00
H404   H     0.74128   0.03070   0.46852   0.00000  Uiso   1.00
H405   H     0.68685   0.24124   0.63252   0.00000  Uiso   1.00
O406   O     0.92954   0.23620   0.17573   0.00000  Uiso   1.00
O407   O     0.88082   0.99085   0.48853   0.00000  Uiso   1.00
O408   O     0.80942   0.26707   0.70369   0.00000  Uiso   1.00
N409   N     0.98748   0.21647   0.26288   0.00000  Uiso   1.00
N410   N     0.95277   0.04163   0.48577   0.00000  Uiso   1.00
N411   N     0.90189   0.23846   0.63911   0.00000  Uiso   1.00
N412   N     0.83924   0.21486   0.24968   0.00000  Uiso   1.00
N413   N     0.80453   0.04002   0.47257   0.00000  Uiso   1.00
N414   N     0.75365   0.23684   0.62591   0.00000  Uiso   1.00
C415   C     0.94711   0.34106   0.53959   0.00000  Uiso   1.00
C416   C     0.96087   0.33389   0.60367   0.00000  Uiso   1.00
C417   C     0.04124   0.32299   0.62896   0.00000  Uiso   1.00
C418   C     0.03993   0.31786   0.68827   0.00000  Uiso   1.00
C419   C     0.07330   0.30588   0.78278   0.00000  Uiso   1.00
C420   C     0.91422   0.37633   0.53608   0.00000  Uiso   1.00
C421   C     0.95536   0.40112   0.50453   0.00000  Uiso   1.00
C422   C     0.91477   0.43173   0.50693   0.00000  Uiso   1.00
C423   C     0.87568   0.48564   0.49647   0.00000  Uiso   1.00
C424   C     0.86672   0.32002   0.52039   0.00000  Uiso   1.00
C425   C     0.86791   0.29747   0.47564   0.00000  Uiso   1.00
C426   C     0.78732   0.28067   0.46482   0.00000  Uiso   1.00
C427   C     0.67448   0.24715   0.43000   0.00000  Uiso   1.00
C428   C     0.80187   0.35135   0.59994   0.00000  Uiso   1.00
C429   C     0.88198   0.33947   0.63645   0.00000  Uiso   1.00
C430   C     0.88055   0.33436   0.69573   0.00000  Uiso   1.00
C431   C     0.96090   0.32346   0.72110   0.00000  Uiso   1.00
C432   C     0.83534   0.38192   0.56885   0.00000  Uiso   1.00
C433   C     0.79467   0.41250   0.57130   0.00000  Uiso   1.00
C434   C     0.83574   0.43732   0.53977   0.00000  Uiso   1.00
C435   C     0.78783   0.32561   0.55316   0.00000  Uiso   1.00
C436   C     0.70722   0.30884   0.54241   0.00000  Uiso   1.00
C437   C     0.70829   0.28627   0.49765   0.00000  Uiso   1.00
H438   H     0.00853   0.33672   0.51407   0.00000  Uiso   1.00
H439   H     0.10228   0.31867   0.60358   0.00000  Uiso   1.00
H440   H     0.01640   0.39679   0.47916   0.00000  Uiso   1.00
H441   H     0.92897   0.29315   0.45028   0.00000  Uiso   1.00
H442   H     0.17143   0.30113   0.71728   0.00000  Uiso   1.00
H443   H     0.99035   0.46585   0.45492   0.00000  Uiso   1.00
H444   H     0.80597   0.24731   0.39401   0.00000  Uiso   1.00
H445   H     0.74045   0.35570   0.62546   0.00000  Uiso   1.00
H446   H     0.81949   0.33869   0.72108   0.00000  Uiso   1.00
H447   H     0.73362   0.41681   0.59666   0.00000  Uiso   1.00
H448   H     0.64618   0.31317   0.56778   0.00000  Uiso   1.00
H449   H     0.94191   0.31738   0.81265   0.00000  Uiso   1.00
H450   H     0.76082   0.48210   0.55029   0.00000  Uiso   1.00
H451   H     0.57645   0.26356   0.48938   0.00000  Uiso   1.00
O452   O     0.11351   0.29774   0.82586   0.00000  Uiso   1.00
O453   O     0.87592   0.51384   0.48165   0.00000  Uiso   1.00
O454   O     0.63404   0.22712   0.40174   0.00000  Uiso   1.00
N455   N     0.10656   0.30729   0.72660   0.00000  Uiso   1.00
N456   N     0.93727   0.46129   0.48132   0.00000  Uiso   1.00
N457   N     0.76489   0.25698   0.42436   0.00000  Uiso   1.00
N458   N     0.98306   0.31603   0.77791   0.00000  Uiso   1.00
N459   N     0.81376   0.47003   0.53263   0.00000  Uiso   1.00
N460   N     0.64138   0.26572   0.47568   0.00000  Uiso   1.00
C461   C     0.46043   0.66568   0.96374   0.00000  Uiso   1.00
C462   C     0.43166   0.67929   0.90516   0.00000  Uiso   1.00
C463   C     0.49004   0.69163   0.86326   0.00000  Uiso   1.00
C464   C     0.45034   0.70291   0.81256   0.00000  Uiso   1.00
C465   C     0.42007   0.72418   0.72287   0.00000  Uiso   1.00
C466   C     0.42209   0.63110   0.96658   0.00000  Uiso   1.00
C467   C     0.47243   0.60292   0.97633   0.00000  Uiso   1.00
C468   C     0.42468   0.57364   0.97734   0.00000  Uiso   1.00
C469   C     0.37955   0.52010   0.98305   0.00000  Uiso   1.00
C470   C     0.40807   0.68535   0.00883   0.00000  Uiso   1.00
C471   C     0.44662   0.70278   0.05412   0.00000  Uiso   1.00
C472   C     0.38706   0.71916   0.09071   0.00000  Uiso   1.00
C473   C     0.32016   0.74985   0.16203   0.00000  Uiso   1.00
C474   C     0.28610   0.66378   0.94821   0.00000  Uiso   1.00
C475   C     0.33697   0.67826   0.89673   0.00000  Uiso   1.00
C476   C     0.29716   0.68953   0.84608   0.00000  Uiso   1.00
C477   C     0.35548   0.70188   0.80411   0.00000  Uiso   1.00
C478   C     0.32740   0.63007   0.95815   0.00000  Uiso   1.00
C479   C     0.27956   0.60082   0.95915   0.00000  Uiso   1.00
C480   C     0.32981   0.57261   0.96889   0.00000  Uiso   1.00
C481   C     0.31338   0.68432   0.00040   0.00000  Uiso   1.00
C482   C     0.25374   0.70068   0.03694   0.00000  Uiso   1.00
C483   C     0.29220   0.71813   0.08227   0.00000  Uiso   1.00
H484   H     0.53415   0.66648   0.97030   0.00000  Uiso   1.00
H485   H     0.56332   0.69242   0.86980   0.00000  Uiso   1.00
H486   H     0.54571   0.60373   0.98286   0.00000  Uiso   1.00
H487   H     0.51990   0.70357   0.06063   0.00000  Uiso   1.00
H488   H     0.55390   0.72071   0.75464   0.00000  Uiso   1.00
H489   H     0.51677   0.53370   0.99305   0.00000  Uiso   1.00
H490   H     0.46235   0.74423   0.15705   0.00000  Uiso   1.00
H491   H     0.21237   0.66298   0.94165   0.00000  Uiso   1.00
H492   H     0.22388   0.68873   0.83957   0.00000  Uiso   1.00
H493   H     0.20628   0.60004   0.95263   0.00000  Uiso   1.00
H494   H     0.18047   0.69988   0.03040   0.00000  Uiso   1.00
H495   H     0.27841   0.71771   0.73010   0.00000  Uiso   1.00
H496   H     0.24128   0.53070   0.96852   0.00000  Uiso   1.00
H497   H     0.18685   0.74124   0.13252   0.00000  Uiso   1.00
O498   O     0.42954   0.73620   0.67573   0.00000  Uiso   1.00
O499   O     0.38082   0.49085   0.98853   0.00000  Uiso   1.00
O500   O     0.30942   0.76707   0.20369   0.00000  Uiso   1.00
N501   N     0.48748   0.71647   0.76288   0.00000  Uiso   1.00
N502   N     0.45277   0.54163   0.98577   0.00000  Uiso   1.00
N503   N     0.40189   0.73846   0.13911   0.00000  Uiso   1.00
N504   N     0.33924   0.71486   0.74968   0.00000  Uiso   1.00
N505   N     0.30453   0.54002   0.97257   0.00000  Uiso   1.00
N506   N     0.25365   0.73684   0.12591   0.00000  Uiso   1.00
C507   C     0.44711   0.84106   0.03959   0.00000  Uiso   1.00
C508   C     0.46087   0.83389   0.10367   0.00000  Uiso   1.00
C509   C     0.54124   0.82299   0.12896   0.00000  Uiso   1.00
C510   C     0.53993   0.81786   0.18827   0.00000  Uiso   1.00
C511   C     0.57330   0.80588   0.28278   0.00000  Uiso   1.00
C512   C     0.41422   0.87633   0.03608   0.00000  Uiso   1.00
C513   C     0.45536   0.90112   0.00453   0.00000  Uiso   1.00
C514   C     0.41477   0.93173   0.00693   0.00000  Uiso   1.00
C515   C     0.37568   0.98564   0.99647   0.00000  Uiso   1.00
C516   C     0.36672   0.82002   0.02039   0.00000  Uiso   1.00
C517   C     0.36791   0.79747   0.97564   0.00000  Uiso   1.00
C518   C     0.28732   0.78067   0.96482   0.00000  Uiso   1.00
C519   C     0.17448   0.74715   0.93000   0.00000  Uiso   1.00
C520   C     0.30187   0.85135   0.09994   0.00000  Uiso   1.00
C521   C     0.38198   0.83947   0.13645   0.00000  Uiso   1.00
C522   C     0.38055   0.83436   0.19573   0.00000  Uiso   1.00
C523   C     0.46090   0.82346   0.22110   0.00000  Uiso   1.00
C524   C     0.33534   0.88192   0.06885   0.00000  Uiso   1.00
C525   C     0.29467   0.91250   0.07130   0.00000  Uiso   1.00
C526   C     0.33574   0.93732   0.03977   0.00000  Uiso   1.00
C527   C     0.28783   0.82561   0.05316   0.00000  Uiso   1.00
C528   C     0.20722   0.80884   0.04241   0.00000  Uiso   1.00
C529   C     0.20829   0.78627   0.99765   0.00000  Uiso   1.00
H530   H     0.50853   0.83672   0.01407   0.00000  Uiso   1.00
H531   H     0.60228   0.81867   0.10358   0.00000  Uiso   1.00
H532   H     0.51640   0.89679   0.97916   0.00000  Uiso   1.00
H533   H     0.42897   0.79315   0.95028   0.00000  Uiso   1.00
H534   H     0.67143   0.80113   0.21728   0.00000  Uiso   1.00
H535   H     0.49035   0.96585   0.95492   0.00000  Uiso   1.00
H536   H     0.30597   0.74731   0.89401   0.00000  Uiso   1.00
H537   H     0.24045   0.85570   0.12546   0.00000  Uiso   1.00
H538   H     0.31949   0.83869   0.22108   0.00000  Uiso   1.00
H539   H     0.23362   0.91681   0.09666   0.00000  Uiso   1.00
H540   H     0.14618   0.81317   0.06778   0.00000  Uiso   1.00
H541   H     0.44191   0.81738   0.31265   0.00000  Uiso   1.00
H542   H     0.26082   0.98210   0.05029   0.00000  Uiso   1.00
H543   H     0.07645   0.76356   0.98938   0.00000  Uiso   1.00
O544   O     0.61351   0.79774   0.32586   0.00000  Uiso   1.00
O545   O     0.37592   0.01384   0.98165   0.00000  Uiso   1.00
O546   O     0.13404   0.72712   0.90174   0.00000  Uiso   1.00
N547   N     0.60656   0.80729   0.22660   0.00000  Uiso   1.00
N548   N     0.43727   0.96129   0.98132   0.00000  Uiso   1.00
N549   N     0.26489   0.75698   0.92436   0.00000  Uiso   1.00
N550   N     0.48306   0.81603   0.27791   0.00000  Uiso   1.00
N551   N     0.31376   0.97003   0.03263   0.00000  Uiso   1.00
N552   N     0.14138   0.76572   0.97568   0.00000  Uiso   1.00
C553   C     0.03957   0.83432   0.46374   0.00000  Uiso   1.00
C554   C     0.06834   0.82071   0.40516   0.00000  Uiso   1.00
C555   C     0.00996   0.80837   0.36326   0.00000  Uiso   1.00
C556   C     0.04966   0.79709   0.31256   0.00000  Uiso   1.00
C557   C     0.07993   0.77582   0.22287   0.00000  Uiso   1.00
C558   C     0.07791   0.86890   0.46658   0.00000  Uiso   1.00
C559   C     0.02757   0.89708   0.47633   0.00000  Uiso   1.00
C560   C     0.07532   0.92636   0.47734   0.00000  Uiso   1.00
C561   C     0.12045   0.97990   0.48305   0.00000  Uiso   1.00
C562   C     0.09193   0.81465   0.50883   0.00000  Uiso   1.00
C563   C     0.05338   0.79722   0.55412   0.00000  Uiso   1.00
C564   C     0.11294   0.78084   0.59071   0.00000  Uiso   1.00
C565   C     0.17984   0.75015   0.66203   0.00000  Uiso   1.00
C566   C     0.21390   0.83622   0.44821   0.00000  Uiso   1.00
C567   C     0.16303   0.82174   0.39673   0.00000  Uiso   1.00
C568   C     0.20284   0.81047   0.34608   0.00000  Uiso   1.00
C569   C     0.14452   0.79812   0.30411   0.00000  Uiso   1.00
C570   C     0.17260   0.86993   0.45815   0.00000  Uiso   1.00
C571   C     0.22044   0.89918   0.45915   0.00000  Uiso   1.00
C572   C     0.17019   0.92739   0.46889   0.00000  Uiso   1.00
C573   C     0.18662   0.81568   0.50040   0.00000  Uiso   1.00
C574   C     0.24626   0.79932   0.53694   0.00000  Uiso   1.00
C575   C     0.20780   0.78187   0.58227   0.00000  Uiso   1.00
H576   H     0.96585   0.83352   0.47030   0.00000  Uiso   1.00
H577   H     0.93668   0.80758   0.36980   0.00000  Uiso   1.00
H578   H     0.95429   0.89627   0.48286   0.00000  Uiso   1.00
H579   H     0.98010   0.79643   0.56063   0.00000  Uiso   1.00
H580   H     0.94610   0.77929   0.25464   0.00000  Uiso   1.00
H581   H     0.98323   0.96630   0.49305   0.00000  Uiso   1.00
H582   H     0.03765   0.75577   0.65705   0.00000  Uiso   1.00
H583   H     0.28763   0.83702   0.44165   0.00000  Uiso   1.00
H584   H     0.27612   0.81127   0.33957   0.00000  Uiso   1.00
H585   H     0.29372   0.89996   0.45263   0.00000  Uiso   1.00
H586   H     0.31953   0.80012   0.53040   0.00000  Uiso   1.00
H587   H     0.22159   0.78229   0.23010   0.00000  Uiso   1.00
H588   H     0.25872   0.96930   0.46852   0.00000  Uiso   1.00
H589   H     0.31315   0.75876   0.63252   0.00000  Uiso   1.00
O590   O     0.07046   0.76380   0.17573   0.00000  Uiso   1.00
O591   O     0.11918   0.00915   0.48853   0.00000  Uiso   1.00
O592   O     0.19058   0.73293   0.70369   0.00000  Uiso   1.00
N593   N     0.01252   0.78353   0.26288   0.00000  Uiso   1.00
N594   N     0.04723   0.95837   0.48577   0.00000  Uiso   1.00
N595   N     0.09811   0.76154   0.63911   0.00000  Uiso   1.00
N596   N     0.16076   0.78514   0.24968   0.00000  Uiso   1.00
N597   N     0.19547   0.95998   0.47257   0.00000  Uiso   1.00
N598   N     0.24635   0.76316   0.62591   0.00000  Uiso   1.00
C599   C     0.05289   0.65894   0.53959   0.00000  Uiso   1.00
C600   C     0.03913   0.66611   0.60367   0.00000  Uiso   1.00
C601   C     0.95876   0.67701   0.62896   0.00000  Uiso   1.00
C602   C     0.96007   0.68214   0.68827   0.00000  Uiso   1.00
C603   C     0.92670   0.69412   0.78278   0.00000  Uiso   1.00
C604   C     0.08578   0.62367   0.53608   0.00000  Uiso   1.00
C605   C     0.04464   0.59888   0.50453   0.00000  Uiso   1.00
C606   C     0.08523   0.56827   0.50693   0.00000  Uiso   1.00
C607   C     0.12432   0.51436   0.49647   0.00000  Uiso   1.00
C608   C     0.13328   0.67998   0.52039   0.00000  Uiso   1.00
C609   C     0.13209   0.70253   0.47564   0.00000  Uiso   1.00
C610   C     0.21268   0.71933   0.46482   0.00000  Uiso   1.00
C611   C     0.32552   0.75285   0.43000   0.00000  Uiso   1.00
C612   C     0.19813   0.64865   0.59994   0.00000  Uiso   1.00
C613   C     0.11802   0.66053   0.63645   0.00000  Uiso   1.00
C614   C     0.11945   0.66564   0.69573   0.00000  Uiso   1.00
C615   C     0.03910   0.67654   0.72110   0.00000  Uiso   1.00
C616   C     0.16466   0.61808   0.56885   0.00000  Uiso   1.00
C617   C     0.20533   0.58750   0.57130   0.00000  Uiso   1.00
C618   C     0.16426   0.56268   0.53977   0.00000  Uiso   1.00
C619   C     0.21217   0.67439   0.55316   0.00000  Uiso   1.00
C620   C     0.29278   0.69116   0.54241   0.00000  Uiso   1.00
C621   C     0.29171   0.71373   0.49765   0.00000  Uiso   1.00
H622   H     0.99147   0.66328   0.51407   0.00000  Uiso   1.00
H623   H     0.89772   0.68133   0.60358   0.00000  Uiso   1.00
H624   H     0.98360   0.60321   0.47916   0.00000  Uiso   1.00
H625   H     0.07103   0.70685   0.45028   0.00000  Uiso   1.00
H626   H     0.82857   0.69887   0.71728   0.00000  Uiso   1.00
H627   H     0.00965   0.53415   0.45492   0.00000  Uiso   1.00
H628   H     0.19403   0.75269   0.39401   0.00000  Uiso   1.00
H629   H     0.25955   0.64430   0.62546   0.00000  Uiso   1.00
H630   H     0.18051   0.66131   0.72108   0.00000  Uiso   1.00
H631   H     0.26638   0.58319   0.59666   0.00000  Uiso   1.00
H632   H     0.35382   0.68683   0.56778   0.00000  Uiso   1.00
H633   H     0.05809   0.68262   0.81265   0.00000  Uiso   1.00
H634   H     0.23918   0.51790   0.55029   0.00000  Uiso   1.00
H635   H     0.42355   0.73644   0.48938   0.00000  Uiso   1.00
O636   O     0.88649   0.70226   0.82586   0.00000  Uiso   1.00
O637   O     0.12408   0.48616   0.48165   0.00000  Uiso   1.00
O638   O     0.36596   0.77288   0.40174   0.00000  Uiso   1.00
N639   N     0.89344   0.69271   0.72660   0.00000  Uiso   1.00
N640   N     0.06273   0.53871   0.48132   0.00000  Uiso   1.00
N641   N     0.23511   0.74302   0.42436   0.00000  Uiso   1.00
N642   N     0.01694   0.68397   0.77791   0.00000  Uiso   1.00
N643   N     0.18624   0.52997   0.53263   0.00000  Uiso   1.00
N644   N     0.35862   0.73428   0.47568   0.00000  Uiso   1.00
C645   C     0.53957   0.33432   0.96374   0.00000  Uiso   1.00
C646   C     0.56834   0.32071   0.90516   0.00000  Uiso   1.00
C647   C     0.50996   0.30837   0.86326   0.00000  Uiso   1.00
C648   C     0.54966   0.29709   0.81256   0.00000  Uiso   1.00
C649   C     0.57993   0.27582   0.72287   0.00000  Uiso   1.00
C650   C     0.57791   0.36890   0.96658   0.00000  Uiso   1.00
C651   C     0.52757   0.39708   0.97633   0.00000  Uiso   1.00
C652   C     0.57532   0.42636   0.97734   0.00000  Uiso   1.00
C653   C     0.62045   0.47990   0.98305   0.00000  Uiso   1.00
C654   C     0.59193   0.31465   0.00883   0.00000  Uiso   1.00
C655   C     0.55338   0.29722   0.05412   0.00000  Uiso   1.00
C656   C     0.61294   0.28084   0.09071   0.00000  Uiso   1.00
C657   C     0.67984   0.25015   0.16203   0.00000  Uiso   1.00
C658   C     0.71390   0.33622   0.94821   0.00000  Uiso   1.00
C659   C     0.66303   0.32174   0.89673   0.00000  Uiso   1.00
C660   C     0.70284   0.31047   0.84608   0.00000  Uiso   1.00
C661   C     0.64452   0.29812   0.80411   0.00000  Uiso   1.00
C662   C     0.67260   0.36993   0.95815   0.00000  Uiso   1.00
C663   C     0.72044   0.39918   0.95915   0.00000  Uiso   1.00
C664   C     0.67019   0.42739   0.96889   0.00000  Uiso   1.00
C665   C     0.68662   0.31568   0.00040   0.00000  Uiso   1.00
C666   C     0.74626   0.29932   0.03694   0.00000  Uiso   1.00
C667   C     0.70780   0.28187   0.08227   0.00000  Uiso   1.00
H668   H     0.46585   0.33352   0.97030   0.00000  Uiso   1.00
H669   H     0.43668   0.30758   0.86980   0.00000  Uiso   1.00
H670   H     0.45429   0.39627   0.98286   0.00000  Uiso   1.00
H671   H     0.48010   0.29643   0.06063   0.00000  Uiso   1.00
H672   H     0.44610   0.27929   0.75464   0.00000  Uiso   1.00
H673   H     0.48323   0.46630   0.99305   0.00000  Uiso   1.00
H674   H     0.53765   0.25577   0.15705   0.00000  Uiso   1.00
H675   H     0.78763   0.33702   0.94165   0.00000  Uiso   1.00
H676   H     0.77612   0.31127   0.83957   0.00000  Uiso   1.00
H677   H     0.79372   0.39996   0.95263   0.00000  Uiso   1.00
H678   H     0.81953   0.30012   0.03040   0.00000  Uiso   1.00
H679   H     0.72159   0.28229   0.73010   0.00000  Uiso   1.00
H680   H     0.75872   0.46930   0.96852   0.00000  Uiso   1.00
H681   H     0.81315   0.25876   0.13252   0.00000  Uiso   1.00
O682   O     0.57046   0.26380   0.67573   0.00000  Uiso   1.00
O683   O     0.61918   0.50915   0.98853   0.00000  Uiso   1.00
O684   O     0.69058   0.23293   0.20369   0.00000  Uiso   1.00
N685   N     0.51252   0.28353   0.76288   0.00000  Uiso   1.00
N686   N     0.54723   0.45837   0.98577   0.00000  Uiso   1.00
N687   N     0.59811   0.26154   0.13911   0.00000  Uiso   1.00
N688   N     0.66076   0.28514   0.74968   0.00000  Uiso   1.00
N689   N     0.69547   0.45998   0.97257   0.00000  Uiso   1.00
N690   N     0.74635   0.26316   0.12591   0.00000  Uiso   1.00
C691   C     0.55289   0.15894   0.03959   0.00000  Uiso   1.00
C692   C     0.53913   0.16611   0.10367   0.00000  Uiso   1.00
C693   C     0.45876   0.17701   0.12896   0.00000  Uiso   1.00
C694   C     0.46007   0.18214   0.18827   0.00000  Uiso   1.00
C695   C     0.42670   0.19412   0.28278   0.00000  Uiso   1.00
C696   C     0.58578   0.12367   0.03608   0.00000  Uiso   1.00
C697   C     0.54464   0.09888   0.00453   0.00000  Uiso   1.00
C698   C     0.58523   0.06827   0.00693   0.00000  Uiso   1.00
C699   C     0.62432   0.01436   0.99647   0.00000  Uiso   1.00
C700   C     0.63328   0.17998   0.02039   0.00000  Uiso   1.00
C701   C     0.63209   0.20253   0.97564   0.00000  Uiso   1.00
C702   C     0.71268   0.21933   0.96482   0.00000  Uiso   1.00
C703   C     0.82552   0.25285   0.93000   0.00000  Uiso   1.00
C704   C     0.69813   0.14865   0.09994   0.00000  Uiso   1.00
C705   C     0.61802   0.16053   0.13645   0.00000  Uiso   1.00
C706   C     0.61945   0.16564   0.19573   0.00000  Uiso   1.00
C707   C     0.53910   0.17654   0.22110   0.00000  Uiso   1.00
C708   C     0.66466   0.11808   0.06885   0.00000  Uiso   1.00
C709   C     0.70533   0.08750   0.07130   0.00000  Uiso   1.00
C710   C     0.66426   0.06268   0.03977   0.00000  Uiso   1.00
C711   C     0.71217   0.17439   0.05316   0.00000  Uiso   1.00
C712   C     0.79278   0.19116   0.04241   0.00000  Uiso   1.00
C713   C     0.79171   0.21373   0.99765   0.00000  Uiso   1.00
H714   H     0.49147   0.16328   0.01407   0.00000  Uiso   1.00
H715   H     0.39772   0.18133   0.10358   0.00000  Uiso   1.00
H716   H     0.48360   0.10321   0.97916   0.00000  Uiso   1.00
H717   H     0.57103   0.20685   0.95028   0.00000  Uiso   1.00
H718   H     0.32857   0.19887   0.21728   0.00000  Uiso   1.00
H719   H     0.50965   0.03415   0.95492   0.00000  Uiso   1.00
H720   H     0.69403   0.25269   0.89401   0.00000  Uiso   1.00
H721   H     0.75955   0.14430   0.12546   0.00000  Uiso   1.00
H722   H     0.68051   0.16131   0.22108   0.00000  Uiso   1.00
H723   H     0.76638   0.08319   0.09666   0.00000  Uiso   1.00
H724   H     0.85382   0.18683   0.06778   0.00000  Uiso   1.00
H725   H     0.55809   0.18262   0.31265   0.00000  Uiso   1.00
H726   H     0.73918   0.01790   0.05029   0.00000  Uiso   1.00
H727   H     0.92355   0.23644   0.98938   0.00000  Uiso   1.00
O728   O     0.38649   0.20226   0.32586   0.00000  Uiso   1.00
O729   O     0.62408   0.98616   0.98165   0.00000  Uiso   1.00
O730   O     0.86596   0.27288   0.90174   0.00000  Uiso   1.00
N731   N     0.39344   0.19271   0.22660   0.00000  Uiso   1.00
N732   N     0.56273   0.03871   0.98132   0.00000  Uiso   1.00
N733   N     0.73511   0.24302   0.92436   0.00000  Uiso   1.00
N734   N     0.51694   0.18397   0.27791   0.00000  Uiso   1.00
N735   N     0.68624   0.02997   0.03263   0.00000  Uiso   1.00
N736   N     0.85862   0.23428   0.97568   0.00000  Uiso   1.00
