data_job_05426
_audit_creation_date              2018-12-19
_audit_creation_method            'Materials Studio'
_symmetry_space_group_name_H-M    'P1'
_symmetry_Int_Tables_number       1
_symmetry_cell_setting            triclinic
loop_
_symmetry_equiv_pos_as_xyz
  x,y,z
_cell_length_a                    44.1734
_cell_length_b                    13.3948
_cell_length_c                    23.8079
_cell_angle_alpha                 90.0000
_cell_angle_beta                  90.0000
_cell_angle_gamma                 90.0000
loop_
_atom_site_label
_atom_site_type_symbol
_atom_site_fract_x
_atom_site_fract_y
_atom_site_fract_z
_atom_site_U_iso_or_equiv
_atom_site_adp_type
_atom_site_occupancy
C1     C     0.65726   0.09517   0.02380   0.00000  Uiso   1.00
C2     C     0.62945   0.16256   0.02181   0.00000  Uiso   1.00
C3     C     0.59987   0.13122   0.01325   0.00000  Uiso   1.00
C4     C     0.57762   0.20445   0.01287   0.00000  Uiso   1.00
C5     C     0.53337   0.29374   0.00856   0.00000  Uiso   1.00
C6     C     0.67892   0.13511   0.97927   0.00000  Uiso   1.00
C7     C     0.69092   0.08068   0.93495   0.00000  Uiso   1.00
C8     C     0.71032   0.13081   0.89875   0.00000  Uiso   1.00
C9     C     0.74288   0.17746   0.82842   0.00000  Uiso   1.00
C10    C     0.67239   0.11516   0.08026   0.00000  Uiso   1.00
C11    C     0.67891   0.04396   0.12084   0.00000  Uiso   1.00
C12    C     0.69282   0.07728   0.16966   0.00000  Uiso   1.00
C13    C     0.71523   0.09296   0.25613   0.00000  Uiso   1.00
C14    C     0.67037   0.28095   0.03833   0.00000  Uiso   1.00
C15    C     0.63658   0.26346   0.02971   0.00000  Uiso   1.00
C16    C     0.61437   0.33676   0.02933   0.00000  Uiso   1.00
C17    C     0.58476   0.30554   0.02078   0.00000  Uiso   1.00
C18    C     0.68604   0.23601   0.98716   0.00000  Uiso   1.00
C19    C     0.70543   0.28623   0.95103   0.00000  Uiso   1.00
C20    C     0.71746   0.23190   0.90666   0.00000  Uiso   1.00
C21    C     0.67951   0.21607   0.08815   0.00000  Uiso   1.00
C22    C     0.69341   0.24950   0.13692   0.00000  Uiso   1.00
C23    C     0.69995   0.17837   0.17757   0.00000  Uiso   1.00
H24    H     0.65172   0.01661   0.01765   0.00000  Uiso   1.00
H25    H     0.59437   0.05312   0.00714   0.00000  Uiso   1.00
H26    H     0.68541   0.00260   0.92885   0.00000  Uiso   1.00
H27    H     0.67339   0.96588   0.11472   0.00000  Uiso   1.00
H28    H     0.53392   0.13810   0.99896   0.00000  Uiso   1.00
H29    H     0.72591   0.03156   0.83389   0.00000  Uiso   1.00
H30    H     0.70057   0.95413   0.22582   0.00000  Uiso   1.00
H31    H     0.67592   0.35951   0.04448   0.00000  Uiso   1.00
H32    H     0.61989   0.41484   0.03544   0.00000  Uiso   1.00
H33    H     0.71094   0.36431   0.95715   0.00000  Uiso   1.00
H34    H     0.69892   0.32760   0.14302   0.00000  Uiso   1.00
H35    H     0.55464   0.43169   0.02192   0.00000  Uiso   1.00
H36    H     0.74663   0.32514   0.85686   0.00000  Uiso   1.00
H37    H     0.72129   0.24772   0.24879   0.00000  Uiso   1.00
O38    O     0.50699   0.31511   0.00400   0.00000  Uiso   1.00
O39    O     0.75887   0.17532   0.78744   0.00000  Uiso   1.00
O40    O     0.72563   0.07374   0.30164   0.00000  Uiso   1.00
N41    N     0.54649   0.19961   0.00561   0.00000  Uiso   1.00
N42    N     0.72598   0.09999   0.85128   0.00000  Uiso   1.00
N43    N     0.70229   0.02760   0.21769   0.00000  Uiso   1.00
N44    N     0.55764   0.35758   0.01797   0.00000  Uiso   1.00
N45    N     0.73712   0.25797   0.86364   0.00000  Uiso   1.00
N46    N     0.71344   0.18558   0.23005   0.00000  Uiso   1.00
C47    C     0.36064   0.36059   0.01704   0.00000  Uiso   1.00
C48    C     0.38446   0.28451   0.03485   0.00000  Uiso   1.00
C49    C     0.41497   0.28767   0.02107   0.00000  Uiso   1.00
C50    C     0.43305   0.21102   0.04144   0.00000  Uiso   1.00
C51    C     0.47186   0.10457   0.06406   0.00000  Uiso   1.00
C52    C     0.33607   0.30155   0.98668   0.00000  Uiso   1.00
C53    C     0.32590   0.31905   0.93241   0.00000  Uiso   1.00
C54    C     0.30325   0.25675   0.91225   0.00000  Uiso   1.00
C55    C     0.26692   0.17680   0.86011   0.00000  Uiso   1.00
C56    C     0.34622   0.39859   0.07116   0.00000  Uiso   1.00
C57    C     0.34456   0.49767   0.08791   0.00000  Uiso   1.00
C58    C     0.33045   0.51708   0.13887   0.00000  Uiso   1.00
C59    C     0.30988   0.58779   0.21789   0.00000  Uiso   1.00
C60    C     0.33850   0.21886   0.07772   0.00000  Uiso   1.00
C61    C     0.37243   0.20753   0.06781   0.00000  Uiso   1.00
C62    C     0.39048   0.13086   0.08821   0.00000  Uiso   1.00
C63    C     0.42101   0.13390   0.07447   0.00000  Uiso   1.00
C64    C     0.32405   0.22457   0.01964   0.00000  Uiso   1.00
C65    C     0.30141   0.16224   0.99955   0.00000  Uiso   1.00
C66    C     0.29120   0.17963   0.94527   0.00000  Uiso   1.00
C67    C     0.33419   0.32160   0.10412   0.00000  Uiso   1.00
C68    C     0.32007   0.34086   0.15505   0.00000  Uiso   1.00
C69    C     0.31840   0.43996   0.17189   0.00000  Uiso   1.00
H70    H     0.37000   0.42052   0.99137   0.00000  Uiso   1.00
H71    H     0.42426   0.34725   0.99556   0.00000  Uiso   1.00
H72    H     0.33520   0.37863   0.90692   0.00000  Uiso   1.00
H73    H     0.35387   0.55722   0.06240   0.00000  Uiso   1.00
H74    H     0.47912   0.23204   0.01472   0.00000  Uiso   1.00
H75    H     0.29133   0.29823   0.82783   0.00000  Uiso   1.00
H76    H     0.33069   0.67484   0.15568   0.00000  Uiso   1.00
H77    H     0.32914   0.15893   0.10338   0.00000  Uiso   1.00
H78    H     0.38116   0.07129   0.11371   0.00000  Uiso   1.00
H79    H     0.29210   0.10268   0.02507   0.00000  Uiso   1.00
H80    H     0.31077   0.28127   0.18055   0.00000  Uiso   1.00
H81    H     0.44414   0.00806   0.11061   0.00000  Uiso   1.00
H82    H     0.25635   0.07426   0.92372   0.00000  Uiso   1.00
H83    H     0.29571   0.45086   0.25158   0.00000  Uiso   1.00
O84    O     0.49659   0.06711   0.06743   0.00000  Uiso   1.00
O85    O     0.25021   0.15396   0.82224   0.00000  Uiso   1.00
O86    O     0.30185   0.64805   0.25237   0.00000  Uiso   1.00
N87    N     0.46375   0.19137   0.03588   0.00000  Uiso   1.00
N88    N     0.28818   0.25324   0.86114   0.00000  Uiso   1.00
N89    N     0.32497   0.60534   0.16765   0.00000  Uiso   1.00
N90    N     0.44493   0.07084   0.08748   0.00000  Uiso   1.00
N91    N     0.26936   0.13272   0.91274   0.00000  Uiso   1.00
N92    N     0.30615   0.48482   0.21925   0.00000  Uiso   1.00
C93    C     0.84274   0.40483   0.52380   0.00000  Uiso   1.00
C94    C     0.87055   0.33744   0.52181   0.00000  Uiso   1.00
C95    C     0.90013   0.36878   0.51325   0.00000  Uiso   1.00
C96    C     0.92238   0.29555   0.51287   0.00000  Uiso   1.00
C97    C     0.96663   0.20626   0.50856   0.00000  Uiso   1.00
C98    C     0.82108   0.36489   0.47927   0.00000  Uiso   1.00
C99    C     0.80908   0.41932   0.43495   0.00000  Uiso   1.00
C100   C     0.78968   0.36919   0.39875   0.00000  Uiso   1.00
C101   C     0.75712   0.32254   0.32842   0.00000  Uiso   1.00
C102   C     0.82761   0.38484   0.58026   0.00000  Uiso   1.00
C103   C     0.82109   0.45604   0.62084   0.00000  Uiso   1.00
C104   C     0.80718   0.42272   0.66966   0.00000  Uiso   1.00
C105   C     0.78477   0.40704   0.75613   0.00000  Uiso   1.00
C106   C     0.82963   0.21905   0.53833   0.00000  Uiso   1.00
C107   C     0.86342   0.23654   0.52971   0.00000  Uiso   1.00
C108   C     0.88563   0.16324   0.52933   0.00000  Uiso   1.00
C109   C     0.91524   0.19446   0.52078   0.00000  Uiso   1.00
C110   C     0.81396   0.26399   0.48716   0.00000  Uiso   1.00
C111   C     0.79457   0.21377   0.45103   0.00000  Uiso   1.00
C112   C     0.78254   0.26810   0.40666   0.00000  Uiso   1.00
C113   C     0.82049   0.28393   0.58815   0.00000  Uiso   1.00
C114   C     0.80659   0.25050   0.63692   0.00000  Uiso   1.00
C115   C     0.80005   0.32163   0.67757   0.00000  Uiso   1.00
H116   H     0.84828   0.48339   0.51765   0.00000  Uiso   1.00
H117   H     0.90563   0.44688   0.50714   0.00000  Uiso   1.00
H118   H     0.81459   0.49740   0.42885   0.00000  Uiso   1.00
H119   H     0.82661   0.53412   0.61472   0.00000  Uiso   1.00
H120   H     0.96608   0.36190   0.49896   0.00000  Uiso   1.00
H121   H     0.77409   0.46844   0.33389   0.00000  Uiso   1.00
H122   H     0.79943   0.54587   0.72582   0.00000  Uiso   1.00
H123   H     0.82408   0.14049   0.54448   0.00000  Uiso   1.00
H124   H     0.88011   0.08516   0.53544   0.00000  Uiso   1.00
H125   H     0.78906   0.13569   0.45715   0.00000  Uiso   1.00
H126   H     0.80108   0.17240   0.64302   0.00000  Uiso   1.00
H127   H     0.94536   0.06831   0.52192   0.00000  Uiso   1.00
H128   H     0.75337   0.17486   0.35686   0.00000  Uiso   1.00
H129   H     0.77871   0.25228   0.74879   0.00000  Uiso   1.00
O130   O     0.99301   0.18489   0.50400   0.00000  Uiso   1.00
O131   O     0.74113   0.32468   0.28744   0.00000  Uiso   1.00
O132   O     0.77437   0.42626   0.80164   0.00000  Uiso   1.00
N133   N     0.95351   0.30039   0.50561   0.00000  Uiso   1.00
N134   N     0.77402   0.40001   0.35128   0.00000  Uiso   1.00
N135   N     0.79771   0.47240   0.71769   0.00000  Uiso   1.00
N136   N     0.94236   0.14242   0.51797   0.00000  Uiso   1.00
N137   N     0.76288   0.24203   0.36364   0.00000  Uiso   1.00
N138   N     0.78656   0.31442   0.73005   0.00000  Uiso   1.00
C139   C     0.13936   0.13941   0.51704   0.00000  Uiso   1.00
C140   C     0.11554   0.21549   0.53485   0.00000  Uiso   1.00
C141   C     0.08503   0.21233   0.52107   0.00000  Uiso   1.00
C142   C     0.06695   0.28898   0.54144   0.00000  Uiso   1.00
C143   C     0.02814   0.39543   0.56406   0.00000  Uiso   1.00
C144   C     0.16393   0.19845   0.48668   0.00000  Uiso   1.00
C145   C     0.17410   0.18095   0.43241   0.00000  Uiso   1.00
C146   C     0.19675   0.24325   0.41225   0.00000  Uiso   1.00
C147   C     0.23308   0.32320   0.36011   0.00000  Uiso   1.00
C148   C     0.15378   0.10141   0.57116   0.00000  Uiso   1.00
C149   C     0.15544   0.00233   0.58791   0.00000  Uiso   1.00
C150   C     0.16955   0.98292   0.63887   0.00000  Uiso   1.00
C151   C     0.19012   0.91221   0.71789   0.00000  Uiso   1.00
C152   C     0.16150   0.28114   0.57772   0.00000  Uiso   1.00
C153   C     0.12757   0.29247   0.56781   0.00000  Uiso   1.00
C154   C     0.10952   0.36914   0.58821   0.00000  Uiso   1.00
C155   C     0.07899   0.36610   0.57447   0.00000  Uiso   1.00
C156   C     0.17595   0.27543   0.51964   0.00000  Uiso   1.00
C157   C     0.19859   0.33776   0.49955   0.00000  Uiso   1.00
C158   C     0.20880   0.32037   0.44527   0.00000  Uiso   1.00
C159   C     0.16581   0.17840   0.60412   0.00000  Uiso   1.00
C160   C     0.17993   0.15914   0.65505   0.00000  Uiso   1.00
C161   C     0.18160   0.06004   0.67189   0.00000  Uiso   1.00
H162   H     0.13000   0.07948   0.49137   0.00000  Uiso   1.00
H163   H     0.07574   0.15275   0.49556   0.00000  Uiso   1.00
H164   H     0.16480   0.12137   0.40692   0.00000  Uiso   1.00
H165   H     0.14613   0.94278   0.56240   0.00000  Uiso   1.00
H166   H     0.02088   0.26796   0.51472   0.00000  Uiso   1.00
H167   H     0.20867   0.20177   0.32783   0.00000  Uiso   1.00
H168   H     0.16931   0.82516   0.65568   0.00000  Uiso   1.00
H169   H     0.17086   0.34107   0.60338   0.00000  Uiso   1.00
H170   H     0.11884   0.42871   0.61371   0.00000  Uiso   1.00
H171   H     0.20790   0.39732   0.52507   0.00000  Uiso   1.00
H172   H     0.18923   0.21873   0.68055   0.00000  Uiso   1.00
H173   H     0.05586   0.49194   0.61061   0.00000  Uiso   1.00
H174   H     0.24365   0.42574   0.42372   0.00000  Uiso   1.00
H175   H     0.20429   0.04914   0.75158   0.00000  Uiso   1.00
O176   O     0.00341   0.43289   0.56743   0.00000  Uiso   1.00
O177   O     0.24979   0.34604   0.32224   0.00000  Uiso   1.00
O178   O     0.19815   0.85195   0.75237   0.00000  Uiso   1.00
N179   N     0.03625   0.30863   0.53588   0.00000  Uiso   1.00
N180   N     0.21182   0.24676   0.36114   0.00000  Uiso   1.00
N181   N     0.17503   0.89466   0.66765   0.00000  Uiso   1.00
N182   N     0.05507   0.42916   0.58748   0.00000  Uiso   1.00
N183   N     0.23064   0.36728   0.41274   0.00000  Uiso   1.00
N184   N     0.19385   0.01518   0.71925   0.00000  Uiso   1.00
C185   C     0.34274   0.09517   0.47620   0.00000  Uiso   1.00
C186   C     0.37055   0.16256   0.47819   0.00000  Uiso   1.00
C187   C     0.40013   0.13122   0.48675   0.00000  Uiso   1.00
C188   C     0.42238   0.20445   0.48713   0.00000  Uiso   1.00
C189   C     0.46663   0.29374   0.49144   0.00000  Uiso   1.00
C190   C     0.32108   0.13511   0.52073   0.00000  Uiso   1.00
C191   C     0.30908   0.08068   0.56505   0.00000  Uiso   1.00
C192   C     0.28968   0.13081   0.60125   0.00000  Uiso   1.00
C193   C     0.25712   0.17746   0.67158   0.00000  Uiso   1.00
C194   C     0.32761   0.11516   0.41974   0.00000  Uiso   1.00
C195   C     0.32109   0.04396   0.37916   0.00000  Uiso   1.00
C196   C     0.30718   0.07728   0.33034   0.00000  Uiso   1.00
C197   C     0.28477   0.09296   0.24387   0.00000  Uiso   1.00
C198   C     0.32963   0.28095   0.46167   0.00000  Uiso   1.00
C199   C     0.36342   0.26346   0.47029   0.00000  Uiso   1.00
C200   C     0.38563   0.33676   0.47067   0.00000  Uiso   1.00
C201   C     0.41524   0.30554   0.47922   0.00000  Uiso   1.00
C202   C     0.31396   0.23601   0.51284   0.00000  Uiso   1.00
C203   C     0.29457   0.28623   0.54897   0.00000  Uiso   1.00
C204   C     0.28254   0.23190   0.59334   0.00000  Uiso   1.00
C205   C     0.32049   0.21607   0.41185   0.00000  Uiso   1.00
C206   C     0.30659   0.24950   0.36308   0.00000  Uiso   1.00
C207   C     0.30005   0.17837   0.32243   0.00000  Uiso   1.00
H208   H     0.34828   0.01661   0.48235   0.00000  Uiso   1.00
H209   H     0.40563   0.05312   0.49286   0.00000  Uiso   1.00
H210   H     0.31459   0.00260   0.57115   0.00000  Uiso   1.00
H211   H     0.32661   0.96588   0.38528   0.00000  Uiso   1.00
H212   H     0.46608   0.13810   0.50104   0.00000  Uiso   1.00
H213   H     0.27409   0.03156   0.66611   0.00000  Uiso   1.00
H214   H     0.29943   0.95413   0.27418   0.00000  Uiso   1.00
H215   H     0.32408   0.35951   0.45552   0.00000  Uiso   1.00
H216   H     0.38011   0.41484   0.46456   0.00000  Uiso   1.00
H217   H     0.28906   0.36431   0.54285   0.00000  Uiso   1.00
H218   H     0.30108   0.32760   0.35698   0.00000  Uiso   1.00
H219   H     0.44536   0.43169   0.47808   0.00000  Uiso   1.00
H220   H     0.25337   0.32514   0.64314   0.00000  Uiso   1.00
H221   H     0.27871   0.24772   0.25121   0.00000  Uiso   1.00
O222   O     0.49301   0.31511   0.49600   0.00000  Uiso   1.00
O223   O     0.24113   0.17532   0.71256   0.00000  Uiso   1.00
O224   O     0.27437   0.07374   0.19836   0.00000  Uiso   1.00
N225   N     0.45351   0.19961   0.49439   0.00000  Uiso   1.00
N226   N     0.27402   0.09999   0.64872   0.00000  Uiso   1.00
N227   N     0.29771   0.02760   0.28231   0.00000  Uiso   1.00
N228   N     0.44236   0.35758   0.48203   0.00000  Uiso   1.00
N229   N     0.26288   0.25797   0.63636   0.00000  Uiso   1.00
N230   N     0.28656   0.18558   0.26995   0.00000  Uiso   1.00
C231   C     0.63936   0.36059   0.48296   0.00000  Uiso   1.00
C232   C     0.61554   0.28451   0.46515   0.00000  Uiso   1.00
C233   C     0.58503   0.28767   0.47893   0.00000  Uiso   1.00
C234   C     0.56695   0.21102   0.45856   0.00000  Uiso   1.00
C235   C     0.52814   0.10457   0.43594   0.00000  Uiso   1.00
C236   C     0.66393   0.30155   0.51332   0.00000  Uiso   1.00
C237   C     0.67410   0.31905   0.56759   0.00000  Uiso   1.00
C238   C     0.69675   0.25675   0.58775   0.00000  Uiso   1.00
C239   C     0.73308   0.17680   0.63989   0.00000  Uiso   1.00
C240   C     0.65378   0.39859   0.42884   0.00000  Uiso   1.00
C241   C     0.65544   0.49767   0.41209   0.00000  Uiso   1.00
C242   C     0.66955   0.51708   0.36113   0.00000  Uiso   1.00
C243   C     0.69012   0.58779   0.28211   0.00000  Uiso   1.00
C244   C     0.66150   0.21886   0.42228   0.00000  Uiso   1.00
C245   C     0.62757   0.20753   0.43219   0.00000  Uiso   1.00
C246   C     0.60952   0.13086   0.41179   0.00000  Uiso   1.00
C247   C     0.57899   0.13390   0.42553   0.00000  Uiso   1.00
C248   C     0.67595   0.22457   0.48036   0.00000  Uiso   1.00
C249   C     0.69859   0.16224   0.50045   0.00000  Uiso   1.00
C250   C     0.70880   0.17963   0.55473   0.00000  Uiso   1.00
C251   C     0.66581   0.32160   0.39588   0.00000  Uiso   1.00
C252   C     0.67993   0.34086   0.34495   0.00000  Uiso   1.00
C253   C     0.68160   0.43996   0.32811   0.00000  Uiso   1.00
H254   H     0.63000   0.42052   0.50863   0.00000  Uiso   1.00
H255   H     0.57574   0.34725   0.50444   0.00000  Uiso   1.00
H256   H     0.66480   0.37863   0.59308   0.00000  Uiso   1.00
H257   H     0.64613   0.55722   0.43760   0.00000  Uiso   1.00
H258   H     0.52088   0.23204   0.48528   0.00000  Uiso   1.00
H259   H     0.70867   0.29823   0.67217   0.00000  Uiso   1.00
H260   H     0.66931   0.67484   0.34432   0.00000  Uiso   1.00
H261   H     0.67086   0.15893   0.39662   0.00000  Uiso   1.00
H262   H     0.61884   0.07129   0.38629   0.00000  Uiso   1.00
H263   H     0.70790   0.10268   0.47493   0.00000  Uiso   1.00
H264   H     0.68923   0.28127   0.31945   0.00000  Uiso   1.00
H265   H     0.55586   0.00806   0.38939   0.00000  Uiso   1.00
H266   H     0.74365   0.07426   0.57628   0.00000  Uiso   1.00
H267   H     0.70429   0.45086   0.24842   0.00000  Uiso   1.00
O268   O     0.50341   0.06711   0.43257   0.00000  Uiso   1.00
O269   O     0.74979   0.15396   0.67776   0.00000  Uiso   1.00
O270   O     0.69815   0.64805   0.24763   0.00000  Uiso   1.00
N271   N     0.53625   0.19137   0.46412   0.00000  Uiso   1.00
N272   N     0.71182   0.25324   0.63886   0.00000  Uiso   1.00
N273   N     0.67503   0.60534   0.33235   0.00000  Uiso   1.00
N274   N     0.55507   0.07084   0.41252   0.00000  Uiso   1.00
N275   N     0.73064   0.13272   0.58726   0.00000  Uiso   1.00
N276   N     0.69385   0.48482   0.28075   0.00000  Uiso   1.00
C277   C     0.15726   0.40483   0.97620   0.00000  Uiso   1.00
C278   C     0.12945   0.33744   0.97819   0.00000  Uiso   1.00
C279   C     0.09987   0.36878   0.98675   0.00000  Uiso   1.00
C280   C     0.07762   0.29555   0.98713   0.00000  Uiso   1.00
C281   C     0.03337   0.20626   0.99144   0.00000  Uiso   1.00
C282   C     0.17892   0.36489   0.02073   0.00000  Uiso   1.00
C283   C     0.19092   0.41932   0.06505   0.00000  Uiso   1.00
C284   C     0.21032   0.36919   0.10125   0.00000  Uiso   1.00
C285   C     0.24288   0.32254   0.17158   0.00000  Uiso   1.00
C286   C     0.17239   0.38484   0.91974   0.00000  Uiso   1.00
C287   C     0.17891   0.45604   0.87916   0.00000  Uiso   1.00
C288   C     0.19282   0.42272   0.83034   0.00000  Uiso   1.00
C289   C     0.21523   0.40704   0.74387   0.00000  Uiso   1.00
C290   C     0.17037   0.21905   0.96167   0.00000  Uiso   1.00
C291   C     0.13658   0.23654   0.97029   0.00000  Uiso   1.00
C292   C     0.11437   0.16324   0.97067   0.00000  Uiso   1.00
C293   C     0.08476   0.19446   0.97922   0.00000  Uiso   1.00
C294   C     0.18604   0.26399   0.01284   0.00000  Uiso   1.00
C295   C     0.20543   0.21377   0.04897   0.00000  Uiso   1.00
C296   C     0.21746   0.26810   0.09334   0.00000  Uiso   1.00
C297   C     0.17951   0.28393   0.91185   0.00000  Uiso   1.00
C298   C     0.19341   0.25050   0.86308   0.00000  Uiso   1.00
C299   C     0.19995   0.32163   0.82243   0.00000  Uiso   1.00
H300   H     0.15172   0.48339   0.98235   0.00000  Uiso   1.00
H301   H     0.09437   0.44688   0.99286   0.00000  Uiso   1.00
H302   H     0.18541   0.49740   0.07115   0.00000  Uiso   1.00
H303   H     0.17339   0.53412   0.88528   0.00000  Uiso   1.00
H304   H     0.03392   0.36190   0.00104   0.00000  Uiso   1.00
H305   H     0.22591   0.46844   0.16611   0.00000  Uiso   1.00
H306   H     0.20057   0.54587   0.77418   0.00000  Uiso   1.00
H307   H     0.17592   0.14049   0.95552   0.00000  Uiso   1.00
H308   H     0.11989   0.08516   0.96456   0.00000  Uiso   1.00
H309   H     0.21094   0.13569   0.04285   0.00000  Uiso   1.00
H310   H     0.19892   0.17240   0.85698   0.00000  Uiso   1.00
H311   H     0.05464   0.06831   0.97808   0.00000  Uiso   1.00
H312   H     0.24663   0.17486   0.14314   0.00000  Uiso   1.00
H313   H     0.22129   0.25228   0.75121   0.00000  Uiso   1.00
O314   O     0.00699   0.18489   0.99600   0.00000  Uiso   1.00
O315   O     0.25887   0.32468   0.21256   0.00000  Uiso   1.00
O316   O     0.22563   0.42626   0.69836   0.00000  Uiso   1.00
N317   N     0.04649   0.30039   0.99439   0.00000  Uiso   1.00
N318   N     0.22598   0.40001   0.14872   0.00000  Uiso   1.00
N319   N     0.20229   0.47240   0.78231   0.00000  Uiso   1.00
N320   N     0.05764   0.14242   0.98203   0.00000  Uiso   1.00
N321   N     0.23712   0.24203   0.13636   0.00000  Uiso   1.00
N322   N     0.21344   0.31442   0.76995   0.00000  Uiso   1.00
C323   C     0.86064   0.13941   0.98296   0.00000  Uiso   1.00
C324   C     0.88446   0.21549   0.96515   0.00000  Uiso   1.00
C325   C     0.91497   0.21233   0.97893   0.00000  Uiso   1.00
C326   C     0.93305   0.28898   0.95856   0.00000  Uiso   1.00
C327   C     0.97186   0.39543   0.93594   0.00000  Uiso   1.00
C328   C     0.83607   0.19845   0.01332   0.00000  Uiso   1.00
C329   C     0.82590   0.18095   0.06759   0.00000  Uiso   1.00
C330   C     0.80325   0.24325   0.08775   0.00000  Uiso   1.00
C331   C     0.76692   0.32320   0.13989   0.00000  Uiso   1.00
C332   C     0.84622   0.10141   0.92884   0.00000  Uiso   1.00
C333   C     0.84456   0.00233   0.91209   0.00000  Uiso   1.00
C334   C     0.83045   0.98292   0.86113   0.00000  Uiso   1.00
C335   C     0.80988   0.91221   0.78211   0.00000  Uiso   1.00
C336   C     0.83850   0.28114   0.92228   0.00000  Uiso   1.00
C337   C     0.87243   0.29247   0.93219   0.00000  Uiso   1.00
C338   C     0.89048   0.36914   0.91179   0.00000  Uiso   1.00
C339   C     0.92101   0.36610   0.92553   0.00000  Uiso   1.00
C340   C     0.82405   0.27543   0.98036   0.00000  Uiso   1.00
C341   C     0.80141   0.33776   0.00045   0.00000  Uiso   1.00
C342   C     0.79120   0.32037   0.05473   0.00000  Uiso   1.00
C343   C     0.83419   0.17840   0.89588   0.00000  Uiso   1.00
C344   C     0.82007   0.15914   0.84495   0.00000  Uiso   1.00
C345   C     0.81840   0.06004   0.82811   0.00000  Uiso   1.00
H346   H     0.87000   0.07948   0.00863   0.00000  Uiso   1.00
H347   H     0.92426   0.15275   0.00444   0.00000  Uiso   1.00
H348   H     0.83520   0.12137   0.09308   0.00000  Uiso   1.00
H349   H     0.85387   0.94278   0.93760   0.00000  Uiso   1.00
H350   H     0.97912   0.26796   0.98528   0.00000  Uiso   1.00
H351   H     0.79133   0.20177   0.17217   0.00000  Uiso   1.00
H352   H     0.83069   0.82516   0.84432   0.00000  Uiso   1.00
H353   H     0.82914   0.34107   0.89662   0.00000  Uiso   1.00
H354   H     0.88116   0.42871   0.88629   0.00000  Uiso   1.00
H355   H     0.79210   0.39732   0.97493   0.00000  Uiso   1.00
H356   H     0.81077   0.21873   0.81945   0.00000  Uiso   1.00
H357   H     0.94414   0.49194   0.88939   0.00000  Uiso   1.00
H358   H     0.75635   0.42574   0.07628   0.00000  Uiso   1.00
H359   H     0.79571   0.04914   0.74842   0.00000  Uiso   1.00
O360   O     0.99659   0.43289   0.93257   0.00000  Uiso   1.00
O361   O     0.75021   0.34604   0.17776   0.00000  Uiso   1.00
O362   O     0.80185   0.85195   0.74763   0.00000  Uiso   1.00
N363   N     0.96375   0.30863   0.96412   0.00000  Uiso   1.00
N364   N     0.78818   0.24676   0.13886   0.00000  Uiso   1.00
N365   N     0.82497   0.89466   0.83235   0.00000  Uiso   1.00
N366   N     0.94493   0.42916   0.91252   0.00000  Uiso   1.00
N367   N     0.76936   0.36728   0.08726   0.00000  Uiso   1.00
N368   N     0.80615   0.01518   0.78075   0.00000  Uiso   1.00
C369   C     0.34274   0.90483   0.97620   0.00000  Uiso   1.00
C370   C     0.37055   0.83744   0.97819   0.00000  Uiso   1.00
C371   C     0.40013   0.86878   0.98675   0.00000  Uiso   1.00
C372   C     0.42238   0.79555   0.98713   0.00000  Uiso   1.00
C373   C     0.46663   0.70626   0.99144   0.00000  Uiso   1.00
C374   C     0.32108   0.86489   0.02073   0.00000  Uiso   1.00
C375   C     0.30908   0.91932   0.06505   0.00000  Uiso   1.00
C376   C     0.28968   0.86919   0.10125   0.00000  Uiso   1.00
C377   C     0.25712   0.82254   0.17158   0.00000  Uiso   1.00
C378   C     0.32761   0.88484   0.91974   0.00000  Uiso   1.00
C379   C     0.32109   0.95604   0.87916   0.00000  Uiso   1.00
C380   C     0.30718   0.92272   0.83034   0.00000  Uiso   1.00
C381   C     0.28477   0.90704   0.74387   0.00000  Uiso   1.00
C382   C     0.32963   0.71905   0.96167   0.00000  Uiso   1.00
C383   C     0.36342   0.73654   0.97029   0.00000  Uiso   1.00
C384   C     0.38563   0.66324   0.97067   0.00000  Uiso   1.00
C385   C     0.41524   0.69446   0.97922   0.00000  Uiso   1.00
C386   C     0.31396   0.76399   0.01284   0.00000  Uiso   1.00
C387   C     0.29457   0.71377   0.04897   0.00000  Uiso   1.00
C388   C     0.28254   0.76810   0.09334   0.00000  Uiso   1.00
C389   C     0.32049   0.78393   0.91185   0.00000  Uiso   1.00
C390   C     0.30659   0.75050   0.86308   0.00000  Uiso   1.00
C391   C     0.30005   0.82163   0.82243   0.00000  Uiso   1.00
H392   H     0.34828   0.98339   0.98235   0.00000  Uiso   1.00
H393   H     0.40563   0.94688   0.99286   0.00000  Uiso   1.00
H394   H     0.31459   0.99740   0.07115   0.00000  Uiso   1.00
H395   H     0.32661   0.03412   0.88528   0.00000  Uiso   1.00
H396   H     0.46608   0.86190   0.00104   0.00000  Uiso   1.00
H397   H     0.27409   0.96844   0.16611   0.00000  Uiso   1.00
H398   H     0.29943   0.04587   0.77418   0.00000  Uiso   1.00
H399   H     0.32408   0.64049   0.95552   0.00000  Uiso   1.00
H400   H     0.38011   0.58516   0.96456   0.00000  Uiso   1.00
H401   H     0.28906   0.63569   0.04285   0.00000  Uiso   1.00
H402   H     0.30108   0.67240   0.85698   0.00000  Uiso   1.00
H403   H     0.44536   0.56831   0.97808   0.00000  Uiso   1.00
H404   H     0.25337   0.67486   0.14314   0.00000  Uiso   1.00
H405   H     0.27871   0.75228   0.75121   0.00000  Uiso   1.00
O406   O     0.49301   0.68489   0.99600   0.00000  Uiso   1.00
O407   O     0.24113   0.82468   0.21256   0.00000  Uiso   1.00
O408   O     0.27437   0.92626   0.69836   0.00000  Uiso   1.00
N409   N     0.45351   0.80039   0.99439   0.00000  Uiso   1.00
N410   N     0.27402   0.90001   0.14872   0.00000  Uiso   1.00
N411   N     0.29771   0.97240   0.78231   0.00000  Uiso   1.00
N412   N     0.44236   0.64242   0.98203   0.00000  Uiso   1.00
N413   N     0.26288   0.74203   0.13636   0.00000  Uiso   1.00
N414   N     0.28656   0.81442   0.76995   0.00000  Uiso   1.00
C415   C     0.63936   0.63941   0.98296   0.00000  Uiso   1.00
C416   C     0.61554   0.71549   0.96515   0.00000  Uiso   1.00
C417   C     0.58503   0.71233   0.97893   0.00000  Uiso   1.00
C418   C     0.56695   0.78898   0.95856   0.00000  Uiso   1.00
C419   C     0.52814   0.89543   0.93594   0.00000  Uiso   1.00
C420   C     0.66393   0.69845   0.01332   0.00000  Uiso   1.00
C421   C     0.67410   0.68095   0.06759   0.00000  Uiso   1.00
C422   C     0.69675   0.74325   0.08775   0.00000  Uiso   1.00
C423   C     0.73308   0.82320   0.13989   0.00000  Uiso   1.00
C424   C     0.65378   0.60141   0.92884   0.00000  Uiso   1.00
C425   C     0.65544   0.50233   0.91209   0.00000  Uiso   1.00
C426   C     0.66955   0.48292   0.86113   0.00000  Uiso   1.00
C427   C     0.69012   0.41221   0.78211   0.00000  Uiso   1.00
C428   C     0.66150   0.78114   0.92228   0.00000  Uiso   1.00
C429   C     0.62757   0.79247   0.93219   0.00000  Uiso   1.00
C430   C     0.60952   0.86914   0.91179   0.00000  Uiso   1.00
C431   C     0.57899   0.86610   0.92553   0.00000  Uiso   1.00
C432   C     0.67595   0.77543   0.98036   0.00000  Uiso   1.00
C433   C     0.69859   0.83776   0.00045   0.00000  Uiso   1.00
C434   C     0.70880   0.82037   0.05473   0.00000  Uiso   1.00
C435   C     0.66581   0.67840   0.89588   0.00000  Uiso   1.00
C436   C     0.67993   0.65914   0.84495   0.00000  Uiso   1.00
C437   C     0.68160   0.56004   0.82811   0.00000  Uiso   1.00
H438   H     0.63000   0.57948   0.00863   0.00000  Uiso   1.00
H439   H     0.57574   0.65275   0.00444   0.00000  Uiso   1.00
H440   H     0.66480   0.62137   0.09308   0.00000  Uiso   1.00
H441   H     0.64613   0.44278   0.93760   0.00000  Uiso   1.00
H442   H     0.52088   0.76796   0.98528   0.00000  Uiso   1.00
H443   H     0.70867   0.70177   0.17217   0.00000  Uiso   1.00
H444   H     0.66931   0.32516   0.84432   0.00000  Uiso   1.00
H445   H     0.67086   0.84107   0.89662   0.00000  Uiso   1.00
H446   H     0.61884   0.92871   0.88629   0.00000  Uiso   1.00
H447   H     0.70790   0.89732   0.97493   0.00000  Uiso   1.00
H448   H     0.68923   0.71873   0.81945   0.00000  Uiso   1.00
H449   H     0.55586   0.99194   0.88939   0.00000  Uiso   1.00
H450   H     0.74365   0.92574   0.07628   0.00000  Uiso   1.00
H451   H     0.70429   0.54914   0.74842   0.00000  Uiso   1.00
O452   O     0.50341   0.93289   0.93257   0.00000  Uiso   1.00
O453   O     0.74979   0.84604   0.17776   0.00000  Uiso   1.00
O454   O     0.69815   0.35195   0.74763   0.00000  Uiso   1.00
N455   N     0.53625   0.80863   0.96412   0.00000  Uiso   1.00
N456   N     0.71182   0.74676   0.13886   0.00000  Uiso   1.00
N457   N     0.67503   0.39466   0.83235   0.00000  Uiso   1.00
N458   N     0.55507   0.92916   0.91252   0.00000  Uiso   1.00
N459   N     0.73064   0.86728   0.08726   0.00000  Uiso   1.00
N460   N     0.69385   0.51518   0.78075   0.00000  Uiso   1.00
C461   C     0.15726   0.59517   0.47620   0.00000  Uiso   1.00
C462   C     0.12945   0.66256   0.47819   0.00000  Uiso   1.00
C463   C     0.09987   0.63122   0.48675   0.00000  Uiso   1.00
C464   C     0.07762   0.70445   0.48713   0.00000  Uiso   1.00
C465   C     0.03337   0.79374   0.49144   0.00000  Uiso   1.00
C466   C     0.17892   0.63511   0.52073   0.00000  Uiso   1.00
C467   C     0.19092   0.58068   0.56505   0.00000  Uiso   1.00
C468   C     0.21032   0.63081   0.60125   0.00000  Uiso   1.00
C469   C     0.24288   0.67746   0.67158   0.00000  Uiso   1.00
C470   C     0.17239   0.61516   0.41974   0.00000  Uiso   1.00
C471   C     0.17891   0.54396   0.37916   0.00000  Uiso   1.00
C472   C     0.19282   0.57728   0.33034   0.00000  Uiso   1.00
C473   C     0.21523   0.59296   0.24387   0.00000  Uiso   1.00
C474   C     0.17037   0.78095   0.46167   0.00000  Uiso   1.00
C475   C     0.13658   0.76346   0.47029   0.00000  Uiso   1.00
C476   C     0.11437   0.83676   0.47067   0.00000  Uiso   1.00
C477   C     0.08476   0.80554   0.47922   0.00000  Uiso   1.00
C478   C     0.18604   0.73601   0.51284   0.00000  Uiso   1.00
C479   C     0.20543   0.78623   0.54897   0.00000  Uiso   1.00
C480   C     0.21746   0.73190   0.59334   0.00000  Uiso   1.00
C481   C     0.17951   0.71607   0.41185   0.00000  Uiso   1.00
C482   C     0.19341   0.74950   0.36308   0.00000  Uiso   1.00
C483   C     0.19995   0.67837   0.32243   0.00000  Uiso   1.00
H484   H     0.15172   0.51661   0.48235   0.00000  Uiso   1.00
H485   H     0.09437   0.55312   0.49286   0.00000  Uiso   1.00
H486   H     0.18541   0.50260   0.57115   0.00000  Uiso   1.00
H487   H     0.17339   0.46588   0.38528   0.00000  Uiso   1.00
H488   H     0.03392   0.63810   0.50104   0.00000  Uiso   1.00
H489   H     0.22591   0.53156   0.66611   0.00000  Uiso   1.00
H490   H     0.20057   0.45413   0.27418   0.00000  Uiso   1.00
H491   H     0.17592   0.85951   0.45552   0.00000  Uiso   1.00
H492   H     0.11989   0.91484   0.46456   0.00000  Uiso   1.00
H493   H     0.21094   0.86431   0.54285   0.00000  Uiso   1.00
H494   H     0.19892   0.82760   0.35698   0.00000  Uiso   1.00
H495   H     0.05464   0.93169   0.47808   0.00000  Uiso   1.00
H496   H     0.24663   0.82514   0.64314   0.00000  Uiso   1.00
H497   H     0.22129   0.74772   0.25121   0.00000  Uiso   1.00
O498   O     0.00699   0.81511   0.49600   0.00000  Uiso   1.00
O499   O     0.25887   0.67532   0.71256   0.00000  Uiso   1.00
O500   O     0.22563   0.57374   0.19836   0.00000  Uiso   1.00
N501   N     0.04649   0.69961   0.49439   0.00000  Uiso   1.00
N502   N     0.22598   0.59999   0.64872   0.00000  Uiso   1.00
N503   N     0.20229   0.52760   0.28231   0.00000  Uiso   1.00
N504   N     0.05764   0.85758   0.48203   0.00000  Uiso   1.00
N505   N     0.23712   0.75797   0.63636   0.00000  Uiso   1.00
N506   N     0.21344   0.68558   0.26995   0.00000  Uiso   1.00
C507   C     0.86064   0.86059   0.48296   0.00000  Uiso   1.00
C508   C     0.88446   0.78451   0.46515   0.00000  Uiso   1.00
C509   C     0.91497   0.78767   0.47893   0.00000  Uiso   1.00
C510   C     0.93305   0.71102   0.45856   0.00000  Uiso   1.00
C511   C     0.97186   0.60457   0.43594   0.00000  Uiso   1.00
C512   C     0.83607   0.80155   0.51332   0.00000  Uiso   1.00
C513   C     0.82590   0.81905   0.56759   0.00000  Uiso   1.00
C514   C     0.80325   0.75675   0.58775   0.00000  Uiso   1.00
C515   C     0.76692   0.67680   0.63989   0.00000  Uiso   1.00
C516   C     0.84622   0.89859   0.42884   0.00000  Uiso   1.00
C517   C     0.84456   0.99767   0.41209   0.00000  Uiso   1.00
C518   C     0.83045   0.01708   0.36113   0.00000  Uiso   1.00
C519   C     0.80988   0.08779   0.28211   0.00000  Uiso   1.00
C520   C     0.83850   0.71886   0.42228   0.00000  Uiso   1.00
C521   C     0.87243   0.70753   0.43219   0.00000  Uiso   1.00
C522   C     0.89048   0.63086   0.41179   0.00000  Uiso   1.00
C523   C     0.92101   0.63390   0.42553   0.00000  Uiso   1.00
C524   C     0.82405   0.72457   0.48036   0.00000  Uiso   1.00
C525   C     0.80141   0.66224   0.50045   0.00000  Uiso   1.00
C526   C     0.79120   0.67963   0.55473   0.00000  Uiso   1.00
C527   C     0.83419   0.82160   0.39588   0.00000  Uiso   1.00
C528   C     0.82007   0.84086   0.34495   0.00000  Uiso   1.00
C529   C     0.81840   0.93996   0.32811   0.00000  Uiso   1.00
H530   H     0.87000   0.92052   0.50863   0.00000  Uiso   1.00
H531   H     0.92426   0.84725   0.50444   0.00000  Uiso   1.00
H532   H     0.83520   0.87863   0.59308   0.00000  Uiso   1.00
H533   H     0.85387   0.05722   0.43760   0.00000  Uiso   1.00
H534   H     0.97912   0.73204   0.48528   0.00000  Uiso   1.00
H535   H     0.79133   0.79823   0.67217   0.00000  Uiso   1.00
H536   H     0.83069   0.17484   0.34432   0.00000  Uiso   1.00
H537   H     0.82914   0.65893   0.39662   0.00000  Uiso   1.00
H538   H     0.88116   0.57129   0.38629   0.00000  Uiso   1.00
H539   H     0.79210   0.60268   0.47493   0.00000  Uiso   1.00
H540   H     0.81077   0.78127   0.31945   0.00000  Uiso   1.00
H541   H     0.94414   0.50806   0.38939   0.00000  Uiso   1.00
H542   H     0.75635   0.57426   0.57628   0.00000  Uiso   1.00
H543   H     0.79571   0.95086   0.24842   0.00000  Uiso   1.00
O544   O     0.99659   0.56711   0.43257   0.00000  Uiso   1.00
O545   O     0.75021   0.65396   0.67776   0.00000  Uiso   1.00
O546   O     0.80185   0.14805   0.24763   0.00000  Uiso   1.00
N547   N     0.96375   0.69137   0.46412   0.00000  Uiso   1.00
N548   N     0.78818   0.75324   0.63886   0.00000  Uiso   1.00
N549   N     0.82497   0.10534   0.33235   0.00000  Uiso   1.00
N550   N     0.94493   0.57084   0.41252   0.00000  Uiso   1.00
N551   N     0.76936   0.63272   0.58726   0.00000  Uiso   1.00
N552   N     0.80615   0.98482   0.28075   0.00000  Uiso   1.00
C553   C     0.65726   0.90483   0.52380   0.00000  Uiso   1.00
C554   C     0.62945   0.83744   0.52181   0.00000  Uiso   1.00
C555   C     0.59987   0.86878   0.51325   0.00000  Uiso   1.00
C556   C     0.57762   0.79555   0.51287   0.00000  Uiso   1.00
C557   C     0.53337   0.70626   0.50856   0.00000  Uiso   1.00
C558   C     0.67892   0.86489   0.47927   0.00000  Uiso   1.00
C559   C     0.69092   0.91932   0.43495   0.00000  Uiso   1.00
C560   C     0.71032   0.86919   0.39875   0.00000  Uiso   1.00
C561   C     0.74288   0.82254   0.32842   0.00000  Uiso   1.00
C562   C     0.67239   0.88484   0.58026   0.00000  Uiso   1.00
C563   C     0.67891   0.95604   0.62084   0.00000  Uiso   1.00
C564   C     0.69282   0.92272   0.66966   0.00000  Uiso   1.00
C565   C     0.71523   0.90704   0.75613   0.00000  Uiso   1.00
C566   C     0.67037   0.71905   0.53833   0.00000  Uiso   1.00
C567   C     0.63658   0.73654   0.52971   0.00000  Uiso   1.00
C568   C     0.61437   0.66324   0.52933   0.00000  Uiso   1.00
C569   C     0.58476   0.69446   0.52078   0.00000  Uiso   1.00
C570   C     0.68604   0.76399   0.48716   0.00000  Uiso   1.00
C571   C     0.70543   0.71377   0.45103   0.00000  Uiso   1.00
C572   C     0.71746   0.76810   0.40666   0.00000  Uiso   1.00
C573   C     0.67951   0.78393   0.58815   0.00000  Uiso   1.00
C574   C     0.69341   0.75050   0.63692   0.00000  Uiso   1.00
C575   C     0.69995   0.82163   0.67757   0.00000  Uiso   1.00
H576   H     0.65172   0.98339   0.51765   0.00000  Uiso   1.00
H577   H     0.59437   0.94688   0.50714   0.00000  Uiso   1.00
H578   H     0.68541   0.99740   0.42885   0.00000  Uiso   1.00
H579   H     0.67339   0.03412   0.61472   0.00000  Uiso   1.00
H580   H     0.53392   0.86190   0.49896   0.00000  Uiso   1.00
H581   H     0.72591   0.96844   0.33389   0.00000  Uiso   1.00
H582   H     0.70057   0.04587   0.72582   0.00000  Uiso   1.00
H583   H     0.67592   0.64049   0.54448   0.00000  Uiso   1.00
H584   H     0.61989   0.58516   0.53544   0.00000  Uiso   1.00
H585   H     0.71094   0.63569   0.45715   0.00000  Uiso   1.00
H586   H     0.69892   0.67240   0.64302   0.00000  Uiso   1.00
H587   H     0.55464   0.56831   0.52192   0.00000  Uiso   1.00
H588   H     0.74663   0.67486   0.35686   0.00000  Uiso   1.00
H589   H     0.72129   0.75228   0.74879   0.00000  Uiso   1.00
O590   O     0.50699   0.68489   0.50400   0.00000  Uiso   1.00
O591   O     0.75887   0.82468   0.28744   0.00000  Uiso   1.00
O592   O     0.72563   0.92626   0.80164   0.00000  Uiso   1.00
N593   N     0.54649   0.80039   0.50561   0.00000  Uiso   1.00
N594   N     0.72598   0.90001   0.35128   0.00000  Uiso   1.00
N595   N     0.70229   0.97240   0.71769   0.00000  Uiso   1.00
N596   N     0.55764   0.64242   0.51797   0.00000  Uiso   1.00
N597   N     0.73712   0.74203   0.36364   0.00000  Uiso   1.00
N598   N     0.71344   0.81442   0.73005   0.00000  Uiso   1.00
C599   C     0.36064   0.63941   0.51704   0.00000  Uiso   1.00
C600   C     0.38446   0.71549   0.53485   0.00000  Uiso   1.00
C601   C     0.41497   0.71233   0.52107   0.00000  Uiso   1.00
C602   C     0.43305   0.78898   0.54144   0.00000  Uiso   1.00
C603   C     0.47186   0.89543   0.56406   0.00000  Uiso   1.00
C604   C     0.33607   0.69845   0.48668   0.00000  Uiso   1.00
C605   C     0.32590   0.68095   0.43241   0.00000  Uiso   1.00
C606   C     0.30325   0.74325   0.41225   0.00000  Uiso   1.00
C607   C     0.26692   0.82320   0.36011   0.00000  Uiso   1.00
C608   C     0.34622   0.60141   0.57116   0.00000  Uiso   1.00
C609   C     0.34456   0.50233   0.58791   0.00000  Uiso   1.00
C610   C     0.33045   0.48292   0.63887   0.00000  Uiso   1.00
C611   C     0.30988   0.41221   0.71789   0.00000  Uiso   1.00
C612   C     0.33850   0.78114   0.57772   0.00000  Uiso   1.00
C613   C     0.37243   0.79247   0.56781   0.00000  Uiso   1.00
C614   C     0.39048   0.86914   0.58821   0.00000  Uiso   1.00
C615   C     0.42101   0.86610   0.57447   0.00000  Uiso   1.00
C616   C     0.32405   0.77543   0.51964   0.00000  Uiso   1.00
C617   C     0.30141   0.83776   0.49955   0.00000  Uiso   1.00
C618   C     0.29120   0.82037   0.44527   0.00000  Uiso   1.00
C619   C     0.33419   0.67840   0.60412   0.00000  Uiso   1.00
C620   C     0.32007   0.65914   0.65505   0.00000  Uiso   1.00
C621   C     0.31840   0.56004   0.67189   0.00000  Uiso   1.00
H622   H     0.37000   0.57948   0.49137   0.00000  Uiso   1.00
H623   H     0.42426   0.65275   0.49556   0.00000  Uiso   1.00
H624   H     0.33520   0.62137   0.40692   0.00000  Uiso   1.00
H625   H     0.35387   0.44278   0.56240   0.00000  Uiso   1.00
H626   H     0.47912   0.76796   0.51472   0.00000  Uiso   1.00
H627   H     0.29133   0.70177   0.32783   0.00000  Uiso   1.00
H628   H     0.33069   0.32516   0.65568   0.00000  Uiso   1.00
H629   H     0.32914   0.84107   0.60338   0.00000  Uiso   1.00
H630   H     0.38116   0.92871   0.61371   0.00000  Uiso   1.00
H631   H     0.29210   0.89732   0.52507   0.00000  Uiso   1.00
H632   H     0.31077   0.71873   0.68055   0.00000  Uiso   1.00
H633   H     0.44414   0.99194   0.61061   0.00000  Uiso   1.00
H634   H     0.25635   0.92574   0.42372   0.00000  Uiso   1.00
H635   H     0.29571   0.54914   0.75158   0.00000  Uiso   1.00
O636   O     0.49659   0.93289   0.56743   0.00000  Uiso   1.00
O637   O     0.25021   0.84604   0.32224   0.00000  Uiso   1.00
O638   O     0.30185   0.35195   0.75237   0.00000  Uiso   1.00
N639   N     0.46375   0.80863   0.53588   0.00000  Uiso   1.00
N640   N     0.28818   0.74676   0.36114   0.00000  Uiso   1.00
N641   N     0.32497   0.39466   0.66765   0.00000  Uiso   1.00
N642   N     0.44493   0.92916   0.58748   0.00000  Uiso   1.00
N643   N     0.26936   0.86728   0.41274   0.00000  Uiso   1.00
N644   N     0.30615   0.51518   0.71925   0.00000  Uiso   1.00
C645   C     0.84274   0.59517   0.02380   0.00000  Uiso   1.00
C646   C     0.87055   0.66256   0.02181   0.00000  Uiso   1.00
C647   C     0.90013   0.63122   0.01325   0.00000  Uiso   1.00
C648   C     0.92238   0.70445   0.01287   0.00000  Uiso   1.00
C649   C     0.96663   0.79374   0.00856   0.00000  Uiso   1.00
C650   C     0.82108   0.63511   0.97927   0.00000  Uiso   1.00
C651   C     0.80908   0.58068   0.93495   0.00000  Uiso   1.00
C652   C     0.78968   0.63081   0.89875   0.00000  Uiso   1.00
C653   C     0.75712   0.67746   0.82842   0.00000  Uiso   1.00
C654   C     0.82761   0.61516   0.08026   0.00000  Uiso   1.00
C655   C     0.82109   0.54396   0.12084   0.00000  Uiso   1.00
C656   C     0.80718   0.57728   0.16966   0.00000  Uiso   1.00
C657   C     0.78477   0.59296   0.25613   0.00000  Uiso   1.00
C658   C     0.82963   0.78095   0.03833   0.00000  Uiso   1.00
C659   C     0.86342   0.76346   0.02971   0.00000  Uiso   1.00
C660   C     0.88563   0.83676   0.02933   0.00000  Uiso   1.00
C661   C     0.91524   0.80554   0.02078   0.00000  Uiso   1.00
C662   C     0.81396   0.73601   0.98716   0.00000  Uiso   1.00
C663   C     0.79457   0.78623   0.95103   0.00000  Uiso   1.00
C664   C     0.78254   0.73190   0.90666   0.00000  Uiso   1.00
C665   C     0.82049   0.71607   0.08815   0.00000  Uiso   1.00
C666   C     0.80659   0.74950   0.13692   0.00000  Uiso   1.00
C667   C     0.80005   0.67837   0.17757   0.00000  Uiso   1.00
H668   H     0.84828   0.51661   0.01765   0.00000  Uiso   1.00
H669   H     0.90563   0.55312   0.00714   0.00000  Uiso   1.00
H670   H     0.81459   0.50260   0.92885   0.00000  Uiso   1.00
H671   H     0.82661   0.46588   0.11472   0.00000  Uiso   1.00
H672   H     0.96608   0.63810   0.99896   0.00000  Uiso   1.00
H673   H     0.77409   0.53156   0.83389   0.00000  Uiso   1.00
H674   H     0.79943   0.45413   0.22582   0.00000  Uiso   1.00
H675   H     0.82408   0.85951   0.04448   0.00000  Uiso   1.00
H676   H     0.88011   0.91484   0.03544   0.00000  Uiso   1.00
H677   H     0.78906   0.86431   0.95715   0.00000  Uiso   1.00
H678   H     0.80108   0.82760   0.14302   0.00000  Uiso   1.00
H679   H     0.94536   0.93169   0.02192   0.00000  Uiso   1.00
H680   H     0.75337   0.82514   0.85686   0.00000  Uiso   1.00
H681   H     0.77871   0.74772   0.24879   0.00000  Uiso   1.00
O682   O     0.99301   0.81511   0.00400   0.00000  Uiso   1.00
O683   O     0.74113   0.67532   0.78744   0.00000  Uiso   1.00
O684   O     0.77437   0.57374   0.30164   0.00000  Uiso   1.00
N685   N     0.95351   0.69961   0.00561   0.00000  Uiso   1.00
N686   N     0.77402   0.59999   0.85128   0.00000  Uiso   1.00
N687   N     0.79771   0.52760   0.21769   0.00000  Uiso   1.00
N688   N     0.94236   0.85758   0.01797   0.00000  Uiso   1.00
N689   N     0.76288   0.75797   0.86364   0.00000  Uiso   1.00
N690   N     0.78656   0.68558   0.23005   0.00000  Uiso   1.00
C691   C     0.13936   0.86059   0.01704   0.00000  Uiso   1.00
C692   C     0.11554   0.78451   0.03485   0.00000  Uiso   1.00
C693   C     0.08503   0.78767   0.02107   0.00000  Uiso   1.00
C694   C     0.06695   0.71102   0.04144   0.00000  Uiso   1.00
C695   C     0.02814   0.60457   0.06406   0.00000  Uiso   1.00
C696   C     0.16393   0.80155   0.98668   0.00000  Uiso   1.00
C697   C     0.17410   0.81905   0.93241   0.00000  Uiso   1.00
C698   C     0.19675   0.75675   0.91225   0.00000  Uiso   1.00
C699   C     0.23308   0.67680   0.86011   0.00000  Uiso   1.00
C700   C     0.15378   0.89859   0.07116   0.00000  Uiso   1.00
C701   C     0.15544   0.99767   0.08791   0.00000  Uiso   1.00
C702   C     0.16955   0.01708   0.13887   0.00000  Uiso   1.00
C703   C     0.19012   0.08779   0.21789   0.00000  Uiso   1.00
C704   C     0.16150   0.71886   0.07772   0.00000  Uiso   1.00
C705   C     0.12757   0.70753   0.06781   0.00000  Uiso   1.00
C706   C     0.10952   0.63086   0.08821   0.00000  Uiso   1.00
C707   C     0.07899   0.63390   0.07447   0.00000  Uiso   1.00
C708   C     0.17595   0.72457   0.01964   0.00000  Uiso   1.00
C709   C     0.19859   0.66224   0.99955   0.00000  Uiso   1.00
C710   C     0.20880   0.67963   0.94527   0.00000  Uiso   1.00
C711   C     0.16581   0.82160   0.10412   0.00000  Uiso   1.00
C712   C     0.17993   0.84086   0.15505   0.00000  Uiso   1.00
C713   C     0.18160   0.93996   0.17189   0.00000  Uiso   1.00
H714   H     0.13000   0.92052   0.99137   0.00000  Uiso   1.00
H715   H     0.07574   0.84725   0.99556   0.00000  Uiso   1.00
H716   H     0.16480   0.87863   0.90692   0.00000  Uiso   1.00
H717   H     0.14613   0.05722   0.06240   0.00000  Uiso   1.00
H718   H     0.02088   0.73204   0.01472   0.00000  Uiso   1.00
H719   H     0.20867   0.79823   0.82783   0.00000  Uiso   1.00
H720   H     0.16931   0.17484   0.15568   0.00000  Uiso   1.00
H721   H     0.17086   0.65893   0.10338   0.00000  Uiso   1.00
H722   H     0.11884   0.57129   0.11371   0.00000  Uiso   1.00
H723   H     0.20790   0.60268   0.02507   0.00000  Uiso   1.00
H724   H     0.18923   0.78127   0.18055   0.00000  Uiso   1.00
H725   H     0.05586   0.50806   0.11061   0.00000  Uiso   1.00
H726   H     0.24365   0.57426   0.92372   0.00000  Uiso   1.00
H727   H     0.20429   0.95086   0.25158   0.00000  Uiso   1.00
O728   O     0.00341   0.56711   0.06743   0.00000  Uiso   1.00
O729   O     0.24979   0.65396   0.82224   0.00000  Uiso   1.00
O730   O     0.19815   0.14805   0.25237   0.00000  Uiso   1.00
N731   N     0.03625   0.69137   0.03588   0.00000  Uiso   1.00
N732   N     0.21182   0.75324   0.86114   0.00000  Uiso   1.00
N733   N     0.17503   0.10534   0.16765   0.00000  Uiso   1.00
N734   N     0.05507   0.57084   0.08748   0.00000  Uiso   1.00
N735   N     0.23064   0.63272   0.91274   0.00000  Uiso   1.00
N736   N     0.19385   0.98482   0.21925   0.00000  Uiso   1.00
