data_job_01604
_audit_creation_date              2018-12-19
_audit_creation_method            'Materials Studio'
_symmetry_space_group_name_H-M    'P1'
_symmetry_Int_Tables_number       1
_symmetry_cell_setting            triclinic
loop_
_symmetry_equiv_pos_as_xyz
  x,y,z
_cell_length_a                    21.4777
_cell_length_b                    26.9977
_cell_length_c                    18.5073
_cell_angle_alpha                 90.0000
_cell_angle_beta                  90.0000
_cell_angle_gamma                 90.0000
loop_
_atom_site_label
_atom_site_type_symbol
_atom_site_fract_x
_atom_site_fract_y
_atom_site_fract_z
_atom_site_U_iso_or_equiv
_atom_site_adp_type
_atom_site_occupancy
C1     C     0.25406   0.17770   0.87020   0.00000  Uiso   1.00
C2     C     0.22731   0.13578   0.82452   0.00000  Uiso   1.00
C3     C     0.19740   0.14119   0.75852   0.00000  Uiso   1.00
C4     C     0.17627   0.09828   0.72525   0.00000  Uiso   1.00
C5     C     0.13342   0.04028   0.64953   0.00000  Uiso   1.00
C6     C     0.22307   0.17341   0.94406   0.00000  Uiso   1.00
C7     C     0.18959   0.21047   0.97858   0.00000  Uiso   1.00
C8     C     0.16489   0.19923   0.04594   0.00000  Uiso   1.00
C9     C     0.11549   0.19967   0.15584   0.00000  Uiso   1.00
C10    C     0.32252   0.16508   0.88193   0.00000  Uiso   1.00
C11    C     0.37267   0.19514   0.86423   0.00000  Uiso   1.00
C12    C     0.43170   0.17689   0.87930   0.00000  Uiso   1.00
C13    C     0.53670   0.16439   0.89273   0.00000  Uiso   1.00
C14    C     0.26972   0.09185   0.92846   0.00000  Uiso   1.00
C15    C     0.23582   0.08915   0.85617   0.00000  Uiso   1.00
C16    C     0.21473   0.04621   0.82298   0.00000  Uiso   1.00
C17    C     0.18479   0.05156   0.75695   0.00000  Uiso   1.00
C18    C     0.23157   0.12678   0.97571   0.00000  Uiso   1.00
C19    C     0.20692   0.11549   0.04304   0.00000  Uiso   1.00
C20    C     0.17341   0.15252   0.07765   0.00000  Uiso   1.00
C21    C     0.33102   0.11845   0.91358   0.00000  Uiso   1.00
C22    C     0.38999   0.10015   0.92869   0.00000  Uiso   1.00
C23    C     0.44022   0.13018   0.91101   0.00000  Uiso   1.00
H24    H     0.24743   0.21400   0.84556   0.00000  Uiso   1.00
H25    H     0.19083   0.17729   0.73406   0.00000  Uiso   1.00
H26    H     0.18302   0.24655   0.95408   0.00000  Uiso   1.00
H27    H     0.36606   0.23122   0.83974   0.00000  Uiso   1.00
H28    H     0.13180   0.11602   0.62440   0.00000  Uiso   1.00
H29    H     0.11536   0.26208   0.08834   0.00000  Uiso   1.00
H30    H     0.50134   0.22975   0.84725   0.00000  Uiso   1.00
H31    H     0.27634   0.05554   0.95310   0.00000  Uiso   1.00
H32    H     0.22132   0.01013   0.84749   0.00000  Uiso   1.00
H33    H     0.21351   0.07940   0.06751   0.00000  Uiso   1.00
H34    H     0.39655   0.06407   0.95318   0.00000  Uiso   1.00
H35    H     0.15654   0.98035   0.71646   0.00000  Uiso   1.00
H36    H     0.14011   0.12641   0.18041   0.00000  Uiso   1.00
H37    H     0.52609   0.09408   0.93931   0.00000  Uiso   1.00
O38    O     0.10743   0.02117   0.59903   0.00000  Uiso   1.00
O39    O     0.08588   0.21280   0.20771   0.00000  Uiso   1.00
O40    O     0.59228   0.17038   0.89139   0.00000  Uiso   1.00
N41    N     0.14518   0.09032   0.66055   0.00000  Uiso   1.00
N42    N     0.12981   0.22687   0.09431   0.00000  Uiso   1.00
N43    N     0.49067   0.19665   0.86892   0.00000  Uiso   1.00
N44    N     0.15850   0.01732   0.71009   0.00000  Uiso   1.00
N45    N     0.14312   0.15387   0.14385   0.00000  Uiso   1.00
N46    N     0.50398   0.12365   0.91846   0.00000  Uiso   1.00
C47    C     0.75406   0.67770   0.87020   0.00000  Uiso   1.00
C48    C     0.72731   0.63578   0.82452   0.00000  Uiso   1.00
C49    C     0.69740   0.64119   0.75852   0.00000  Uiso   1.00
C50    C     0.67627   0.59828   0.72525   0.00000  Uiso   1.00
C51    C     0.63342   0.54028   0.64953   0.00000  Uiso   1.00
C52    C     0.72307   0.67341   0.94406   0.00000  Uiso   1.00
C53    C     0.68959   0.71047   0.97858   0.00000  Uiso   1.00
C54    C     0.66489   0.69923   0.04594   0.00000  Uiso   1.00
C55    C     0.61549   0.69967   0.15584   0.00000  Uiso   1.00
C56    C     0.82252   0.66508   0.88193   0.00000  Uiso   1.00
C57    C     0.87267   0.69514   0.86423   0.00000  Uiso   1.00
C58    C     0.93170   0.67689   0.87930   0.00000  Uiso   1.00
C59    C     0.03670   0.66439   0.89273   0.00000  Uiso   1.00
C60    C     0.76972   0.59185   0.92846   0.00000  Uiso   1.00
C61    C     0.73582   0.58915   0.85617   0.00000  Uiso   1.00
C62    C     0.71473   0.54621   0.82298   0.00000  Uiso   1.00
C63    C     0.68479   0.55156   0.75695   0.00000  Uiso   1.00
C64    C     0.73157   0.62678   0.97571   0.00000  Uiso   1.00
C65    C     0.70692   0.61549   0.04304   0.00000  Uiso   1.00
C66    C     0.67341   0.65252   0.07765   0.00000  Uiso   1.00
C67    C     0.83102   0.61845   0.91358   0.00000  Uiso   1.00
C68    C     0.88999   0.60015   0.92869   0.00000  Uiso   1.00
C69    C     0.94022   0.63018   0.91101   0.00000  Uiso   1.00
H70    H     0.74743   0.71400   0.84556   0.00000  Uiso   1.00
H71    H     0.69083   0.67729   0.73406   0.00000  Uiso   1.00
H72    H     0.68302   0.74655   0.95408   0.00000  Uiso   1.00
H73    H     0.86606   0.73122   0.83974   0.00000  Uiso   1.00
H74    H     0.63180   0.61602   0.62440   0.00000  Uiso   1.00
H75    H     0.61536   0.76208   0.08834   0.00000  Uiso   1.00
H76    H     0.00134   0.72975   0.84725   0.00000  Uiso   1.00
H77    H     0.77634   0.55554   0.95310   0.00000  Uiso   1.00
H78    H     0.72132   0.51013   0.84749   0.00000  Uiso   1.00
H79    H     0.71351   0.57940   0.06751   0.00000  Uiso   1.00
H80    H     0.89655   0.56407   0.95318   0.00000  Uiso   1.00
H81    H     0.65654   0.48035   0.71646   0.00000  Uiso   1.00
H82    H     0.64011   0.62641   0.18041   0.00000  Uiso   1.00
H83    H     0.02609   0.59408   0.93931   0.00000  Uiso   1.00
O84    O     0.60743   0.52117   0.59903   0.00000  Uiso   1.00
O85    O     0.58588   0.71280   0.20771   0.00000  Uiso   1.00
O86    O     0.09228   0.67038   0.89139   0.00000  Uiso   1.00
N87    N     0.64518   0.59032   0.66055   0.00000  Uiso   1.00
N88    N     0.62981   0.72687   0.09431   0.00000  Uiso   1.00
N89    N     0.99067   0.69665   0.86892   0.00000  Uiso   1.00
N90    N     0.65850   0.51732   0.71009   0.00000  Uiso   1.00
N91    N     0.64312   0.65387   0.14385   0.00000  Uiso   1.00
N92    N     0.00398   0.62365   0.91846   0.00000  Uiso   1.00
C93    C     0.24594   0.32230   0.87020   0.00000  Uiso   1.00
C94    C     0.27269   0.36422   0.82452   0.00000  Uiso   1.00
C95    C     0.30260   0.35881   0.75852   0.00000  Uiso   1.00
C96    C     0.32373   0.40172   0.72525   0.00000  Uiso   1.00
C97    C     0.36658   0.45972   0.64953   0.00000  Uiso   1.00
C98    C     0.27693   0.32659   0.94406   0.00000  Uiso   1.00
C99    C     0.31041   0.28953   0.97858   0.00000  Uiso   1.00
C100   C     0.33511   0.30077   0.04594   0.00000  Uiso   1.00
C101   C     0.38451   0.30033   0.15584   0.00000  Uiso   1.00
C102   C     0.17748   0.33492   0.88193   0.00000  Uiso   1.00
C103   C     0.12733   0.30486   0.86423   0.00000  Uiso   1.00
C104   C     0.06830   0.32311   0.87930   0.00000  Uiso   1.00
C105   C     0.96330   0.33561   0.89273   0.00000  Uiso   1.00
C106   C     0.23028   0.40815   0.92846   0.00000  Uiso   1.00
C107   C     0.26418   0.41085   0.85617   0.00000  Uiso   1.00
C108   C     0.28527   0.45379   0.82298   0.00000  Uiso   1.00
C109   C     0.31521   0.44844   0.75695   0.00000  Uiso   1.00
C110   C     0.26843   0.37322   0.97571   0.00000  Uiso   1.00
C111   C     0.29308   0.38451   0.04304   0.00000  Uiso   1.00
C112   C     0.32659   0.34748   0.07765   0.00000  Uiso   1.00
C113   C     0.16898   0.38155   0.91358   0.00000  Uiso   1.00
C114   C     0.11001   0.39985   0.92869   0.00000  Uiso   1.00
C115   C     0.05978   0.36982   0.91101   0.00000  Uiso   1.00
H116   H     0.25257   0.28600   0.84556   0.00000  Uiso   1.00
H117   H     0.30917   0.32271   0.73406   0.00000  Uiso   1.00
H118   H     0.31698   0.25345   0.95408   0.00000  Uiso   1.00
H119   H     0.13394   0.26878   0.83974   0.00000  Uiso   1.00
H120   H     0.36820   0.38398   0.62440   0.00000  Uiso   1.00
H121   H     0.38464   0.23792   0.08834   0.00000  Uiso   1.00
H122   H     0.99866   0.27025   0.84725   0.00000  Uiso   1.00
H123   H     0.22366   0.44446   0.95310   0.00000  Uiso   1.00
H124   H     0.27868   0.48987   0.84749   0.00000  Uiso   1.00
H125   H     0.28649   0.42060   0.06751   0.00000  Uiso   1.00
H126   H     0.10345   0.43593   0.95318   0.00000  Uiso   1.00
H127   H     0.34346   0.51965   0.71646   0.00000  Uiso   1.00
H128   H     0.35989   0.37359   0.18041   0.00000  Uiso   1.00
H129   H     0.97391   0.40592   0.93931   0.00000  Uiso   1.00
O130   O     0.39257   0.47883   0.59903   0.00000  Uiso   1.00
O131   O     0.41412   0.28720   0.20771   0.00000  Uiso   1.00
O132   O     0.90772   0.32962   0.89139   0.00000  Uiso   1.00
N133   N     0.35482   0.40968   0.66055   0.00000  Uiso   1.00
N134   N     0.37019   0.27313   0.09431   0.00000  Uiso   1.00
N135   N     0.00933   0.30335   0.86892   0.00000  Uiso   1.00
N136   N     0.34150   0.48268   0.71009   0.00000  Uiso   1.00
N137   N     0.35688   0.34613   0.14385   0.00000  Uiso   1.00
N138   N     0.99602   0.37635   0.91846   0.00000  Uiso   1.00
C139   C     0.74594   0.82230   0.87020   0.00000  Uiso   1.00
C140   C     0.77269   0.86422   0.82452   0.00000  Uiso   1.00
C141   C     0.80260   0.85881   0.75852   0.00000  Uiso   1.00
C142   C     0.82373   0.90172   0.72525   0.00000  Uiso   1.00
C143   C     0.86658   0.95972   0.64953   0.00000  Uiso   1.00
C144   C     0.77693   0.82659   0.94406   0.00000  Uiso   1.00
C145   C     0.81041   0.78953   0.97858   0.00000  Uiso   1.00
C146   C     0.83511   0.80077   0.04594   0.00000  Uiso   1.00
C147   C     0.88451   0.80033   0.15584   0.00000  Uiso   1.00
C148   C     0.67748   0.83492   0.88193   0.00000  Uiso   1.00
C149   C     0.62733   0.80486   0.86423   0.00000  Uiso   1.00
C150   C     0.56830   0.82311   0.87930   0.00000  Uiso   1.00
C151   C     0.46330   0.83561   0.89273   0.00000  Uiso   1.00
C152   C     0.73028   0.90815   0.92846   0.00000  Uiso   1.00
C153   C     0.76418   0.91085   0.85617   0.00000  Uiso   1.00
C154   C     0.78527   0.95379   0.82298   0.00000  Uiso   1.00
C155   C     0.81521   0.94844   0.75695   0.00000  Uiso   1.00
C156   C     0.76843   0.87322   0.97571   0.00000  Uiso   1.00
C157   C     0.79308   0.88451   0.04304   0.00000  Uiso   1.00
C158   C     0.82659   0.84748   0.07765   0.00000  Uiso   1.00
C159   C     0.66898   0.88155   0.91358   0.00000  Uiso   1.00
C160   C     0.61001   0.89985   0.92869   0.00000  Uiso   1.00
C161   C     0.55978   0.86982   0.91101   0.00000  Uiso   1.00
H162   H     0.75257   0.78600   0.84556   0.00000  Uiso   1.00
H163   H     0.80917   0.82271   0.73406   0.00000  Uiso   1.00
H164   H     0.81698   0.75345   0.95408   0.00000  Uiso   1.00
H165   H     0.63394   0.76878   0.83974   0.00000  Uiso   1.00
H166   H     0.86820   0.88398   0.62440   0.00000  Uiso   1.00
H167   H     0.88464   0.73792   0.08834   0.00000  Uiso   1.00
H168   H     0.49866   0.77025   0.84725   0.00000  Uiso   1.00
H169   H     0.72366   0.94446   0.95310   0.00000  Uiso   1.00
H170   H     0.77868   0.98987   0.84749   0.00000  Uiso   1.00
H171   H     0.78649   0.92060   0.06751   0.00000  Uiso   1.00
H172   H     0.60345   0.93593   0.95318   0.00000  Uiso   1.00
H173   H     0.84346   0.01965   0.71646   0.00000  Uiso   1.00
H174   H     0.85989   0.87359   0.18041   0.00000  Uiso   1.00
H175   H     0.47391   0.90592   0.93931   0.00000  Uiso   1.00
O176   O     0.89257   0.97883   0.59903   0.00000  Uiso   1.00
O177   O     0.91412   0.78720   0.20771   0.00000  Uiso   1.00
O178   O     0.40772   0.82962   0.89139   0.00000  Uiso   1.00
N179   N     0.85482   0.90968   0.66055   0.00000  Uiso   1.00
N180   N     0.87019   0.77313   0.09431   0.00000  Uiso   1.00
N181   N     0.50933   0.80335   0.86892   0.00000  Uiso   1.00
N182   N     0.84150   0.98268   0.71009   0.00000  Uiso   1.00
N183   N     0.85688   0.84613   0.14385   0.00000  Uiso   1.00
N184   N     0.49602   0.87635   0.91846   0.00000  Uiso   1.00
C185   C     0.74594   0.17770   0.12980   0.00000  Uiso   1.00
C186   C     0.77269   0.13578   0.17548   0.00000  Uiso   1.00
C187   C     0.80260   0.14119   0.24148   0.00000  Uiso   1.00
C188   C     0.82373   0.09828   0.27475   0.00000  Uiso   1.00
C189   C     0.86658   0.04028   0.35047   0.00000  Uiso   1.00
C190   C     0.77693   0.17341   0.05594   0.00000  Uiso   1.00
C191   C     0.81041   0.21047   0.02142   0.00000  Uiso   1.00
C192   C     0.83511   0.19923   0.95406   0.00000  Uiso   1.00
C193   C     0.88451   0.19967   0.84416   0.00000  Uiso   1.00
C194   C     0.67748   0.16508   0.11807   0.00000  Uiso   1.00
C195   C     0.62733   0.19514   0.13577   0.00000  Uiso   1.00
C196   C     0.56830   0.17689   0.12070   0.00000  Uiso   1.00
C197   C     0.46330   0.16439   0.10727   0.00000  Uiso   1.00
C198   C     0.73028   0.09185   0.07154   0.00000  Uiso   1.00
C199   C     0.76418   0.08915   0.14383   0.00000  Uiso   1.00
C200   C     0.78527   0.04621   0.17702   0.00000  Uiso   1.00
C201   C     0.81521   0.05156   0.24305   0.00000  Uiso   1.00
C202   C     0.76843   0.12678   0.02429   0.00000  Uiso   1.00
C203   C     0.79308   0.11549   0.95696   0.00000  Uiso   1.00
C204   C     0.82659   0.15252   0.92235   0.00000  Uiso   1.00
C205   C     0.66898   0.11845   0.08642   0.00000  Uiso   1.00
C206   C     0.61001   0.10015   0.07131   0.00000  Uiso   1.00
C207   C     0.55978   0.13018   0.08899   0.00000  Uiso   1.00
H208   H     0.75257   0.21400   0.15444   0.00000  Uiso   1.00
H209   H     0.80917   0.17729   0.26594   0.00000  Uiso   1.00
H210   H     0.81698   0.24655   0.04592   0.00000  Uiso   1.00
H211   H     0.63394   0.23122   0.16026   0.00000  Uiso   1.00
H212   H     0.86820   0.11602   0.37560   0.00000  Uiso   1.00
H213   H     0.88464   0.26208   0.91166   0.00000  Uiso   1.00
H214   H     0.49866   0.22975   0.15275   0.00000  Uiso   1.00
H215   H     0.72366   0.05554   0.04690   0.00000  Uiso   1.00
H216   H     0.77868   0.01013   0.15251   0.00000  Uiso   1.00
H217   H     0.78649   0.07940   0.93249   0.00000  Uiso   1.00
H218   H     0.60345   0.06407   0.04682   0.00000  Uiso   1.00
H219   H     0.84346   0.98035   0.28354   0.00000  Uiso   1.00
H220   H     0.85989   0.12641   0.81959   0.00000  Uiso   1.00
H221   H     0.47391   0.09408   0.06069   0.00000  Uiso   1.00
O222   O     0.89257   0.02117   0.40097   0.00000  Uiso   1.00
O223   O     0.91412   0.21280   0.79229   0.00000  Uiso   1.00
O224   O     0.40772   0.17038   0.10861   0.00000  Uiso   1.00
N225   N     0.85482   0.09032   0.33945   0.00000  Uiso   1.00
N226   N     0.87019   0.22687   0.90569   0.00000  Uiso   1.00
N227   N     0.50933   0.19665   0.13108   0.00000  Uiso   1.00
N228   N     0.84150   0.01732   0.28991   0.00000  Uiso   1.00
N229   N     0.85688   0.15387   0.85615   0.00000  Uiso   1.00
N230   N     0.49602   0.12365   0.08154   0.00000  Uiso   1.00
C231   C     0.24594   0.67770   0.12980   0.00000  Uiso   1.00
C232   C     0.27269   0.63578   0.17548   0.00000  Uiso   1.00
C233   C     0.30260   0.64119   0.24148   0.00000  Uiso   1.00
C234   C     0.32373   0.59828   0.27475   0.00000  Uiso   1.00
C235   C     0.36658   0.54028   0.35047   0.00000  Uiso   1.00
C236   C     0.27693   0.67341   0.05594   0.00000  Uiso   1.00
C237   C     0.31041   0.71047   0.02142   0.00000  Uiso   1.00
C238   C     0.33511   0.69923   0.95406   0.00000  Uiso   1.00
C239   C     0.38451   0.69967   0.84416   0.00000  Uiso   1.00
C240   C     0.17748   0.66508   0.11807   0.00000  Uiso   1.00
C241   C     0.12733   0.69514   0.13577   0.00000  Uiso   1.00
C242   C     0.06830   0.67689   0.12070   0.00000  Uiso   1.00
C243   C     0.96330   0.66439   0.10727   0.00000  Uiso   1.00
C244   C     0.23028   0.59185   0.07154   0.00000  Uiso   1.00
C245   C     0.26418   0.58915   0.14383   0.00000  Uiso   1.00
C246   C     0.28527   0.54621   0.17702   0.00000  Uiso   1.00
C247   C     0.31521   0.55156   0.24305   0.00000  Uiso   1.00
C248   C     0.26843   0.62678   0.02429   0.00000  Uiso   1.00
C249   C     0.29308   0.61549   0.95696   0.00000  Uiso   1.00
C250   C     0.32659   0.65252   0.92235   0.00000  Uiso   1.00
C251   C     0.16898   0.61845   0.08642   0.00000  Uiso   1.00
C252   C     0.11001   0.60015   0.07131   0.00000  Uiso   1.00
C253   C     0.05978   0.63018   0.08899   0.00000  Uiso   1.00
H254   H     0.25257   0.71400   0.15444   0.00000  Uiso   1.00
H255   H     0.30917   0.67729   0.26594   0.00000  Uiso   1.00
H256   H     0.31698   0.74655   0.04592   0.00000  Uiso   1.00
H257   H     0.13394   0.73122   0.16026   0.00000  Uiso   1.00
H258   H     0.36820   0.61602   0.37560   0.00000  Uiso   1.00
H259   H     0.38464   0.76208   0.91166   0.00000  Uiso   1.00
H260   H     0.99866   0.72975   0.15275   0.00000  Uiso   1.00
H261   H     0.22366   0.55554   0.04690   0.00000  Uiso   1.00
H262   H     0.27868   0.51013   0.15251   0.00000  Uiso   1.00
H263   H     0.28649   0.57940   0.93249   0.00000  Uiso   1.00
H264   H     0.10345   0.56407   0.04682   0.00000  Uiso   1.00
H265   H     0.34346   0.48035   0.28354   0.00000  Uiso   1.00
H266   H     0.35989   0.62641   0.81959   0.00000  Uiso   1.00
H267   H     0.97391   0.59408   0.06069   0.00000  Uiso   1.00
O268   O     0.39257   0.52117   0.40097   0.00000  Uiso   1.00
O269   O     0.41412   0.71280   0.79229   0.00000  Uiso   1.00
O270   O     0.90772   0.67038   0.10861   0.00000  Uiso   1.00
N271   N     0.35482   0.59032   0.33945   0.00000  Uiso   1.00
N272   N     0.37019   0.72687   0.90569   0.00000  Uiso   1.00
N273   N     0.00933   0.69665   0.13108   0.00000  Uiso   1.00
N274   N     0.34150   0.51732   0.28991   0.00000  Uiso   1.00
N275   N     0.35688   0.65387   0.85615   0.00000  Uiso   1.00
N276   N     0.99602   0.62365   0.08154   0.00000  Uiso   1.00
C277   C     0.75406   0.32230   0.12980   0.00000  Uiso   1.00
C278   C     0.72731   0.36422   0.17548   0.00000  Uiso   1.00
C279   C     0.69740   0.35881   0.24148   0.00000  Uiso   1.00
C280   C     0.67627   0.40172   0.27475   0.00000  Uiso   1.00
C281   C     0.63342   0.45972   0.35047   0.00000  Uiso   1.00
C282   C     0.72307   0.32659   0.05594   0.00000  Uiso   1.00
C283   C     0.68959   0.28953   0.02142   0.00000  Uiso   1.00
C284   C     0.66489   0.30077   0.95406   0.00000  Uiso   1.00
C285   C     0.61549   0.30033   0.84416   0.00000  Uiso   1.00
C286   C     0.82252   0.33492   0.11807   0.00000  Uiso   1.00
C287   C     0.87267   0.30486   0.13577   0.00000  Uiso   1.00
C288   C     0.93170   0.32311   0.12070   0.00000  Uiso   1.00
C289   C     0.03670   0.33561   0.10727   0.00000  Uiso   1.00
C290   C     0.76972   0.40815   0.07154   0.00000  Uiso   1.00
C291   C     0.73582   0.41085   0.14383   0.00000  Uiso   1.00
C292   C     0.71473   0.45379   0.17702   0.00000  Uiso   1.00
C293   C     0.68479   0.44844   0.24305   0.00000  Uiso   1.00
C294   C     0.73157   0.37322   0.02429   0.00000  Uiso   1.00
C295   C     0.70692   0.38451   0.95696   0.00000  Uiso   1.00
C296   C     0.67341   0.34748   0.92235   0.00000  Uiso   1.00
C297   C     0.83102   0.38155   0.08642   0.00000  Uiso   1.00
C298   C     0.88999   0.39985   0.07131   0.00000  Uiso   1.00
C299   C     0.94022   0.36982   0.08899   0.00000  Uiso   1.00
H300   H     0.74743   0.28600   0.15444   0.00000  Uiso   1.00
H301   H     0.69083   0.32271   0.26594   0.00000  Uiso   1.00
H302   H     0.68302   0.25345   0.04592   0.00000  Uiso   1.00
H303   H     0.86606   0.26878   0.16026   0.00000  Uiso   1.00
H304   H     0.63180   0.38398   0.37560   0.00000  Uiso   1.00
H305   H     0.61536   0.23792   0.91166   0.00000  Uiso   1.00
H306   H     0.00134   0.27025   0.15275   0.00000  Uiso   1.00
H307   H     0.77634   0.44446   0.04690   0.00000  Uiso   1.00
H308   H     0.72132   0.48987   0.15251   0.00000  Uiso   1.00
H309   H     0.71351   0.42060   0.93249   0.00000  Uiso   1.00
H310   H     0.89655   0.43593   0.04682   0.00000  Uiso   1.00
H311   H     0.65654   0.51965   0.28354   0.00000  Uiso   1.00
H312   H     0.64011   0.37359   0.81959   0.00000  Uiso   1.00
H313   H     0.02609   0.40592   0.06069   0.00000  Uiso   1.00
O314   O     0.60743   0.47883   0.40097   0.00000  Uiso   1.00
O315   O     0.58588   0.28720   0.79229   0.00000  Uiso   1.00
O316   O     0.09228   0.32962   0.10861   0.00000  Uiso   1.00
N317   N     0.64518   0.40968   0.33945   0.00000  Uiso   1.00
N318   N     0.62981   0.27313   0.90569   0.00000  Uiso   1.00
N319   N     0.99067   0.30335   0.13108   0.00000  Uiso   1.00
N320   N     0.65850   0.48268   0.28991   0.00000  Uiso   1.00
N321   N     0.64312   0.34613   0.85615   0.00000  Uiso   1.00
N322   N     0.00398   0.37635   0.08154   0.00000  Uiso   1.00
C323   C     0.25406   0.82230   0.12980   0.00000  Uiso   1.00
C324   C     0.22731   0.86422   0.17548   0.00000  Uiso   1.00
C325   C     0.19740   0.85881   0.24148   0.00000  Uiso   1.00
C326   C     0.17627   0.90172   0.27475   0.00000  Uiso   1.00
C327   C     0.13342   0.95972   0.35047   0.00000  Uiso   1.00
C328   C     0.22307   0.82659   0.05594   0.00000  Uiso   1.00
C329   C     0.18959   0.78953   0.02142   0.00000  Uiso   1.00
C330   C     0.16489   0.80077   0.95406   0.00000  Uiso   1.00
C331   C     0.11549   0.80033   0.84416   0.00000  Uiso   1.00
C332   C     0.32252   0.83492   0.11807   0.00000  Uiso   1.00
C333   C     0.37267   0.80486   0.13577   0.00000  Uiso   1.00
C334   C     0.43170   0.82311   0.12070   0.00000  Uiso   1.00
C335   C     0.53670   0.83561   0.10727   0.00000  Uiso   1.00
C336   C     0.26972   0.90815   0.07154   0.00000  Uiso   1.00
C337   C     0.23582   0.91085   0.14383   0.00000  Uiso   1.00
C338   C     0.21473   0.95379   0.17702   0.00000  Uiso   1.00
C339   C     0.18479   0.94844   0.24305   0.00000  Uiso   1.00
C340   C     0.23157   0.87322   0.02429   0.00000  Uiso   1.00
C341   C     0.20692   0.88451   0.95696   0.00000  Uiso   1.00
C342   C     0.17341   0.84748   0.92235   0.00000  Uiso   1.00
C343   C     0.33102   0.88155   0.08642   0.00000  Uiso   1.00
C344   C     0.38999   0.89985   0.07131   0.00000  Uiso   1.00
C345   C     0.44022   0.86982   0.08899   0.00000  Uiso   1.00
H346   H     0.24743   0.78600   0.15444   0.00000  Uiso   1.00
H347   H     0.19083   0.82271   0.26594   0.00000  Uiso   1.00
H348   H     0.18302   0.75345   0.04592   0.00000  Uiso   1.00
H349   H     0.36606   0.76878   0.16026   0.00000  Uiso   1.00
H350   H     0.13180   0.88398   0.37560   0.00000  Uiso   1.00
H351   H     0.11536   0.73792   0.91166   0.00000  Uiso   1.00
H352   H     0.50134   0.77025   0.15275   0.00000  Uiso   1.00
H353   H     0.27634   0.94446   0.04690   0.00000  Uiso   1.00
H354   H     0.22132   0.98987   0.15251   0.00000  Uiso   1.00
H355   H     0.21351   0.92060   0.93249   0.00000  Uiso   1.00
H356   H     0.39655   0.93593   0.04682   0.00000  Uiso   1.00
H357   H     0.15654   0.01965   0.28354   0.00000  Uiso   1.00
H358   H     0.14011   0.87359   0.81959   0.00000  Uiso   1.00
H359   H     0.52609   0.90592   0.06069   0.00000  Uiso   1.00
O360   O     0.10743   0.97883   0.40097   0.00000  Uiso   1.00
O361   O     0.08588   0.78720   0.79229   0.00000  Uiso   1.00
O362   O     0.59228   0.82962   0.10861   0.00000  Uiso   1.00
N363   N     0.14518   0.90968   0.33945   0.00000  Uiso   1.00
N364   N     0.12981   0.77313   0.90569   0.00000  Uiso   1.00
N365   N     0.49067   0.80335   0.13108   0.00000  Uiso   1.00
N366   N     0.15850   0.98268   0.28991   0.00000  Uiso   1.00
N367   N     0.14312   0.84613   0.85615   0.00000  Uiso   1.00
N368   N     0.50398   0.87635   0.08154   0.00000  Uiso   1.00
C369   C     0.74594   0.32230   0.62980   0.00000  Uiso   1.00
C370   C     0.77269   0.36422   0.67548   0.00000  Uiso   1.00
C371   C     0.80260   0.35881   0.74148   0.00000  Uiso   1.00
C372   C     0.82373   0.40172   0.77475   0.00000  Uiso   1.00
C373   C     0.86658   0.45972   0.85047   0.00000  Uiso   1.00
C374   C     0.77693   0.32659   0.55594   0.00000  Uiso   1.00
C375   C     0.81041   0.28953   0.52142   0.00000  Uiso   1.00
C376   C     0.83511   0.30077   0.45406   0.00000  Uiso   1.00
C377   C     0.88451   0.30033   0.34416   0.00000  Uiso   1.00
C378   C     0.67748   0.33492   0.61807   0.00000  Uiso   1.00
C379   C     0.62733   0.30486   0.63577   0.00000  Uiso   1.00
C380   C     0.56830   0.32311   0.62070   0.00000  Uiso   1.00
C381   C     0.46330   0.33561   0.60727   0.00000  Uiso   1.00
C382   C     0.73028   0.40815   0.57154   0.00000  Uiso   1.00
C383   C     0.76418   0.41085   0.64383   0.00000  Uiso   1.00
C384   C     0.78527   0.45379   0.67702   0.00000  Uiso   1.00
C385   C     0.81521   0.44844   0.74305   0.00000  Uiso   1.00
C386   C     0.76843   0.37322   0.52429   0.00000  Uiso   1.00
C387   C     0.79308   0.38451   0.45696   0.00000  Uiso   1.00
C388   C     0.82659   0.34748   0.42235   0.00000  Uiso   1.00
C389   C     0.66898   0.38155   0.58642   0.00000  Uiso   1.00
C390   C     0.61001   0.39985   0.57131   0.00000  Uiso   1.00
C391   C     0.55978   0.36982   0.58899   0.00000  Uiso   1.00
H392   H     0.75257   0.28600   0.65444   0.00000  Uiso   1.00
H393   H     0.80917   0.32271   0.76594   0.00000  Uiso   1.00
H394   H     0.81698   0.25345   0.54592   0.00000  Uiso   1.00
H395   H     0.63394   0.26878   0.66026   0.00000  Uiso   1.00
H396   H     0.86820   0.38398   0.87560   0.00000  Uiso   1.00
H397   H     0.88464   0.23792   0.41166   0.00000  Uiso   1.00
H398   H     0.49866   0.27025   0.65275   0.00000  Uiso   1.00
H399   H     0.72366   0.44446   0.54690   0.00000  Uiso   1.00
H400   H     0.77868   0.48987   0.65251   0.00000  Uiso   1.00
H401   H     0.78649   0.42060   0.43249   0.00000  Uiso   1.00
H402   H     0.60345   0.43593   0.54682   0.00000  Uiso   1.00
H403   H     0.84346   0.51965   0.78354   0.00000  Uiso   1.00
H404   H     0.85989   0.37359   0.31959   0.00000  Uiso   1.00
H405   H     0.47391   0.40592   0.56069   0.00000  Uiso   1.00
O406   O     0.89257   0.47883   0.90097   0.00000  Uiso   1.00
O407   O     0.91412   0.28720   0.29229   0.00000  Uiso   1.00
O408   O     0.40772   0.32962   0.60861   0.00000  Uiso   1.00
N409   N     0.85482   0.40968   0.83945   0.00000  Uiso   1.00
N410   N     0.87019   0.27313   0.40569   0.00000  Uiso   1.00
N411   N     0.50933   0.30335   0.63108   0.00000  Uiso   1.00
N412   N     0.84150   0.48268   0.78991   0.00000  Uiso   1.00
N413   N     0.85688   0.34613   0.35615   0.00000  Uiso   1.00
N414   N     0.49602   0.37635   0.58154   0.00000  Uiso   1.00
C415   C     0.24594   0.82230   0.62980   0.00000  Uiso   1.00
C416   C     0.27269   0.86422   0.67548   0.00000  Uiso   1.00
C417   C     0.30260   0.85881   0.74148   0.00000  Uiso   1.00
C418   C     0.32373   0.90172   0.77475   0.00000  Uiso   1.00
C419   C     0.36658   0.95972   0.85047   0.00000  Uiso   1.00
C420   C     0.27693   0.82659   0.55594   0.00000  Uiso   1.00
C421   C     0.31041   0.78953   0.52142   0.00000  Uiso   1.00
C422   C     0.33511   0.80077   0.45406   0.00000  Uiso   1.00
C423   C     0.38451   0.80033   0.34416   0.00000  Uiso   1.00
C424   C     0.17748   0.83492   0.61807   0.00000  Uiso   1.00
C425   C     0.12733   0.80486   0.63577   0.00000  Uiso   1.00
C426   C     0.06830   0.82311   0.62070   0.00000  Uiso   1.00
C427   C     0.96330   0.83561   0.60727   0.00000  Uiso   1.00
C428   C     0.23028   0.90815   0.57154   0.00000  Uiso   1.00
C429   C     0.26418   0.91085   0.64383   0.00000  Uiso   1.00
C430   C     0.28527   0.95379   0.67702   0.00000  Uiso   1.00
C431   C     0.31521   0.94844   0.74305   0.00000  Uiso   1.00
C432   C     0.26843   0.87322   0.52429   0.00000  Uiso   1.00
C433   C     0.29308   0.88451   0.45696   0.00000  Uiso   1.00
C434   C     0.32659   0.84748   0.42235   0.00000  Uiso   1.00
C435   C     0.16898   0.88155   0.58642   0.00000  Uiso   1.00
C436   C     0.11001   0.89985   0.57131   0.00000  Uiso   1.00
C437   C     0.05978   0.86982   0.58899   0.00000  Uiso   1.00
H438   H     0.25257   0.78600   0.65444   0.00000  Uiso   1.00
H439   H     0.30917   0.82271   0.76594   0.00000  Uiso   1.00
H440   H     0.31698   0.75345   0.54592   0.00000  Uiso   1.00
H441   H     0.13394   0.76878   0.66026   0.00000  Uiso   1.00
H442   H     0.36820   0.88398   0.87560   0.00000  Uiso   1.00
H443   H     0.38464   0.73792   0.41166   0.00000  Uiso   1.00
H444   H     0.99866   0.77025   0.65275   0.00000  Uiso   1.00
H445   H     0.22366   0.94446   0.54690   0.00000  Uiso   1.00
H446   H     0.27868   0.98987   0.65251   0.00000  Uiso   1.00
H447   H     0.28649   0.92060   0.43249   0.00000  Uiso   1.00
H448   H     0.10345   0.93593   0.54682   0.00000  Uiso   1.00
H449   H     0.34346   0.01965   0.78354   0.00000  Uiso   1.00
H450   H     0.35989   0.87359   0.31959   0.00000  Uiso   1.00
H451   H     0.97391   0.90592   0.56069   0.00000  Uiso   1.00
O452   O     0.39257   0.97883   0.90097   0.00000  Uiso   1.00
O453   O     0.41412   0.78720   0.29229   0.00000  Uiso   1.00
O454   O     0.90772   0.82962   0.60861   0.00000  Uiso   1.00
N455   N     0.35482   0.90968   0.83945   0.00000  Uiso   1.00
N456   N     0.37019   0.77313   0.40569   0.00000  Uiso   1.00
N457   N     0.00933   0.80335   0.63108   0.00000  Uiso   1.00
N458   N     0.34150   0.98268   0.78991   0.00000  Uiso   1.00
N459   N     0.35688   0.84613   0.35615   0.00000  Uiso   1.00
N460   N     0.99602   0.87635   0.58154   0.00000  Uiso   1.00
C461   C     0.75406   0.17770   0.62980   0.00000  Uiso   1.00
C462   C     0.72731   0.13578   0.67548   0.00000  Uiso   1.00
C463   C     0.69740   0.14119   0.74148   0.00000  Uiso   1.00
C464   C     0.67627   0.09828   0.77475   0.00000  Uiso   1.00
C465   C     0.63342   0.04028   0.85047   0.00000  Uiso   1.00
C466   C     0.72307   0.17341   0.55594   0.00000  Uiso   1.00
C467   C     0.68959   0.21047   0.52142   0.00000  Uiso   1.00
C468   C     0.66489   0.19923   0.45406   0.00000  Uiso   1.00
C469   C     0.61549   0.19967   0.34416   0.00000  Uiso   1.00
C470   C     0.82252   0.16508   0.61807   0.00000  Uiso   1.00
C471   C     0.87267   0.19514   0.63577   0.00000  Uiso   1.00
C472   C     0.93170   0.17689   0.62070   0.00000  Uiso   1.00
C473   C     0.03670   0.16439   0.60727   0.00000  Uiso   1.00
C474   C     0.76972   0.09185   0.57154   0.00000  Uiso   1.00
C475   C     0.73582   0.08915   0.64383   0.00000  Uiso   1.00
C476   C     0.71473   0.04621   0.67702   0.00000  Uiso   1.00
C477   C     0.68479   0.05156   0.74305   0.00000  Uiso   1.00
C478   C     0.73157   0.12678   0.52429   0.00000  Uiso   1.00
C479   C     0.70692   0.11549   0.45696   0.00000  Uiso   1.00
C480   C     0.67341   0.15252   0.42235   0.00000  Uiso   1.00
C481   C     0.83102   0.11845   0.58642   0.00000  Uiso   1.00
C482   C     0.88999   0.10015   0.57131   0.00000  Uiso   1.00
C483   C     0.94022   0.13018   0.58899   0.00000  Uiso   1.00
H484   H     0.74743   0.21400   0.65444   0.00000  Uiso   1.00
H485   H     0.69083   0.17729   0.76594   0.00000  Uiso   1.00
H486   H     0.68302   0.24655   0.54592   0.00000  Uiso   1.00
H487   H     0.86606   0.23122   0.66026   0.00000  Uiso   1.00
H488   H     0.63180   0.11602   0.87560   0.00000  Uiso   1.00
H489   H     0.61536   0.26208   0.41166   0.00000  Uiso   1.00
H490   H     0.00134   0.22975   0.65275   0.00000  Uiso   1.00
H491   H     0.77634   0.05554   0.54690   0.00000  Uiso   1.00
H492   H     0.72132   0.01013   0.65251   0.00000  Uiso   1.00
H493   H     0.71351   0.07940   0.43249   0.00000  Uiso   1.00
H494   H     0.89655   0.06407   0.54682   0.00000  Uiso   1.00
H495   H     0.65654   0.98035   0.78354   0.00000  Uiso   1.00
H496   H     0.64011   0.12641   0.31959   0.00000  Uiso   1.00
H497   H     0.02609   0.09408   0.56069   0.00000  Uiso   1.00
O498   O     0.60743   0.02117   0.90097   0.00000  Uiso   1.00
O499   O     0.58588   0.21280   0.29229   0.00000  Uiso   1.00
O500   O     0.09228   0.17038   0.60861   0.00000  Uiso   1.00
N501   N     0.64518   0.09032   0.83945   0.00000  Uiso   1.00
N502   N     0.62981   0.22687   0.40569   0.00000  Uiso   1.00
N503   N     0.99067   0.19665   0.63108   0.00000  Uiso   1.00
N504   N     0.65850   0.01732   0.78991   0.00000  Uiso   1.00
N505   N     0.64312   0.15387   0.35615   0.00000  Uiso   1.00
N506   N     0.00398   0.12365   0.58154   0.00000  Uiso   1.00
C507   C     0.25406   0.67770   0.62980   0.00000  Uiso   1.00
C508   C     0.22731   0.63578   0.67548   0.00000  Uiso   1.00
C509   C     0.19740   0.64119   0.74148   0.00000  Uiso   1.00
C510   C     0.17627   0.59828   0.77475   0.00000  Uiso   1.00
C511   C     0.13342   0.54028   0.85047   0.00000  Uiso   1.00
C512   C     0.22307   0.67341   0.55594   0.00000  Uiso   1.00
C513   C     0.18959   0.71047   0.52142   0.00000  Uiso   1.00
C514   C     0.16489   0.69923   0.45406   0.00000  Uiso   1.00
C515   C     0.11549   0.69967   0.34416   0.00000  Uiso   1.00
C516   C     0.32252   0.66508   0.61807   0.00000  Uiso   1.00
C517   C     0.37267   0.69514   0.63577   0.00000  Uiso   1.00
C518   C     0.43170   0.67689   0.62070   0.00000  Uiso   1.00
C519   C     0.53670   0.66439   0.60727   0.00000  Uiso   1.00
C520   C     0.26972   0.59185   0.57154   0.00000  Uiso   1.00
C521   C     0.23582   0.58915   0.64383   0.00000  Uiso   1.00
C522   C     0.21473   0.54621   0.67702   0.00000  Uiso   1.00
C523   C     0.18479   0.55156   0.74305   0.00000  Uiso   1.00
C524   C     0.23157   0.62678   0.52429   0.00000  Uiso   1.00
C525   C     0.20692   0.61549   0.45696   0.00000  Uiso   1.00
C526   C     0.17341   0.65252   0.42235   0.00000  Uiso   1.00
C527   C     0.33102   0.61845   0.58642   0.00000  Uiso   1.00
C528   C     0.38999   0.60015   0.57131   0.00000  Uiso   1.00
C529   C     0.44022   0.63018   0.58899   0.00000  Uiso   1.00
H530   H     0.24743   0.71400   0.65444   0.00000  Uiso   1.00
H531   H     0.19083   0.67729   0.76594   0.00000  Uiso   1.00
H532   H     0.18302   0.74655   0.54592   0.00000  Uiso   1.00
H533   H     0.36606   0.73122   0.66026   0.00000  Uiso   1.00
H534   H     0.13180   0.61602   0.87560   0.00000  Uiso   1.00
H535   H     0.11536   0.76208   0.41166   0.00000  Uiso   1.00
H536   H     0.50134   0.72975   0.65275   0.00000  Uiso   1.00
H537   H     0.27634   0.55554   0.54690   0.00000  Uiso   1.00
H538   H     0.22132   0.51013   0.65251   0.00000  Uiso   1.00
H539   H     0.21351   0.57940   0.43249   0.00000  Uiso   1.00
H540   H     0.39655   0.56407   0.54682   0.00000  Uiso   1.00
H541   H     0.15654   0.48035   0.78354   0.00000  Uiso   1.00
H542   H     0.14011   0.62641   0.31959   0.00000  Uiso   1.00
H543   H     0.52609   0.59408   0.56069   0.00000  Uiso   1.00
O544   O     0.10743   0.52117   0.90097   0.00000  Uiso   1.00
O545   O     0.08588   0.71280   0.29229   0.00000  Uiso   1.00
O546   O     0.59228   0.67038   0.60861   0.00000  Uiso   1.00
N547   N     0.14518   0.59032   0.83945   0.00000  Uiso   1.00
N548   N     0.12981   0.72687   0.40569   0.00000  Uiso   1.00
N549   N     0.49067   0.69665   0.63108   0.00000  Uiso   1.00
N550   N     0.15850   0.51732   0.78991   0.00000  Uiso   1.00
N551   N     0.14312   0.65387   0.35615   0.00000  Uiso   1.00
N552   N     0.50398   0.62365   0.58154   0.00000  Uiso   1.00
C553   C     0.25406   0.32230   0.37020   0.00000  Uiso   1.00
C554   C     0.22731   0.36422   0.32452   0.00000  Uiso   1.00
C555   C     0.19740   0.35881   0.25852   0.00000  Uiso   1.00
C556   C     0.17627   0.40172   0.22525   0.00000  Uiso   1.00
C557   C     0.13342   0.45972   0.14953   0.00000  Uiso   1.00
C558   C     0.22307   0.32659   0.44406   0.00000  Uiso   1.00
C559   C     0.18959   0.28953   0.47858   0.00000  Uiso   1.00
C560   C     0.16489   0.30077   0.54594   0.00000  Uiso   1.00
C561   C     0.11549   0.30033   0.65584   0.00000  Uiso   1.00
C562   C     0.32252   0.33492   0.38193   0.00000  Uiso   1.00
C563   C     0.37267   0.30486   0.36423   0.00000  Uiso   1.00
C564   C     0.43170   0.32311   0.37930   0.00000  Uiso   1.00
C565   C     0.53670   0.33561   0.39273   0.00000  Uiso   1.00
C566   C     0.26972   0.40815   0.42846   0.00000  Uiso   1.00
C567   C     0.23582   0.41085   0.35617   0.00000  Uiso   1.00
C568   C     0.21473   0.45379   0.32298   0.00000  Uiso   1.00
C569   C     0.18479   0.44844   0.25695   0.00000  Uiso   1.00
C570   C     0.23157   0.37322   0.47571   0.00000  Uiso   1.00
C571   C     0.20692   0.38451   0.54304   0.00000  Uiso   1.00
C572   C     0.17341   0.34748   0.57765   0.00000  Uiso   1.00
C573   C     0.33102   0.38155   0.41358   0.00000  Uiso   1.00
C574   C     0.38999   0.39985   0.42869   0.00000  Uiso   1.00
C575   C     0.44022   0.36982   0.41101   0.00000  Uiso   1.00
H576   H     0.24743   0.28600   0.34556   0.00000  Uiso   1.00
H577   H     0.19083   0.32271   0.23406   0.00000  Uiso   1.00
H578   H     0.18302   0.25345   0.45408   0.00000  Uiso   1.00
H579   H     0.36606   0.26878   0.33974   0.00000  Uiso   1.00
H580   H     0.13180   0.38398   0.12440   0.00000  Uiso   1.00
H581   H     0.11536   0.23792   0.58834   0.00000  Uiso   1.00
H582   H     0.50134   0.27025   0.34725   0.00000  Uiso   1.00
H583   H     0.27634   0.44446   0.45310   0.00000  Uiso   1.00
H584   H     0.22132   0.48987   0.34749   0.00000  Uiso   1.00
H585   H     0.21351   0.42060   0.56751   0.00000  Uiso   1.00
H586   H     0.39655   0.43593   0.45318   0.00000  Uiso   1.00
H587   H     0.15654   0.51965   0.21646   0.00000  Uiso   1.00
H588   H     0.14011   0.37359   0.68041   0.00000  Uiso   1.00
H589   H     0.52609   0.40592   0.43931   0.00000  Uiso   1.00
O590   O     0.10743   0.47883   0.09903   0.00000  Uiso   1.00
O591   O     0.08588   0.28720   0.70771   0.00000  Uiso   1.00
O592   O     0.59228   0.32962   0.39139   0.00000  Uiso   1.00
N593   N     0.14518   0.40968   0.16055   0.00000  Uiso   1.00
N594   N     0.12981   0.27313   0.59431   0.00000  Uiso   1.00
N595   N     0.49067   0.30335   0.36892   0.00000  Uiso   1.00
N596   N     0.15850   0.48268   0.21009   0.00000  Uiso   1.00
N597   N     0.14312   0.34613   0.64385   0.00000  Uiso   1.00
N598   N     0.50398   0.37635   0.41846   0.00000  Uiso   1.00
C599   C     0.75406   0.82230   0.37020   0.00000  Uiso   1.00
C600   C     0.72731   0.86422   0.32452   0.00000  Uiso   1.00
C601   C     0.69740   0.85881   0.25852   0.00000  Uiso   1.00
C602   C     0.67627   0.90172   0.22525   0.00000  Uiso   1.00
C603   C     0.63342   0.95972   0.14953   0.00000  Uiso   1.00
C604   C     0.72307   0.82659   0.44406   0.00000  Uiso   1.00
C605   C     0.68959   0.78953   0.47858   0.00000  Uiso   1.00
C606   C     0.66489   0.80077   0.54594   0.00000  Uiso   1.00
C607   C     0.61549   0.80033   0.65584   0.00000  Uiso   1.00
C608   C     0.82252   0.83492   0.38193   0.00000  Uiso   1.00
C609   C     0.87267   0.80486   0.36423   0.00000  Uiso   1.00
C610   C     0.93170   0.82311   0.37930   0.00000  Uiso   1.00
C611   C     0.03670   0.83561   0.39273   0.00000  Uiso   1.00
C612   C     0.76972   0.90815   0.42846   0.00000  Uiso   1.00
C613   C     0.73582   0.91085   0.35617   0.00000  Uiso   1.00
C614   C     0.71473   0.95379   0.32298   0.00000  Uiso   1.00
C615   C     0.68479   0.94844   0.25695   0.00000  Uiso   1.00
C616   C     0.73157   0.87322   0.47571   0.00000  Uiso   1.00
C617   C     0.70692   0.88451   0.54304   0.00000  Uiso   1.00
C618   C     0.67341   0.84748   0.57765   0.00000  Uiso   1.00
C619   C     0.83102   0.88155   0.41358   0.00000  Uiso   1.00
C620   C     0.88999   0.89985   0.42869   0.00000  Uiso   1.00
C621   C     0.94022   0.86982   0.41101   0.00000  Uiso   1.00
H622   H     0.74743   0.78600   0.34556   0.00000  Uiso   1.00
H623   H     0.69083   0.82271   0.23406   0.00000  Uiso   1.00
H624   H     0.68302   0.75345   0.45408   0.00000  Uiso   1.00
H625   H     0.86606   0.76878   0.33974   0.00000  Uiso   1.00
H626   H     0.63180   0.88398   0.12440   0.00000  Uiso   1.00
H627   H     0.61536   0.73792   0.58834   0.00000  Uiso   1.00
H628   H     0.00134   0.77025   0.34725   0.00000  Uiso   1.00
H629   H     0.77634   0.94446   0.45310   0.00000  Uiso   1.00
H630   H     0.72132   0.98987   0.34749   0.00000  Uiso   1.00
H631   H     0.71351   0.92060   0.56751   0.00000  Uiso   1.00
H632   H     0.89655   0.93593   0.45318   0.00000  Uiso   1.00
H633   H     0.65654   0.01965   0.21646   0.00000  Uiso   1.00
H634   H     0.64011   0.87359   0.68041   0.00000  Uiso   1.00
H635   H     0.02609   0.90592   0.43931   0.00000  Uiso   1.00
O636   O     0.60743   0.97883   0.09903   0.00000  Uiso   1.00
O637   O     0.58588   0.78720   0.70771   0.00000  Uiso   1.00
O638   O     0.09228   0.82962   0.39139   0.00000  Uiso   1.00
N639   N     0.64518   0.90968   0.16055   0.00000  Uiso   1.00
N640   N     0.62981   0.77313   0.59431   0.00000  Uiso   1.00
N641   N     0.99067   0.80335   0.36892   0.00000  Uiso   1.00
N642   N     0.65850   0.98268   0.21009   0.00000  Uiso   1.00
N643   N     0.64312   0.84613   0.64385   0.00000  Uiso   1.00
N644   N     0.00398   0.87635   0.41846   0.00000  Uiso   1.00
C645   C     0.24594   0.17770   0.37020   0.00000  Uiso   1.00
C646   C     0.27269   0.13578   0.32452   0.00000  Uiso   1.00
C647   C     0.30260   0.14119   0.25852   0.00000  Uiso   1.00
C648   C     0.32373   0.09828   0.22525   0.00000  Uiso   1.00
C649   C     0.36658   0.04028   0.14953   0.00000  Uiso   1.00
C650   C     0.27693   0.17341   0.44406   0.00000  Uiso   1.00
C651   C     0.31041   0.21047   0.47858   0.00000  Uiso   1.00
C652   C     0.33511   0.19923   0.54594   0.00000  Uiso   1.00
C653   C     0.38451   0.19967   0.65584   0.00000  Uiso   1.00
C654   C     0.17748   0.16508   0.38193   0.00000  Uiso   1.00
C655   C     0.12733   0.19514   0.36423   0.00000  Uiso   1.00
C656   C     0.06830   0.17689   0.37930   0.00000  Uiso   1.00
C657   C     0.96330   0.16439   0.39273   0.00000  Uiso   1.00
C658   C     0.23028   0.09185   0.42846   0.00000  Uiso   1.00
C659   C     0.26418   0.08915   0.35617   0.00000  Uiso   1.00
C660   C     0.28527   0.04621   0.32298   0.00000  Uiso   1.00
C661   C     0.31521   0.05156   0.25695   0.00000  Uiso   1.00
C662   C     0.26843   0.12678   0.47571   0.00000  Uiso   1.00
C663   C     0.29308   0.11549   0.54304   0.00000  Uiso   1.00
C664   C     0.32659   0.15252   0.57765   0.00000  Uiso   1.00
C665   C     0.16898   0.11845   0.41358   0.00000  Uiso   1.00
C666   C     0.11001   0.10015   0.42869   0.00000  Uiso   1.00
C667   C     0.05978   0.13018   0.41101   0.00000  Uiso   1.00
H668   H     0.25257   0.21400   0.34556   0.00000  Uiso   1.00
H669   H     0.30917   0.17729   0.23406   0.00000  Uiso   1.00
H670   H     0.31698   0.24655   0.45408   0.00000  Uiso   1.00
H671   H     0.13394   0.23122   0.33974   0.00000  Uiso   1.00
H672   H     0.36820   0.11602   0.12440   0.00000  Uiso   1.00
H673   H     0.38464   0.26208   0.58834   0.00000  Uiso   1.00
H674   H     0.99866   0.22975   0.34725   0.00000  Uiso   1.00
H675   H     0.22366   0.05554   0.45310   0.00000  Uiso   1.00
H676   H     0.27868   0.01013   0.34749   0.00000  Uiso   1.00
H677   H     0.28649   0.07940   0.56751   0.00000  Uiso   1.00
H678   H     0.10345   0.06407   0.45318   0.00000  Uiso   1.00
H679   H     0.34346   0.98035   0.21646   0.00000  Uiso   1.00
H680   H     0.35989   0.12641   0.68041   0.00000  Uiso   1.00
H681   H     0.97391   0.09408   0.43931   0.00000  Uiso   1.00
O682   O     0.39257   0.02117   0.09903   0.00000  Uiso   1.00
O683   O     0.41412   0.21280   0.70771   0.00000  Uiso   1.00
O684   O     0.90772   0.17038   0.39139   0.00000  Uiso   1.00
N685   N     0.35482   0.09032   0.16055   0.00000  Uiso   1.00
N686   N     0.37019   0.22687   0.59431   0.00000  Uiso   1.00
N687   N     0.00933   0.19665   0.36892   0.00000  Uiso   1.00
N688   N     0.34150   0.01732   0.21009   0.00000  Uiso   1.00
N689   N     0.35688   0.15387   0.64385   0.00000  Uiso   1.00
N690   N     0.99602   0.12365   0.41846   0.00000  Uiso   1.00
C691   C     0.74594   0.67770   0.37020   0.00000  Uiso   1.00
C692   C     0.77269   0.63578   0.32452   0.00000  Uiso   1.00
C693   C     0.80260   0.64119   0.25852   0.00000  Uiso   1.00
C694   C     0.82373   0.59828   0.22525   0.00000  Uiso   1.00
C695   C     0.86658   0.54028   0.14953   0.00000  Uiso   1.00
C696   C     0.77693   0.67341   0.44406   0.00000  Uiso   1.00
C697   C     0.81041   0.71047   0.47858   0.00000  Uiso   1.00
C698   C     0.83511   0.69923   0.54594   0.00000  Uiso   1.00
C699   C     0.88451   0.69967   0.65584   0.00000  Uiso   1.00
C700   C     0.67748   0.66508   0.38193   0.00000  Uiso   1.00
C701   C     0.62733   0.69514   0.36423   0.00000  Uiso   1.00
C702   C     0.56830   0.67689   0.37930   0.00000  Uiso   1.00
C703   C     0.46330   0.66439   0.39273   0.00000  Uiso   1.00
C704   C     0.73028   0.59185   0.42846   0.00000  Uiso   1.00
C705   C     0.76418   0.58915   0.35617   0.00000  Uiso   1.00
C706   C     0.78527   0.54621   0.32298   0.00000  Uiso   1.00
C707   C     0.81521   0.55156   0.25695   0.00000  Uiso   1.00
C708   C     0.76843   0.62678   0.47571   0.00000  Uiso   1.00
C709   C     0.79308   0.61549   0.54304   0.00000  Uiso   1.00
C710   C     0.82659   0.65252   0.57765   0.00000  Uiso   1.00
C711   C     0.66898   0.61845   0.41358   0.00000  Uiso   1.00
C712   C     0.61001   0.60015   0.42869   0.00000  Uiso   1.00
C713   C     0.55978   0.63018   0.41101   0.00000  Uiso   1.00
H714   H     0.75257   0.71400   0.34556   0.00000  Uiso   1.00
H715   H     0.80917   0.67729   0.23406   0.00000  Uiso   1.00
H716   H     0.81698   0.74655   0.45408   0.00000  Uiso   1.00
H717   H     0.63394   0.73122   0.33974   0.00000  Uiso   1.00
H718   H     0.86820   0.61602   0.12440   0.00000  Uiso   1.00
H719   H     0.88464   0.76208   0.58834   0.00000  Uiso   1.00
H720   H     0.49866   0.72975   0.34725   0.00000  Uiso   1.00
H721   H     0.72366   0.55554   0.45310   0.00000  Uiso   1.00
H722   H     0.77868   0.51013   0.34749   0.00000  Uiso   1.00
H723   H     0.78649   0.57940   0.56751   0.00000  Uiso   1.00
H724   H     0.60345   0.56407   0.45318   0.00000  Uiso   1.00
H725   H     0.84346   0.48035   0.21646   0.00000  Uiso   1.00
H726   H     0.85989   0.62641   0.68041   0.00000  Uiso   1.00
H727   H     0.47391   0.59408   0.43931   0.00000  Uiso   1.00
O728   O     0.89257   0.52117   0.09903   0.00000  Uiso   1.00
O729   O     0.91412   0.71280   0.70771   0.00000  Uiso   1.00
O730   O     0.40772   0.67038   0.39139   0.00000  Uiso   1.00
N731   N     0.85482   0.59032   0.16055   0.00000  Uiso   1.00
N732   N     0.87019   0.72687   0.59431   0.00000  Uiso   1.00
N733   N     0.50933   0.69665   0.36892   0.00000  Uiso   1.00
N734   N     0.84150   0.51732   0.21009   0.00000  Uiso   1.00
N735   N     0.85688   0.65387   0.64385   0.00000  Uiso   1.00
N736   N     0.49602   0.62365   0.41846   0.00000  Uiso   1.00
