data_job_02048
_audit_creation_date              2018-12-19
_audit_creation_method            'Materials Studio'
_symmetry_space_group_name_H-M    'P1'
_symmetry_Int_Tables_number       1
_symmetry_cell_setting            triclinic
loop_
_symmetry_equiv_pos_as_xyz
  x,y,z
_cell_length_a                    23.4221
_cell_length_b                    23.4221
_cell_length_c                    16.3846
_cell_angle_alpha                 90.0000
_cell_angle_beta                  90.0000
_cell_angle_gamma                 90.0000
loop_
_atom_site_label
_atom_site_type_symbol
_atom_site_fract_x
_atom_site_fract_y
_atom_site_fract_z
_atom_site_U_iso_or_equiv
_atom_site_adp_type
_atom_site_occupancy
C1     C     0.71074   0.48926   0.19435   0.00000  Uiso   1.00
C2     C     0.75130   0.44228   0.16624   0.00000  Uiso   1.00
C3     C     0.79421   0.41770   0.21291   0.00000  Uiso   1.00
C4     C     0.82671   0.37536   0.17607   0.00000  Uiso   1.00
C5     C     0.89124   0.30503   0.14468   0.00000  Uiso   1.00
C6     C     0.71760   0.53796   0.13335   0.00000  Uiso   1.00
C7     C     0.73217   0.59383   0.15237   0.00000  Uiso   1.00
C8     C     0.73630   0.63203   0.08783   0.00000  Uiso   1.00
C9     C     0.74847   0.71025   0.00538   0.00000  Uiso   1.00
C10    C     0.65060   0.46596   0.18174   0.00000  Uiso   1.00
C11    C     0.60881   0.46132   0.24143   0.00000  Uiso   1.00
C12    C     0.55652   0.43891   0.21763   0.00000  Uiso   1.00
C13    C     0.46465   0.40535   0.21030   0.00000  Uiso   1.00
C14    C     0.69216   0.45775   0.04593   0.00000  Uiso   1.00
C15    C     0.74121   0.42516   0.08563   0.00000  Uiso   1.00
C16    C     0.77365   0.38284   0.04870   0.00000  Uiso   1.00
C17    C     0.81660   0.35821   0.09531   0.00000  Uiso   1.00
C18    C     0.70751   0.52084   0.05274   0.00000  Uiso   1.00
C19    C     0.71161   0.55897   0.98816   0.00000  Uiso   1.00
C20    C     0.72619   0.61488   0.00707   0.00000  Uiso   1.00
C21    C     0.64050   0.44885   0.10112   0.00000  Uiso   1.00
C22    C     0.58826   0.42645   0.07722   0.00000  Uiso   1.00
C23    C     0.54641   0.42177   0.13686   0.00000  Uiso   1.00
H24    H     0.71860   0.50259   0.25711   0.00000  Uiso   1.00
H25    H     0.80201   0.43097   0.27529   0.00000  Uiso   1.00
H26    H     0.73998   0.60706   0.21476   0.00000  Uiso   1.00
H27    H     0.61664   0.47457   0.30380   0.00000  Uiso   1.00
H28    H     0.89004   0.34402   0.25990   0.00000  Uiso   1.00
H29    H     0.75922   0.71534   0.13226   0.00000  Uiso   1.00
H30    H     0.49915   0.43595   0.32003   0.00000  Uiso   1.00
H31    H     0.68430   0.44443   0.98316   0.00000  Uiso   1.00
H32    H     0.76583   0.36961   0.98632   0.00000  Uiso   1.00
H33    H     0.70379   0.54571   0.92578   0.00000  Uiso   1.00
H34    H     0.58046   0.41321   0.01483   0.00000  Uiso   1.00
H35    H     0.86068   0.29422   0.02535   0.00000  Uiso   1.00
H36    H     0.72986   0.66554   0.89771   0.00000  Uiso   1.00
H37    H     0.46978   0.38615   0.08549   0.00000  Uiso   1.00
O38    O     0.92962   0.27097   0.14963   0.00000  Uiso   1.00
O39    O     0.75798   0.75812   0.98218   0.00000  Uiso   1.00
O40    O     0.41677   0.39156   0.22853   0.00000  Uiso   1.00
N41    N     0.87194   0.34256   0.20427   0.00000  Uiso   1.00
N42    N     0.74964   0.68972   0.08493   0.00000  Uiso   1.00
N43    N     0.50648   0.42852   0.26048   0.00000  Uiso   1.00
N44    N     0.85614   0.31577   0.07806   0.00000  Uiso   1.00
N45    N     0.73383   0.66292   0.95873   0.00000  Uiso   1.00
N46    N     0.49068   0.40173   0.13427   0.00000  Uiso   1.00
C47    C     0.21074   0.98926   0.69435   0.00000  Uiso   1.00
C48    C     0.25130   0.94228   0.66624   0.00000  Uiso   1.00
C49    C     0.29421   0.91770   0.71291   0.00000  Uiso   1.00
C50    C     0.32671   0.87536   0.67607   0.00000  Uiso   1.00
C51    C     0.39124   0.80503   0.64468   0.00000  Uiso   1.00
C52    C     0.21760   0.03796   0.63335   0.00000  Uiso   1.00
C53    C     0.23217   0.09383   0.65237   0.00000  Uiso   1.00
C54    C     0.23630   0.13203   0.58783   0.00000  Uiso   1.00
C55    C     0.24847   0.21025   0.50538   0.00000  Uiso   1.00
C56    C     0.15060   0.96596   0.68174   0.00000  Uiso   1.00
C57    C     0.10881   0.96132   0.74143   0.00000  Uiso   1.00
C58    C     0.05652   0.93891   0.71763   0.00000  Uiso   1.00
C59    C     0.96465   0.90535   0.71030   0.00000  Uiso   1.00
C60    C     0.19216   0.95775   0.54593   0.00000  Uiso   1.00
C61    C     0.24121   0.92516   0.58563   0.00000  Uiso   1.00
C62    C     0.27365   0.88284   0.54870   0.00000  Uiso   1.00
C63    C     0.31660   0.85821   0.59531   0.00000  Uiso   1.00
C64    C     0.20751   0.02084   0.55274   0.00000  Uiso   1.00
C65    C     0.21161   0.05897   0.48816   0.00000  Uiso   1.00
C66    C     0.22619   0.11488   0.50707   0.00000  Uiso   1.00
C67    C     0.14050   0.94885   0.60112   0.00000  Uiso   1.00
C68    C     0.08826   0.92645   0.57722   0.00000  Uiso   1.00
C69    C     0.04641   0.92177   0.63686   0.00000  Uiso   1.00
H70    H     0.21860   0.00259   0.75711   0.00000  Uiso   1.00
H71    H     0.30201   0.93097   0.77529   0.00000  Uiso   1.00
H72    H     0.23998   0.10706   0.71476   0.00000  Uiso   1.00
H73    H     0.11664   0.97457   0.80380   0.00000  Uiso   1.00
H74    H     0.39004   0.84402   0.75990   0.00000  Uiso   1.00
H75    H     0.25922   0.21534   0.63226   0.00000  Uiso   1.00
H76    H     0.99915   0.93595   0.82003   0.00000  Uiso   1.00
H77    H     0.18430   0.94443   0.48316   0.00000  Uiso   1.00
H78    H     0.26583   0.86961   0.48632   0.00000  Uiso   1.00
H79    H     0.20379   0.04571   0.42578   0.00000  Uiso   1.00
H80    H     0.08046   0.91321   0.51483   0.00000  Uiso   1.00
H81    H     0.36068   0.79422   0.52535   0.00000  Uiso   1.00
H82    H     0.22986   0.16554   0.39771   0.00000  Uiso   1.00
H83    H     0.96978   0.88615   0.58549   0.00000  Uiso   1.00
O84    O     0.42962   0.77097   0.64963   0.00000  Uiso   1.00
O85    O     0.25798   0.25812   0.48218   0.00000  Uiso   1.00
O86    O     0.91677   0.89156   0.72853   0.00000  Uiso   1.00
N87    N     0.37194   0.84256   0.70427   0.00000  Uiso   1.00
N88    N     0.24964   0.18972   0.58493   0.00000  Uiso   1.00
N89    N     0.00648   0.92852   0.76048   0.00000  Uiso   1.00
N90    N     0.35614   0.81577   0.57806   0.00000  Uiso   1.00
N91    N     0.23383   0.16292   0.45873   0.00000  Uiso   1.00
N92    N     0.99068   0.90173   0.63427   0.00000  Uiso   1.00
C93    C     0.78926   0.01074   0.69435   0.00000  Uiso   1.00
C94    C     0.74870   0.05772   0.66624   0.00000  Uiso   1.00
C95    C     0.70579   0.08230   0.71291   0.00000  Uiso   1.00
C96    C     0.67329   0.12464   0.67607   0.00000  Uiso   1.00
C97    C     0.60876   0.19497   0.64468   0.00000  Uiso   1.00
C98    C     0.78240   0.96204   0.63335   0.00000  Uiso   1.00
C99    C     0.76783   0.90617   0.65237   0.00000  Uiso   1.00
C100   C     0.76370   0.86797   0.58783   0.00000  Uiso   1.00
C101   C     0.75153   0.78975   0.50538   0.00000  Uiso   1.00
C102   C     0.84940   0.03404   0.68174   0.00000  Uiso   1.00
C103   C     0.89119   0.03868   0.74143   0.00000  Uiso   1.00
C104   C     0.94348   0.06109   0.71763   0.00000  Uiso   1.00
C105   C     0.03535   0.09465   0.71030   0.00000  Uiso   1.00
C106   C     0.80784   0.04225   0.54593   0.00000  Uiso   1.00
C107   C     0.75879   0.07484   0.58563   0.00000  Uiso   1.00
C108   C     0.72635   0.11716   0.54870   0.00000  Uiso   1.00
C109   C     0.68340   0.14179   0.59531   0.00000  Uiso   1.00
C110   C     0.79249   0.97916   0.55274   0.00000  Uiso   1.00
C111   C     0.78839   0.94103   0.48816   0.00000  Uiso   1.00
C112   C     0.77381   0.88512   0.50707   0.00000  Uiso   1.00
C113   C     0.85950   0.05115   0.60112   0.00000  Uiso   1.00
C114   C     0.91174   0.07355   0.57722   0.00000  Uiso   1.00
C115   C     0.95359   0.07823   0.63686   0.00000  Uiso   1.00
H116   H     0.78140   0.99741   0.75711   0.00000  Uiso   1.00
H117   H     0.69799   0.06903   0.77529   0.00000  Uiso   1.00
H118   H     0.76002   0.89294   0.71476   0.00000  Uiso   1.00
H119   H     0.88336   0.02543   0.80380   0.00000  Uiso   1.00
H120   H     0.60996   0.15598   0.75990   0.00000  Uiso   1.00
H121   H     0.74078   0.78466   0.63226   0.00000  Uiso   1.00
H122   H     0.00085   0.06405   0.82003   0.00000  Uiso   1.00
H123   H     0.81570   0.05557   0.48316   0.00000  Uiso   1.00
H124   H     0.73417   0.13039   0.48632   0.00000  Uiso   1.00
H125   H     0.79621   0.95429   0.42578   0.00000  Uiso   1.00
H126   H     0.91954   0.08679   0.51483   0.00000  Uiso   1.00
H127   H     0.63932   0.20578   0.52535   0.00000  Uiso   1.00
H128   H     0.77014   0.83446   0.39771   0.00000  Uiso   1.00
H129   H     0.03022   0.11385   0.58549   0.00000  Uiso   1.00
O130   O     0.57038   0.22903   0.64963   0.00000  Uiso   1.00
O131   O     0.74202   0.74188   0.48218   0.00000  Uiso   1.00
O132   O     0.08323   0.10844   0.72853   0.00000  Uiso   1.00
N133   N     0.62806   0.15744   0.70427   0.00000  Uiso   1.00
N134   N     0.75036   0.81028   0.58493   0.00000  Uiso   1.00
N135   N     0.99352   0.07148   0.76048   0.00000  Uiso   1.00
N136   N     0.64386   0.18423   0.57806   0.00000  Uiso   1.00
N137   N     0.76617   0.83708   0.45873   0.00000  Uiso   1.00
N138   N     0.00932   0.09827   0.63427   0.00000  Uiso   1.00
C139   C     0.28926   0.51074   0.19435   0.00000  Uiso   1.00
C140   C     0.24870   0.55772   0.16624   0.00000  Uiso   1.00
C141   C     0.20579   0.58230   0.21291   0.00000  Uiso   1.00
C142   C     0.17329   0.62464   0.17607   0.00000  Uiso   1.00
C143   C     0.10876   0.69497   0.14468   0.00000  Uiso   1.00
C144   C     0.28240   0.46204   0.13335   0.00000  Uiso   1.00
C145   C     0.26783   0.40617   0.15237   0.00000  Uiso   1.00
C146   C     0.26370   0.36797   0.08783   0.00000  Uiso   1.00
C147   C     0.25153   0.28975   0.00538   0.00000  Uiso   1.00
C148   C     0.34940   0.53404   0.18174   0.00000  Uiso   1.00
C149   C     0.39119   0.53868   0.24143   0.00000  Uiso   1.00
C150   C     0.44348   0.56109   0.21763   0.00000  Uiso   1.00
C151   C     0.53535   0.59465   0.21030   0.00000  Uiso   1.00
C152   C     0.30784   0.54225   0.04593   0.00000  Uiso   1.00
C153   C     0.25879   0.57484   0.08563   0.00000  Uiso   1.00
C154   C     0.22635   0.61716   0.04870   0.00000  Uiso   1.00
C155   C     0.18340   0.64179   0.09531   0.00000  Uiso   1.00
C156   C     0.29249   0.47916   0.05274   0.00000  Uiso   1.00
C157   C     0.28839   0.44103   0.98816   0.00000  Uiso   1.00
C158   C     0.27381   0.38512   0.00707   0.00000  Uiso   1.00
C159   C     0.35950   0.55115   0.10112   0.00000  Uiso   1.00
C160   C     0.41174   0.57355   0.07722   0.00000  Uiso   1.00
C161   C     0.45359   0.57823   0.13686   0.00000  Uiso   1.00
H162   H     0.28140   0.49741   0.25711   0.00000  Uiso   1.00
H163   H     0.19799   0.56903   0.27529   0.00000  Uiso   1.00
H164   H     0.26002   0.39294   0.21476   0.00000  Uiso   1.00
H165   H     0.38336   0.52543   0.30380   0.00000  Uiso   1.00
H166   H     0.10996   0.65598   0.25990   0.00000  Uiso   1.00
H167   H     0.24078   0.28466   0.13226   0.00000  Uiso   1.00
H168   H     0.50085   0.56405   0.32003   0.00000  Uiso   1.00
H169   H     0.31570   0.55557   0.98316   0.00000  Uiso   1.00
H170   H     0.23417   0.63039   0.98632   0.00000  Uiso   1.00
H171   H     0.29621   0.45429   0.92578   0.00000  Uiso   1.00
H172   H     0.41954   0.58679   0.01483   0.00000  Uiso   1.00
H173   H     0.13932   0.70578   0.02535   0.00000  Uiso   1.00
H174   H     0.27014   0.33446   0.89771   0.00000  Uiso   1.00
H175   H     0.53022   0.61385   0.08549   0.00000  Uiso   1.00
O176   O     0.07038   0.72903   0.14963   0.00000  Uiso   1.00
O177   O     0.24202   0.24188   0.98218   0.00000  Uiso   1.00
O178   O     0.58323   0.60844   0.22853   0.00000  Uiso   1.00
N179   N     0.12806   0.65744   0.20427   0.00000  Uiso   1.00
N180   N     0.25036   0.31028   0.08493   0.00000  Uiso   1.00
N181   N     0.49352   0.57148   0.26048   0.00000  Uiso   1.00
N182   N     0.14386   0.68423   0.07806   0.00000  Uiso   1.00
N183   N     0.26617   0.33708   0.95873   0.00000  Uiso   1.00
N184   N     0.50932   0.59827   0.13427   0.00000  Uiso   1.00
C185   C     0.51074   0.21074   0.44435   0.00000  Uiso   1.00
C186   C     0.55772   0.25130   0.41624   0.00000  Uiso   1.00
C187   C     0.58230   0.29421   0.46291   0.00000  Uiso   1.00
C188   C     0.62464   0.32671   0.42607   0.00000  Uiso   1.00
C189   C     0.69497   0.39124   0.39468   0.00000  Uiso   1.00
C190   C     0.46204   0.21760   0.38335   0.00000  Uiso   1.00
C191   C     0.40617   0.23217   0.40237   0.00000  Uiso   1.00
C192   C     0.36797   0.23630   0.33783   0.00000  Uiso   1.00
C193   C     0.28975   0.24847   0.25538   0.00000  Uiso   1.00
C194   C     0.53404   0.15060   0.43174   0.00000  Uiso   1.00
C195   C     0.53868   0.10881   0.49143   0.00000  Uiso   1.00
C196   C     0.56109   0.05652   0.46763   0.00000  Uiso   1.00
C197   C     0.59465   0.96465   0.46030   0.00000  Uiso   1.00
C198   C     0.54225   0.19216   0.29593   0.00000  Uiso   1.00
C199   C     0.57484   0.24121   0.33563   0.00000  Uiso   1.00
C200   C     0.61716   0.27365   0.29870   0.00000  Uiso   1.00
C201   C     0.64179   0.31660   0.34531   0.00000  Uiso   1.00
C202   C     0.47916   0.20751   0.30274   0.00000  Uiso   1.00
C203   C     0.44103   0.21161   0.23816   0.00000  Uiso   1.00
C204   C     0.38512   0.22619   0.25707   0.00000  Uiso   1.00
C205   C     0.55115   0.14050   0.35112   0.00000  Uiso   1.00
C206   C     0.57355   0.08826   0.32722   0.00000  Uiso   1.00
C207   C     0.57823   0.04641   0.38686   0.00000  Uiso   1.00
H208   H     0.49741   0.21860   0.50711   0.00000  Uiso   1.00
H209   H     0.56903   0.30201   0.52529   0.00000  Uiso   1.00
H210   H     0.39294   0.23998   0.46476   0.00000  Uiso   1.00
H211   H     0.52543   0.11664   0.55380   0.00000  Uiso   1.00
H212   H     0.65598   0.39004   0.50990   0.00000  Uiso   1.00
H213   H     0.28466   0.25922   0.38226   0.00000  Uiso   1.00
H214   H     0.56405   0.99915   0.57003   0.00000  Uiso   1.00
H215   H     0.55557   0.18430   0.23316   0.00000  Uiso   1.00
H216   H     0.63039   0.26583   0.23632   0.00000  Uiso   1.00
H217   H     0.45429   0.20379   0.17578   0.00000  Uiso   1.00
H218   H     0.58679   0.08046   0.26483   0.00000  Uiso   1.00
H219   H     0.70578   0.36068   0.27535   0.00000  Uiso   1.00
H220   H     0.33446   0.22986   0.14771   0.00000  Uiso   1.00
H221   H     0.61385   0.96978   0.33549   0.00000  Uiso   1.00
O222   O     0.72903   0.42962   0.39963   0.00000  Uiso   1.00
O223   O     0.24188   0.25798   0.23218   0.00000  Uiso   1.00
O224   O     0.60844   0.91677   0.47853   0.00000  Uiso   1.00
N225   N     0.65744   0.37194   0.45427   0.00000  Uiso   1.00
N226   N     0.31028   0.24964   0.33493   0.00000  Uiso   1.00
N227   N     0.57148   0.00648   0.51048   0.00000  Uiso   1.00
N228   N     0.68423   0.35614   0.32806   0.00000  Uiso   1.00
N229   N     0.33708   0.23383   0.20873   0.00000  Uiso   1.00
N230   N     0.59827   0.99068   0.38427   0.00000  Uiso   1.00
C231   C     0.01074   0.71074   0.94435   0.00000  Uiso   1.00
C232   C     0.05772   0.75130   0.91624   0.00000  Uiso   1.00
C233   C     0.08230   0.79421   0.96291   0.00000  Uiso   1.00
C234   C     0.12464   0.82671   0.92607   0.00000  Uiso   1.00
C235   C     0.19497   0.89124   0.89468   0.00000  Uiso   1.00
C236   C     0.96204   0.71760   0.88335   0.00000  Uiso   1.00
C237   C     0.90617   0.73217   0.90237   0.00000  Uiso   1.00
C238   C     0.86797   0.73630   0.83783   0.00000  Uiso   1.00
C239   C     0.78975   0.74847   0.75538   0.00000  Uiso   1.00
C240   C     0.03404   0.65060   0.93174   0.00000  Uiso   1.00
C241   C     0.03868   0.60881   0.99143   0.00000  Uiso   1.00
C242   C     0.06109   0.55652   0.96763   0.00000  Uiso   1.00
C243   C     0.09465   0.46465   0.96030   0.00000  Uiso   1.00
C244   C     0.04225   0.69216   0.79593   0.00000  Uiso   1.00
C245   C     0.07484   0.74121   0.83563   0.00000  Uiso   1.00
C246   C     0.11716   0.77365   0.79870   0.00000  Uiso   1.00
C247   C     0.14179   0.81660   0.84531   0.00000  Uiso   1.00
C248   C     0.97916   0.70751   0.80274   0.00000  Uiso   1.00
C249   C     0.94103   0.71161   0.73816   0.00000  Uiso   1.00
C250   C     0.88512   0.72619   0.75707   0.00000  Uiso   1.00
C251   C     0.05115   0.64050   0.85112   0.00000  Uiso   1.00
C252   C     0.07355   0.58826   0.82722   0.00000  Uiso   1.00
C253   C     0.07823   0.54641   0.88686   0.00000  Uiso   1.00
H254   H     0.99741   0.71860   0.00711   0.00000  Uiso   1.00
H255   H     0.06903   0.80201   0.02529   0.00000  Uiso   1.00
H256   H     0.89294   0.73998   0.96476   0.00000  Uiso   1.00
H257   H     0.02543   0.61664   0.05380   0.00000  Uiso   1.00
H258   H     0.15598   0.89004   0.00990   0.00000  Uiso   1.00
H259   H     0.78466   0.75922   0.88226   0.00000  Uiso   1.00
H260   H     0.06405   0.49915   0.07003   0.00000  Uiso   1.00
H261   H     0.05557   0.68430   0.73316   0.00000  Uiso   1.00
H262   H     0.13039   0.76583   0.73632   0.00000  Uiso   1.00
H263   H     0.95429   0.70379   0.67578   0.00000  Uiso   1.00
H264   H     0.08679   0.58046   0.76483   0.00000  Uiso   1.00
H265   H     0.20578   0.86068   0.77535   0.00000  Uiso   1.00
H266   H     0.83446   0.72986   0.64771   0.00000  Uiso   1.00
H267   H     0.11385   0.46978   0.83549   0.00000  Uiso   1.00
O268   O     0.22903   0.92962   0.89963   0.00000  Uiso   1.00
O269   O     0.74188   0.75798   0.73218   0.00000  Uiso   1.00
O270   O     0.10844   0.41677   0.97853   0.00000  Uiso   1.00
N271   N     0.15744   0.87194   0.95427   0.00000  Uiso   1.00
N272   N     0.81028   0.74964   0.83493   0.00000  Uiso   1.00
N273   N     0.07148   0.50648   0.01048   0.00000  Uiso   1.00
N274   N     0.18423   0.85614   0.82806   0.00000  Uiso   1.00
N275   N     0.83708   0.73383   0.70873   0.00000  Uiso   1.00
N276   N     0.09827   0.49068   0.88427   0.00000  Uiso   1.00
C277   C     0.98926   0.28926   0.94435   0.00000  Uiso   1.00
C278   C     0.94228   0.24870   0.91624   0.00000  Uiso   1.00
C279   C     0.91770   0.20579   0.96291   0.00000  Uiso   1.00
C280   C     0.87536   0.17329   0.92607   0.00000  Uiso   1.00
C281   C     0.80503   0.10876   0.89468   0.00000  Uiso   1.00
C282   C     0.03796   0.28240   0.88335   0.00000  Uiso   1.00
C283   C     0.09383   0.26783   0.90237   0.00000  Uiso   1.00
C284   C     0.13203   0.26370   0.83783   0.00000  Uiso   1.00
C285   C     0.21025   0.25153   0.75538   0.00000  Uiso   1.00
C286   C     0.96596   0.34940   0.93174   0.00000  Uiso   1.00
C287   C     0.96132   0.39119   0.99143   0.00000  Uiso   1.00
C288   C     0.93891   0.44348   0.96763   0.00000  Uiso   1.00
C289   C     0.90535   0.53535   0.96030   0.00000  Uiso   1.00
C290   C     0.95775   0.30784   0.79593   0.00000  Uiso   1.00
C291   C     0.92516   0.25879   0.83563   0.00000  Uiso   1.00
C292   C     0.88284   0.22635   0.79870   0.00000  Uiso   1.00
C293   C     0.85821   0.18340   0.84531   0.00000  Uiso   1.00
C294   C     0.02084   0.29249   0.80274   0.00000  Uiso   1.00
C295   C     0.05897   0.28839   0.73816   0.00000  Uiso   1.00
C296   C     0.11488   0.27381   0.75707   0.00000  Uiso   1.00
C297   C     0.94885   0.35950   0.85112   0.00000  Uiso   1.00
C298   C     0.92645   0.41174   0.82722   0.00000  Uiso   1.00
C299   C     0.92177   0.45359   0.88686   0.00000  Uiso   1.00
H300   H     0.00259   0.28140   0.00711   0.00000  Uiso   1.00
H301   H     0.93097   0.19799   0.02529   0.00000  Uiso   1.00
H302   H     0.10706   0.26002   0.96476   0.00000  Uiso   1.00
H303   H     0.97457   0.38336   0.05380   0.00000  Uiso   1.00
H304   H     0.84402   0.10996   0.00990   0.00000  Uiso   1.00
H305   H     0.21534   0.24078   0.88226   0.00000  Uiso   1.00
H306   H     0.93595   0.50085   0.07003   0.00000  Uiso   1.00
H307   H     0.94443   0.31570   0.73316   0.00000  Uiso   1.00
H308   H     0.86961   0.23417   0.73632   0.00000  Uiso   1.00
H309   H     0.04571   0.29621   0.67578   0.00000  Uiso   1.00
H310   H     0.91321   0.41954   0.76483   0.00000  Uiso   1.00
H311   H     0.79422   0.13932   0.77535   0.00000  Uiso   1.00
H312   H     0.16554   0.27014   0.64771   0.00000  Uiso   1.00
H313   H     0.88615   0.53022   0.83549   0.00000  Uiso   1.00
O314   O     0.77097   0.07038   0.89963   0.00000  Uiso   1.00
O315   O     0.25812   0.24202   0.73218   0.00000  Uiso   1.00
O316   O     0.89156   0.58323   0.97853   0.00000  Uiso   1.00
N317   N     0.84256   0.12806   0.95427   0.00000  Uiso   1.00
N318   N     0.18972   0.25036   0.83493   0.00000  Uiso   1.00
N319   N     0.92852   0.49352   0.01048   0.00000  Uiso   1.00
N320   N     0.81577   0.14386   0.82806   0.00000  Uiso   1.00
N321   N     0.16292   0.26617   0.70873   0.00000  Uiso   1.00
N322   N     0.90173   0.50932   0.88427   0.00000  Uiso   1.00
C323   C     0.48926   0.78926   0.44435   0.00000  Uiso   1.00
C324   C     0.44228   0.74870   0.41624   0.00000  Uiso   1.00
C325   C     0.41770   0.70579   0.46291   0.00000  Uiso   1.00
C326   C     0.37536   0.67329   0.42607   0.00000  Uiso   1.00
C327   C     0.30503   0.60876   0.39468   0.00000  Uiso   1.00
C328   C     0.53796   0.78240   0.38335   0.00000  Uiso   1.00
C329   C     0.59383   0.76783   0.40237   0.00000  Uiso   1.00
C330   C     0.63203   0.76370   0.33783   0.00000  Uiso   1.00
C331   C     0.71025   0.75153   0.25538   0.00000  Uiso   1.00
C332   C     0.46596   0.84940   0.43174   0.00000  Uiso   1.00
C333   C     0.46132   0.89119   0.49143   0.00000  Uiso   1.00
C334   C     0.43891   0.94348   0.46763   0.00000  Uiso   1.00
C335   C     0.40535   0.03535   0.46030   0.00000  Uiso   1.00
C336   C     0.45775   0.80784   0.29593   0.00000  Uiso   1.00
C337   C     0.42516   0.75879   0.33563   0.00000  Uiso   1.00
C338   C     0.38284   0.72635   0.29870   0.00000  Uiso   1.00
C339   C     0.35821   0.68340   0.34531   0.00000  Uiso   1.00
C340   C     0.52084   0.79249   0.30274   0.00000  Uiso   1.00
C341   C     0.55897   0.78839   0.23816   0.00000  Uiso   1.00
C342   C     0.61488   0.77381   0.25707   0.00000  Uiso   1.00
C343   C     0.44885   0.85950   0.35112   0.00000  Uiso   1.00
C344   C     0.42645   0.91174   0.32722   0.00000  Uiso   1.00
C345   C     0.42177   0.95359   0.38686   0.00000  Uiso   1.00
H346   H     0.50259   0.78140   0.50711   0.00000  Uiso   1.00
H347   H     0.43097   0.69799   0.52529   0.00000  Uiso   1.00
H348   H     0.60706   0.76002   0.46476   0.00000  Uiso   1.00
H349   H     0.47457   0.88336   0.55380   0.00000  Uiso   1.00
H350   H     0.34402   0.60996   0.50990   0.00000  Uiso   1.00
H351   H     0.71534   0.74078   0.38226   0.00000  Uiso   1.00
H352   H     0.43595   0.00085   0.57003   0.00000  Uiso   1.00
H353   H     0.44443   0.81570   0.23316   0.00000  Uiso   1.00
H354   H     0.36961   0.73417   0.23632   0.00000  Uiso   1.00
H355   H     0.54571   0.79621   0.17578   0.00000  Uiso   1.00
H356   H     0.41321   0.91954   0.26483   0.00000  Uiso   1.00
H357   H     0.29422   0.63932   0.27535   0.00000  Uiso   1.00
H358   H     0.66554   0.77014   0.14771   0.00000  Uiso   1.00
H359   H     0.38615   0.03022   0.33549   0.00000  Uiso   1.00
O360   O     0.27097   0.57038   0.39963   0.00000  Uiso   1.00
O361   O     0.75812   0.74202   0.23218   0.00000  Uiso   1.00
O362   O     0.39156   0.08323   0.47853   0.00000  Uiso   1.00
N363   N     0.34256   0.62806   0.45427   0.00000  Uiso   1.00
N364   N     0.68972   0.75036   0.33493   0.00000  Uiso   1.00
N365   N     0.42852   0.99352   0.51048   0.00000  Uiso   1.00
N366   N     0.31577   0.64386   0.32806   0.00000  Uiso   1.00
N367   N     0.66292   0.76617   0.20873   0.00000  Uiso   1.00
N368   N     0.40173   0.00932   0.38427   0.00000  Uiso   1.00
C369   C     0.28926   0.01074   0.05565   0.00000  Uiso   1.00
C370   C     0.24870   0.05772   0.08376   0.00000  Uiso   1.00
C371   C     0.20579   0.08230   0.03709   0.00000  Uiso   1.00
C372   C     0.17329   0.12464   0.07393   0.00000  Uiso   1.00
C373   C     0.10876   0.19497   0.10532   0.00000  Uiso   1.00
C374   C     0.28240   0.96204   0.11665   0.00000  Uiso   1.00
C375   C     0.26783   0.90617   0.09763   0.00000  Uiso   1.00
C376   C     0.26370   0.86797   0.16217   0.00000  Uiso   1.00
C377   C     0.25153   0.78975   0.24462   0.00000  Uiso   1.00
C378   C     0.34940   0.03404   0.06826   0.00000  Uiso   1.00
C379   C     0.39119   0.03868   0.00857   0.00000  Uiso   1.00
C380   C     0.44348   0.06109   0.03237   0.00000  Uiso   1.00
C381   C     0.53535   0.09465   0.03970   0.00000  Uiso   1.00
C382   C     0.30784   0.04225   0.20407   0.00000  Uiso   1.00
C383   C     0.25879   0.07484   0.16437   0.00000  Uiso   1.00
C384   C     0.22635   0.11716   0.20130   0.00000  Uiso   1.00
C385   C     0.18340   0.14179   0.15469   0.00000  Uiso   1.00
C386   C     0.29249   0.97916   0.19726   0.00000  Uiso   1.00
C387   C     0.28839   0.94103   0.26184   0.00000  Uiso   1.00
C388   C     0.27381   0.88512   0.24293   0.00000  Uiso   1.00
C389   C     0.35950   0.05115   0.14888   0.00000  Uiso   1.00
C390   C     0.41174   0.07355   0.17278   0.00000  Uiso   1.00
C391   C     0.45359   0.07823   0.11314   0.00000  Uiso   1.00
H392   H     0.28140   0.99741   0.99289   0.00000  Uiso   1.00
H393   H     0.19799   0.06903   0.97471   0.00000  Uiso   1.00
H394   H     0.26002   0.89294   0.03524   0.00000  Uiso   1.00
H395   H     0.38336   0.02543   0.94620   0.00000  Uiso   1.00
H396   H     0.10996   0.15598   0.99010   0.00000  Uiso   1.00
H397   H     0.24078   0.78466   0.11774   0.00000  Uiso   1.00
H398   H     0.50085   0.06405   0.92997   0.00000  Uiso   1.00
H399   H     0.31570   0.05557   0.26684   0.00000  Uiso   1.00
H400   H     0.23417   0.13039   0.26368   0.00000  Uiso   1.00
H401   H     0.29621   0.95429   0.32422   0.00000  Uiso   1.00
H402   H     0.41954   0.08679   0.23517   0.00000  Uiso   1.00
H403   H     0.13932   0.20578   0.22465   0.00000  Uiso   1.00
H404   H     0.27014   0.83446   0.35229   0.00000  Uiso   1.00
H405   H     0.53022   0.11385   0.16451   0.00000  Uiso   1.00
O406   O     0.07038   0.22903   0.10037   0.00000  Uiso   1.00
O407   O     0.24202   0.74188   0.26782   0.00000  Uiso   1.00
O408   O     0.58323   0.10844   0.02147   0.00000  Uiso   1.00
N409   N     0.12806   0.15744   0.04573   0.00000  Uiso   1.00
N410   N     0.25036   0.81028   0.16507   0.00000  Uiso   1.00
N411   N     0.49352   0.07148   0.98952   0.00000  Uiso   1.00
N412   N     0.14386   0.18423   0.17194   0.00000  Uiso   1.00
N413   N     0.26617   0.83708   0.29127   0.00000  Uiso   1.00
N414   N     0.50932   0.09827   0.11573   0.00000  Uiso   1.00
C415   C     0.78926   0.51074   0.55565   0.00000  Uiso   1.00
C416   C     0.74870   0.55772   0.58376   0.00000  Uiso   1.00
C417   C     0.70579   0.58230   0.53709   0.00000  Uiso   1.00
C418   C     0.67329   0.62464   0.57393   0.00000  Uiso   1.00
C419   C     0.60876   0.69497   0.60532   0.00000  Uiso   1.00
C420   C     0.78240   0.46204   0.61665   0.00000  Uiso   1.00
C421   C     0.76783   0.40617   0.59763   0.00000  Uiso   1.00
C422   C     0.76370   0.36797   0.66217   0.00000  Uiso   1.00
C423   C     0.75153   0.28975   0.74462   0.00000  Uiso   1.00
C424   C     0.84940   0.53404   0.56826   0.00000  Uiso   1.00
C425   C     0.89119   0.53868   0.50857   0.00000  Uiso   1.00
C426   C     0.94348   0.56109   0.53237   0.00000  Uiso   1.00
C427   C     0.03535   0.59465   0.53970   0.00000  Uiso   1.00
C428   C     0.80784   0.54225   0.70407   0.00000  Uiso   1.00
C429   C     0.75879   0.57484   0.66437   0.00000  Uiso   1.00
C430   C     0.72635   0.61716   0.70130   0.00000  Uiso   1.00
C431   C     0.68340   0.64179   0.65469   0.00000  Uiso   1.00
C432   C     0.79249   0.47916   0.69726   0.00000  Uiso   1.00
C433   C     0.78839   0.44103   0.76184   0.00000  Uiso   1.00
C434   C     0.77381   0.38512   0.74293   0.00000  Uiso   1.00
C435   C     0.85950   0.55115   0.64888   0.00000  Uiso   1.00
C436   C     0.91174   0.57355   0.67278   0.00000  Uiso   1.00
C437   C     0.95359   0.57823   0.61314   0.00000  Uiso   1.00
H438   H     0.78140   0.49741   0.49289   0.00000  Uiso   1.00
H439   H     0.69799   0.56903   0.47471   0.00000  Uiso   1.00
H440   H     0.76002   0.39294   0.53524   0.00000  Uiso   1.00
H441   H     0.88336   0.52543   0.44620   0.00000  Uiso   1.00
H442   H     0.60996   0.65598   0.49010   0.00000  Uiso   1.00
H443   H     0.74078   0.28466   0.61774   0.00000  Uiso   1.00
H444   H     0.00085   0.56405   0.42997   0.00000  Uiso   1.00
H445   H     0.81570   0.55557   0.76684   0.00000  Uiso   1.00
H446   H     0.73417   0.63039   0.76368   0.00000  Uiso   1.00
H447   H     0.79621   0.45429   0.82422   0.00000  Uiso   1.00
H448   H     0.91954   0.58679   0.73517   0.00000  Uiso   1.00
H449   H     0.63932   0.70578   0.72465   0.00000  Uiso   1.00
H450   H     0.77014   0.33446   0.85229   0.00000  Uiso   1.00
H451   H     0.03022   0.61385   0.66451   0.00000  Uiso   1.00
O452   O     0.57038   0.72903   0.60037   0.00000  Uiso   1.00
O453   O     0.74202   0.24188   0.76782   0.00000  Uiso   1.00
O454   O     0.08323   0.60844   0.52147   0.00000  Uiso   1.00
N455   N     0.62806   0.65744   0.54573   0.00000  Uiso   1.00
N456   N     0.75036   0.31028   0.66507   0.00000  Uiso   1.00
N457   N     0.99352   0.57148   0.48952   0.00000  Uiso   1.00
N458   N     0.64386   0.68423   0.67194   0.00000  Uiso   1.00
N459   N     0.76617   0.33708   0.79127   0.00000  Uiso   1.00
N460   N     0.00932   0.59827   0.61573   0.00000  Uiso   1.00
C461   C     0.21074   0.48926   0.55565   0.00000  Uiso   1.00
C462   C     0.25130   0.44228   0.58376   0.00000  Uiso   1.00
C463   C     0.29421   0.41770   0.53709   0.00000  Uiso   1.00
C464   C     0.32671   0.37536   0.57393   0.00000  Uiso   1.00
C465   C     0.39124   0.30503   0.60532   0.00000  Uiso   1.00
C466   C     0.21760   0.53796   0.61665   0.00000  Uiso   1.00
C467   C     0.23217   0.59383   0.59763   0.00000  Uiso   1.00
C468   C     0.23630   0.63203   0.66217   0.00000  Uiso   1.00
C469   C     0.24847   0.71025   0.74462   0.00000  Uiso   1.00
C470   C     0.15060   0.46596   0.56826   0.00000  Uiso   1.00
C471   C     0.10881   0.46132   0.50857   0.00000  Uiso   1.00
C472   C     0.05652   0.43891   0.53237   0.00000  Uiso   1.00
C473   C     0.96465   0.40535   0.53970   0.00000  Uiso   1.00
C474   C     0.19216   0.45775   0.70407   0.00000  Uiso   1.00
C475   C     0.24121   0.42516   0.66437   0.00000  Uiso   1.00
C476   C     0.27365   0.38284   0.70130   0.00000  Uiso   1.00
C477   C     0.31660   0.35821   0.65469   0.00000  Uiso   1.00
C478   C     0.20751   0.52084   0.69726   0.00000  Uiso   1.00
C479   C     0.21161   0.55897   0.76184   0.00000  Uiso   1.00
C480   C     0.22619   0.61488   0.74293   0.00000  Uiso   1.00
C481   C     0.14050   0.44885   0.64888   0.00000  Uiso   1.00
C482   C     0.08826   0.42645   0.67278   0.00000  Uiso   1.00
C483   C     0.04641   0.42177   0.61314   0.00000  Uiso   1.00
H484   H     0.21860   0.50259   0.49289   0.00000  Uiso   1.00
H485   H     0.30201   0.43097   0.47471   0.00000  Uiso   1.00
H486   H     0.23998   0.60706   0.53524   0.00000  Uiso   1.00
H487   H     0.11664   0.47457   0.44620   0.00000  Uiso   1.00
H488   H     0.39004   0.34402   0.49010   0.00000  Uiso   1.00
H489   H     0.25922   0.71534   0.61774   0.00000  Uiso   1.00
H490   H     0.99915   0.43595   0.42997   0.00000  Uiso   1.00
H491   H     0.18430   0.44443   0.76684   0.00000  Uiso   1.00
H492   H     0.26583   0.36961   0.76368   0.00000  Uiso   1.00
H493   H     0.20379   0.54571   0.82422   0.00000  Uiso   1.00
H494   H     0.08046   0.41321   0.73517   0.00000  Uiso   1.00
H495   H     0.36068   0.29422   0.72465   0.00000  Uiso   1.00
H496   H     0.22986   0.66554   0.85229   0.00000  Uiso   1.00
H497   H     0.96978   0.38615   0.66451   0.00000  Uiso   1.00
O498   O     0.42962   0.27097   0.60037   0.00000  Uiso   1.00
O499   O     0.25798   0.75812   0.76782   0.00000  Uiso   1.00
O500   O     0.91677   0.39156   0.52147   0.00000  Uiso   1.00
N501   N     0.37194   0.34256   0.54573   0.00000  Uiso   1.00
N502   N     0.24964   0.68972   0.66507   0.00000  Uiso   1.00
N503   N     0.00648   0.42852   0.48952   0.00000  Uiso   1.00
N504   N     0.35614   0.31577   0.67194   0.00000  Uiso   1.00
N505   N     0.23383   0.66292   0.79127   0.00000  Uiso   1.00
N506   N     0.99068   0.40173   0.61573   0.00000  Uiso   1.00
C507   C     0.71074   0.98926   0.05565   0.00000  Uiso   1.00
C508   C     0.75130   0.94228   0.08376   0.00000  Uiso   1.00
C509   C     0.79421   0.91770   0.03709   0.00000  Uiso   1.00
C510   C     0.82671   0.87536   0.07393   0.00000  Uiso   1.00
C511   C     0.89124   0.80503   0.10532   0.00000  Uiso   1.00
C512   C     0.71760   0.03796   0.11665   0.00000  Uiso   1.00
C513   C     0.73217   0.09383   0.09763   0.00000  Uiso   1.00
C514   C     0.73630   0.13203   0.16217   0.00000  Uiso   1.00
C515   C     0.74847   0.21025   0.24462   0.00000  Uiso   1.00
C516   C     0.65060   0.96596   0.06826   0.00000  Uiso   1.00
C517   C     0.60881   0.96132   0.00857   0.00000  Uiso   1.00
C518   C     0.55652   0.93891   0.03237   0.00000  Uiso   1.00
C519   C     0.46465   0.90535   0.03970   0.00000  Uiso   1.00
C520   C     0.69216   0.95775   0.20407   0.00000  Uiso   1.00
C521   C     0.74121   0.92516   0.16437   0.00000  Uiso   1.00
C522   C     0.77365   0.88284   0.20130   0.00000  Uiso   1.00
C523   C     0.81660   0.85821   0.15469   0.00000  Uiso   1.00
C524   C     0.70751   0.02084   0.19726   0.00000  Uiso   1.00
C525   C     0.71161   0.05897   0.26184   0.00000  Uiso   1.00
C526   C     0.72619   0.11488   0.24293   0.00000  Uiso   1.00
C527   C     0.64050   0.94885   0.14888   0.00000  Uiso   1.00
C528   C     0.58826   0.92645   0.17278   0.00000  Uiso   1.00
C529   C     0.54641   0.92177   0.11314   0.00000  Uiso   1.00
H530   H     0.71860   0.00259   0.99289   0.00000  Uiso   1.00
H531   H     0.80201   0.93097   0.97471   0.00000  Uiso   1.00
H532   H     0.73998   0.10706   0.03524   0.00000  Uiso   1.00
H533   H     0.61664   0.97457   0.94620   0.00000  Uiso   1.00
H534   H     0.89004   0.84402   0.99010   0.00000  Uiso   1.00
H535   H     0.75922   0.21534   0.11774   0.00000  Uiso   1.00
H536   H     0.49915   0.93595   0.92997   0.00000  Uiso   1.00
H537   H     0.68430   0.94443   0.26684   0.00000  Uiso   1.00
H538   H     0.76583   0.86961   0.26368   0.00000  Uiso   1.00
H539   H     0.70379   0.04571   0.32422   0.00000  Uiso   1.00
H540   H     0.58046   0.91321   0.23517   0.00000  Uiso   1.00
H541   H     0.86068   0.79422   0.22465   0.00000  Uiso   1.00
H542   H     0.72986   0.16554   0.35229   0.00000  Uiso   1.00
H543   H     0.46978   0.88615   0.16451   0.00000  Uiso   1.00
O544   O     0.92962   0.77097   0.10037   0.00000  Uiso   1.00
O545   O     0.75798   0.25812   0.26782   0.00000  Uiso   1.00
O546   O     0.41677   0.89156   0.02147   0.00000  Uiso   1.00
N547   N     0.87194   0.84256   0.04573   0.00000  Uiso   1.00
N548   N     0.74964   0.18972   0.16507   0.00000  Uiso   1.00
N549   N     0.50648   0.92852   0.98952   0.00000  Uiso   1.00
N550   N     0.85614   0.81577   0.17194   0.00000  Uiso   1.00
N551   N     0.73383   0.16292   0.29127   0.00000  Uiso   1.00
N552   N     0.49068   0.90173   0.11573   0.00000  Uiso   1.00
C553   C     0.48926   0.28926   0.80565   0.00000  Uiso   1.00
C554   C     0.44228   0.24870   0.83376   0.00000  Uiso   1.00
C555   C     0.41770   0.20579   0.78709   0.00000  Uiso   1.00
C556   C     0.37536   0.17329   0.82393   0.00000  Uiso   1.00
C557   C     0.30503   0.10876   0.85532   0.00000  Uiso   1.00
C558   C     0.53796   0.28240   0.86665   0.00000  Uiso   1.00
C559   C     0.59383   0.26783   0.84763   0.00000  Uiso   1.00
C560   C     0.63203   0.26370   0.91217   0.00000  Uiso   1.00
C561   C     0.71025   0.25153   0.99462   0.00000  Uiso   1.00
C562   C     0.46596   0.34940   0.81826   0.00000  Uiso   1.00
C563   C     0.46132   0.39119   0.75857   0.00000  Uiso   1.00
C564   C     0.43891   0.44348   0.78237   0.00000  Uiso   1.00
C565   C     0.40535   0.53535   0.78970   0.00000  Uiso   1.00
C566   C     0.45775   0.30784   0.95407   0.00000  Uiso   1.00
C567   C     0.42516   0.25879   0.91437   0.00000  Uiso   1.00
C568   C     0.38284   0.22635   0.95130   0.00000  Uiso   1.00
C569   C     0.35821   0.18340   0.90469   0.00000  Uiso   1.00
C570   C     0.52084   0.29249   0.94726   0.00000  Uiso   1.00
C571   C     0.55897   0.28839   0.01184   0.00000  Uiso   1.00
C572   C     0.61488   0.27381   0.99293   0.00000  Uiso   1.00
C573   C     0.44885   0.35950   0.89888   0.00000  Uiso   1.00
C574   C     0.42645   0.41174   0.92278   0.00000  Uiso   1.00
C575   C     0.42177   0.45359   0.86314   0.00000  Uiso   1.00
H576   H     0.50259   0.28140   0.74289   0.00000  Uiso   1.00
H577   H     0.43097   0.19799   0.72471   0.00000  Uiso   1.00
H578   H     0.60706   0.26002   0.78524   0.00000  Uiso   1.00
H579   H     0.47457   0.38336   0.69620   0.00000  Uiso   1.00
H580   H     0.34402   0.10996   0.74010   0.00000  Uiso   1.00
H581   H     0.71534   0.24078   0.86774   0.00000  Uiso   1.00
H582   H     0.43595   0.50085   0.67997   0.00000  Uiso   1.00
H583   H     0.44443   0.31570   0.01684   0.00000  Uiso   1.00
H584   H     0.36961   0.23417   0.01368   0.00000  Uiso   1.00
H585   H     0.54571   0.29621   0.07422   0.00000  Uiso   1.00
H586   H     0.41321   0.41954   0.98517   0.00000  Uiso   1.00
H587   H     0.29422   0.13932   0.97465   0.00000  Uiso   1.00
H588   H     0.66554   0.27014   0.10229   0.00000  Uiso   1.00
H589   H     0.38615   0.53022   0.91451   0.00000  Uiso   1.00
O590   O     0.27097   0.07038   0.85037   0.00000  Uiso   1.00
O591   O     0.75812   0.24202   0.01782   0.00000  Uiso   1.00
O592   O     0.39156   0.58323   0.77147   0.00000  Uiso   1.00
N593   N     0.34256   0.12806   0.79573   0.00000  Uiso   1.00
N594   N     0.68972   0.25036   0.91507   0.00000  Uiso   1.00
N595   N     0.42852   0.49352   0.73952   0.00000  Uiso   1.00
N596   N     0.31577   0.14386   0.92194   0.00000  Uiso   1.00
N597   N     0.66292   0.26617   0.04127   0.00000  Uiso   1.00
N598   N     0.40173   0.50932   0.86573   0.00000  Uiso   1.00
C599   C     0.98926   0.78926   0.30565   0.00000  Uiso   1.00
C600   C     0.94228   0.74870   0.33376   0.00000  Uiso   1.00
C601   C     0.91770   0.70579   0.28709   0.00000  Uiso   1.00
C602   C     0.87536   0.67329   0.32393   0.00000  Uiso   1.00
C603   C     0.80503   0.60876   0.35532   0.00000  Uiso   1.00
C604   C     0.03796   0.78240   0.36665   0.00000  Uiso   1.00
C605   C     0.09383   0.76783   0.34763   0.00000  Uiso   1.00
C606   C     0.13203   0.76370   0.41217   0.00000  Uiso   1.00
C607   C     0.21025   0.75153   0.49462   0.00000  Uiso   1.00
C608   C     0.96596   0.84940   0.31826   0.00000  Uiso   1.00
C609   C     0.96132   0.89119   0.25857   0.00000  Uiso   1.00
C610   C     0.93891   0.94348   0.28237   0.00000  Uiso   1.00
C611   C     0.90535   0.03535   0.28970   0.00000  Uiso   1.00
C612   C     0.95775   0.80784   0.45407   0.00000  Uiso   1.00
C613   C     0.92516   0.75879   0.41437   0.00000  Uiso   1.00
C614   C     0.88284   0.72635   0.45130   0.00000  Uiso   1.00
C615   C     0.85821   0.68340   0.40469   0.00000  Uiso   1.00
C616   C     0.02084   0.79249   0.44726   0.00000  Uiso   1.00
C617   C     0.05897   0.78839   0.51184   0.00000  Uiso   1.00
C618   C     0.11488   0.77381   0.49293   0.00000  Uiso   1.00
C619   C     0.94885   0.85950   0.39888   0.00000  Uiso   1.00
C620   C     0.92645   0.91174   0.42278   0.00000  Uiso   1.00
C621   C     0.92177   0.95359   0.36314   0.00000  Uiso   1.00
H622   H     0.00259   0.78140   0.24289   0.00000  Uiso   1.00
H623   H     0.93097   0.69799   0.22471   0.00000  Uiso   1.00
H624   H     0.10706   0.76002   0.28524   0.00000  Uiso   1.00
H625   H     0.97457   0.88336   0.19620   0.00000  Uiso   1.00
H626   H     0.84402   0.60996   0.24010   0.00000  Uiso   1.00
H627   H     0.21534   0.74078   0.36774   0.00000  Uiso   1.00
H628   H     0.93595   0.00085   0.17997   0.00000  Uiso   1.00
H629   H     0.94443   0.81570   0.51684   0.00000  Uiso   1.00
H630   H     0.86961   0.73417   0.51368   0.00000  Uiso   1.00
H631   H     0.04571   0.79621   0.57422   0.00000  Uiso   1.00
H632   H     0.91321   0.91954   0.48517   0.00000  Uiso   1.00
H633   H     0.79422   0.63932   0.47465   0.00000  Uiso   1.00
H634   H     0.16554   0.77014   0.60229   0.00000  Uiso   1.00
H635   H     0.88615   0.03022   0.41451   0.00000  Uiso   1.00
O636   O     0.77097   0.57038   0.35037   0.00000  Uiso   1.00
O637   O     0.25812   0.74202   0.51782   0.00000  Uiso   1.00
O638   O     0.89156   0.08323   0.27147   0.00000  Uiso   1.00
N639   N     0.84256   0.62806   0.29573   0.00000  Uiso   1.00
N640   N     0.18972   0.75036   0.41507   0.00000  Uiso   1.00
N641   N     0.92852   0.99352   0.23952   0.00000  Uiso   1.00
N642   N     0.81577   0.64386   0.42194   0.00000  Uiso   1.00
N643   N     0.16292   0.76617   0.54127   0.00000  Uiso   1.00
N644   N     0.90173   0.00932   0.36573   0.00000  Uiso   1.00
C645   C     0.01074   0.21074   0.30565   0.00000  Uiso   1.00
C646   C     0.05772   0.25130   0.33376   0.00000  Uiso   1.00
C647   C     0.08230   0.29421   0.28709   0.00000  Uiso   1.00
C648   C     0.12464   0.32671   0.32393   0.00000  Uiso   1.00
C649   C     0.19497   0.39124   0.35532   0.00000  Uiso   1.00
C650   C     0.96204   0.21760   0.36665   0.00000  Uiso   1.00
C651   C     0.90617   0.23217   0.34763   0.00000  Uiso   1.00
C652   C     0.86797   0.23630   0.41217   0.00000  Uiso   1.00
C653   C     0.78975   0.24847   0.49462   0.00000  Uiso   1.00
C654   C     0.03404   0.15060   0.31826   0.00000  Uiso   1.00
C655   C     0.03868   0.10881   0.25857   0.00000  Uiso   1.00
C656   C     0.06109   0.05652   0.28237   0.00000  Uiso   1.00
C657   C     0.09465   0.96465   0.28970   0.00000  Uiso   1.00
C658   C     0.04225   0.19216   0.45407   0.00000  Uiso   1.00
C659   C     0.07484   0.24121   0.41437   0.00000  Uiso   1.00
C660   C     0.11716   0.27365   0.45130   0.00000  Uiso   1.00
C661   C     0.14179   0.31660   0.40469   0.00000  Uiso   1.00
C662   C     0.97916   0.20751   0.44726   0.00000  Uiso   1.00
C663   C     0.94103   0.21161   0.51184   0.00000  Uiso   1.00
C664   C     0.88512   0.22619   0.49293   0.00000  Uiso   1.00
C665   C     0.05115   0.14050   0.39888   0.00000  Uiso   1.00
C666   C     0.07355   0.08826   0.42278   0.00000  Uiso   1.00
C667   C     0.07823   0.04641   0.36314   0.00000  Uiso   1.00
H668   H     0.99741   0.21860   0.24289   0.00000  Uiso   1.00
H669   H     0.06903   0.30201   0.22471   0.00000  Uiso   1.00
H670   H     0.89294   0.23998   0.28524   0.00000  Uiso   1.00
H671   H     0.02543   0.11664   0.19620   0.00000  Uiso   1.00
H672   H     0.15598   0.39004   0.24010   0.00000  Uiso   1.00
H673   H     0.78466   0.25922   0.36774   0.00000  Uiso   1.00
H674   H     0.06405   0.99915   0.17997   0.00000  Uiso   1.00
H675   H     0.05557   0.18430   0.51684   0.00000  Uiso   1.00
H676   H     0.13039   0.26583   0.51368   0.00000  Uiso   1.00
H677   H     0.95429   0.20379   0.57422   0.00000  Uiso   1.00
H678   H     0.08679   0.08046   0.48517   0.00000  Uiso   1.00
H679   H     0.20578   0.36068   0.47465   0.00000  Uiso   1.00
H680   H     0.83446   0.22986   0.60229   0.00000  Uiso   1.00
H681   H     0.11385   0.96978   0.41451   0.00000  Uiso   1.00
O682   O     0.22903   0.42962   0.35037   0.00000  Uiso   1.00
O683   O     0.74188   0.25798   0.51782   0.00000  Uiso   1.00
O684   O     0.10844   0.91677   0.27147   0.00000  Uiso   1.00
N685   N     0.15744   0.37194   0.29573   0.00000  Uiso   1.00
N686   N     0.81028   0.24964   0.41507   0.00000  Uiso   1.00
N687   N     0.07148   0.00648   0.23952   0.00000  Uiso   1.00
N688   N     0.18423   0.35614   0.42194   0.00000  Uiso   1.00
N689   N     0.83708   0.23383   0.54127   0.00000  Uiso   1.00
N690   N     0.09827   0.99068   0.36573   0.00000  Uiso   1.00
C691   C     0.51074   0.71074   0.80565   0.00000  Uiso   1.00
C692   C     0.55772   0.75130   0.83376   0.00000  Uiso   1.00
C693   C     0.58230   0.79421   0.78709   0.00000  Uiso   1.00
C694   C     0.62464   0.82671   0.82393   0.00000  Uiso   1.00
C695   C     0.69497   0.89124   0.85532   0.00000  Uiso   1.00
C696   C     0.46204   0.71760   0.86665   0.00000  Uiso   1.00
C697   C     0.40617   0.73217   0.84763   0.00000  Uiso   1.00
C698   C     0.36797   0.73630   0.91217   0.00000  Uiso   1.00
C699   C     0.28975   0.74847   0.99462   0.00000  Uiso   1.00
C700   C     0.53404   0.65060   0.81826   0.00000  Uiso   1.00
C701   C     0.53868   0.60881   0.75857   0.00000  Uiso   1.00
C702   C     0.56109   0.55652   0.78237   0.00000  Uiso   1.00
C703   C     0.59465   0.46465   0.78970   0.00000  Uiso   1.00
C704   C     0.54225   0.69216   0.95407   0.00000  Uiso   1.00
C705   C     0.57484   0.74121   0.91437   0.00000  Uiso   1.00
C706   C     0.61716   0.77365   0.95130   0.00000  Uiso   1.00
C707   C     0.64179   0.81660   0.90469   0.00000  Uiso   1.00
C708   C     0.47916   0.70751   0.94726   0.00000  Uiso   1.00
C709   C     0.44103   0.71161   0.01184   0.00000  Uiso   1.00
C710   C     0.38512   0.72619   0.99293   0.00000  Uiso   1.00
C711   C     0.55115   0.64050   0.89888   0.00000  Uiso   1.00
C712   C     0.57355   0.58826   0.92278   0.00000  Uiso   1.00
C713   C     0.57823   0.54641   0.86314   0.00000  Uiso   1.00
H714   H     0.49741   0.71860   0.74289   0.00000  Uiso   1.00
H715   H     0.56903   0.80201   0.72471   0.00000  Uiso   1.00
H716   H     0.39294   0.73998   0.78524   0.00000  Uiso   1.00
H717   H     0.52543   0.61664   0.69620   0.00000  Uiso   1.00
H718   H     0.65598   0.89004   0.74010   0.00000  Uiso   1.00
H719   H     0.28466   0.75922   0.86774   0.00000  Uiso   1.00
H720   H     0.56405   0.49915   0.67997   0.00000  Uiso   1.00
H721   H     0.55557   0.68430   0.01684   0.00000  Uiso   1.00
H722   H     0.63039   0.76583   0.01368   0.00000  Uiso   1.00
H723   H     0.45429   0.70379   0.07422   0.00000  Uiso   1.00
H724   H     0.58679   0.58046   0.98517   0.00000  Uiso   1.00
H725   H     0.70578   0.86068   0.97465   0.00000  Uiso   1.00
H726   H     0.33446   0.72986   0.10229   0.00000  Uiso   1.00
H727   H     0.61385   0.46978   0.91451   0.00000  Uiso   1.00
O728   O     0.72903   0.92962   0.85037   0.00000  Uiso   1.00
O729   O     0.24188   0.75798   0.01782   0.00000  Uiso   1.00
O730   O     0.60844   0.41677   0.77147   0.00000  Uiso   1.00
N731   N     0.65744   0.87194   0.79573   0.00000  Uiso   1.00
N732   N     0.31028   0.74964   0.91507   0.00000  Uiso   1.00
N733   N     0.57148   0.50648   0.73952   0.00000  Uiso   1.00
N734   N     0.68423   0.85614   0.92194   0.00000  Uiso   1.00
N735   N     0.33708   0.73383   0.04127   0.00000  Uiso   1.00
N736   N     0.59827   0.49068   0.86573   0.00000  Uiso   1.00
