data_job_05608
_audit_creation_date              2018-12-19
_audit_creation_method            'Materials Studio'
_symmetry_space_group_name_H-M    'P1'
_symmetry_Int_Tables_number       1
_symmetry_cell_setting            triclinic
loop_
_symmetry_equiv_pos_as_xyz
  x,y,z
_cell_length_a                    30.8594
_cell_length_b                    43.7317
_cell_length_c                    7.4666
_cell_angle_alpha                 90.0000
_cell_angle_beta                  90.0000
_cell_angle_gamma                 90.0000
loop_
_atom_site_label
_atom_site_type_symbol
_atom_site_fract_x
_atom_site_fract_y
_atom_site_fract_z
_atom_site_U_iso_or_equiv
_atom_site_adp_type
_atom_site_occupancy
C1     C     0.36578   0.55608   0.80792   0.00000  Uiso   1.00
C2     C     0.32079   0.54786   0.73848   0.00000  Uiso   1.00
C3     C     0.28274   0.54857   0.83744   0.00000  Uiso   1.00
C4     C     0.24491   0.54021   0.74951   0.00000  Uiso   1.00
C5     C     0.17502   0.52875   0.66916   0.00000  Uiso   1.00
C6     C     0.39417   0.52817   0.77306   0.00000  Uiso   1.00
C7     C     0.41782   0.51233   0.90110   0.00000  Uiso   1.00
C8     C     0.44176   0.48740   0.84225   0.00000  Uiso   1.00
C9     C     0.48581   0.44539   0.81558   0.00000  Uiso   1.00
C10    C     0.38271   0.58117   0.68458   0.00000  Uiso   1.00
C11    C     0.39673   0.60990   0.73822   0.00000  Uiso   1.00
C12    C     0.41103   0.62960   0.60488   0.00000  Uiso   1.00
C13    C     0.43729   0.66989   0.44083   0.00000  Uiso   1.00
C14    C     0.36626   0.53997   0.47576   0.00000  Uiso   1.00
C15    C     0.32106   0.53910   0.55807   0.00000  Uiso   1.00
C16    C     0.28327   0.53074   0.46995   0.00000  Uiso   1.00
C17    C     0.24517   0.53144   0.56876   0.00000  Uiso   1.00
C18    C     0.39443   0.51941   0.59265   0.00000  Uiso   1.00
C19    C     0.41835   0.49450   0.53360   0.00000  Uiso   1.00
C20    C     0.44202   0.47863   0.66151   0.00000  Uiso   1.00
C21    C     0.38297   0.57242   0.50416   0.00000  Uiso   1.00
C22    C     0.39726   0.59208   0.37072   0.00000  Uiso   1.00
C23    C     0.41130   0.62083   0.42414   0.00000  Uiso   1.00
H24    H     0.36558   0.56289   0.94838   0.00000  Uiso   1.00
H25    H     0.28255   0.55534   0.97707   0.00000  Uiso   1.00
H26    H     0.41761   0.51911   0.04070   0.00000  Uiso   1.00
H27    H     0.39652   0.61667   0.87785   0.00000  Uiso   1.00
H28    H     0.19062   0.54309   0.92933   0.00000  Uiso   1.00
H29    H     0.47541   0.46671   0.06350   0.00000  Uiso   1.00
H30    H     0.43094   0.67243   0.72009   0.00000  Uiso   1.00
H31    H     0.36647   0.53315   0.33529   0.00000  Uiso   1.00
H32    H     0.28349   0.52397   0.33033   0.00000  Uiso   1.00
H33    H     0.41855   0.48774   0.39397   0.00000  Uiso   1.00
H34    H     0.39746   0.58530   0.23112   0.00000  Uiso   1.00
H35    H     0.19138   0.51763   0.40442   0.00000  Uiso   1.00
H36    H     0.47617   0.44124   0.53859   0.00000  Uiso   1.00
H37    H     0.43171   0.64697   0.19518   0.00000  Uiso   1.00
O38    O     0.13640   0.52485   0.67469   0.00000  Uiso   1.00
O39    O     0.51004   0.42463   0.85071   0.00000  Uiso   1.00
O40    O     0.45170   0.69454   0.40017   0.00000  Uiso   1.00
N41    N     0.20218   0.53837   0.80646   0.00000  Uiso   1.00
N42    N     0.46844   0.46695   0.93191   0.00000  Uiso   1.00
N43    N     0.42688   0.65928   0.61086   0.00000  Uiso   1.00
N44    N     0.20259   0.52467   0.52401   0.00000  Uiso   1.00
N45    N     0.46885   0.45325   0.64946   0.00000  Uiso   1.00
N46    N     0.42729   0.64558   0.32841   0.00000  Uiso   1.00
C47    C     0.36578   0.05608   0.30792   0.00000  Uiso   1.00
C48    C     0.32079   0.04786   0.23848   0.00000  Uiso   1.00
C49    C     0.28274   0.04857   0.33744   0.00000  Uiso   1.00
C50    C     0.24491   0.04021   0.24951   0.00000  Uiso   1.00
C51    C     0.17502   0.02875   0.16916   0.00000  Uiso   1.00
C52    C     0.39417   0.02817   0.27306   0.00000  Uiso   1.00
C53    C     0.41782   0.01233   0.40110   0.00000  Uiso   1.00
C54    C     0.44176   0.98740   0.34225   0.00000  Uiso   1.00
C55    C     0.48581   0.94539   0.31558   0.00000  Uiso   1.00
C56    C     0.38271   0.08117   0.18458   0.00000  Uiso   1.00
C57    C     0.39673   0.10990   0.23822   0.00000  Uiso   1.00
C58    C     0.41103   0.12960   0.10488   0.00000  Uiso   1.00
C59    C     0.43729   0.16989   0.94083   0.00000  Uiso   1.00
C60    C     0.36626   0.03997   0.97576   0.00000  Uiso   1.00
C61    C     0.32106   0.03910   0.05807   0.00000  Uiso   1.00
C62    C     0.28327   0.03074   0.96995   0.00000  Uiso   1.00
C63    C     0.24517   0.03144   0.06876   0.00000  Uiso   1.00
C64    C     0.39443   0.01941   0.09265   0.00000  Uiso   1.00
C65    C     0.41835   0.99450   0.03360   0.00000  Uiso   1.00
C66    C     0.44202   0.97863   0.16151   0.00000  Uiso   1.00
C67    C     0.38297   0.07242   0.00416   0.00000  Uiso   1.00
C68    C     0.39726   0.09208   0.87072   0.00000  Uiso   1.00
C69    C     0.41130   0.12083   0.92414   0.00000  Uiso   1.00
H70    H     0.36558   0.06289   0.44838   0.00000  Uiso   1.00
H71    H     0.28255   0.05534   0.47707   0.00000  Uiso   1.00
H72    H     0.41761   0.01911   0.54070   0.00000  Uiso   1.00
H73    H     0.39652   0.11667   0.37785   0.00000  Uiso   1.00
H74    H     0.19062   0.04309   0.42933   0.00000  Uiso   1.00
H75    H     0.47541   0.96671   0.56350   0.00000  Uiso   1.00
H76    H     0.43094   0.17243   0.22009   0.00000  Uiso   1.00
H77    H     0.36647   0.03315   0.83529   0.00000  Uiso   1.00
H78    H     0.28349   0.02397   0.83033   0.00000  Uiso   1.00
H79    H     0.41855   0.98774   0.89397   0.00000  Uiso   1.00
H80    H     0.39746   0.08530   0.73112   0.00000  Uiso   1.00
H81    H     0.19138   0.01763   0.90442   0.00000  Uiso   1.00
H82    H     0.47617   0.94124   0.03859   0.00000  Uiso   1.00
H83    H     0.43171   0.14697   0.69518   0.00000  Uiso   1.00
O84    O     0.13640   0.02485   0.17469   0.00000  Uiso   1.00
O85    O     0.51004   0.92463   0.35071   0.00000  Uiso   1.00
O86    O     0.45170   0.19454   0.90017   0.00000  Uiso   1.00
N87    N     0.20218   0.03837   0.30646   0.00000  Uiso   1.00
N88    N     0.46844   0.96695   0.43191   0.00000  Uiso   1.00
N89    N     0.42688   0.15928   0.11086   0.00000  Uiso   1.00
N90    N     0.20259   0.02467   0.02401   0.00000  Uiso   1.00
N91    N     0.46885   0.95325   0.14946   0.00000  Uiso   1.00
N92    N     0.42729   0.14558   0.82841   0.00000  Uiso   1.00
C93    C     0.86578   0.55608   0.30792   0.00000  Uiso   1.00
C94    C     0.82079   0.54786   0.23848   0.00000  Uiso   1.00
C95    C     0.78274   0.54857   0.33744   0.00000  Uiso   1.00
C96    C     0.74491   0.54021   0.24951   0.00000  Uiso   1.00
C97    C     0.67502   0.52875   0.16916   0.00000  Uiso   1.00
C98    C     0.89417   0.52817   0.27306   0.00000  Uiso   1.00
C99    C     0.91782   0.51233   0.40110   0.00000  Uiso   1.00
C100   C     0.94176   0.48740   0.34225   0.00000  Uiso   1.00
C101   C     0.98581   0.44539   0.31558   0.00000  Uiso   1.00
C102   C     0.88271   0.58117   0.18458   0.00000  Uiso   1.00
C103   C     0.89673   0.60990   0.23822   0.00000  Uiso   1.00
C104   C     0.91103   0.62960   0.10488   0.00000  Uiso   1.00
C105   C     0.93729   0.66989   0.94083   0.00000  Uiso   1.00
C106   C     0.86626   0.53997   0.97576   0.00000  Uiso   1.00
C107   C     0.82106   0.53910   0.05807   0.00000  Uiso   1.00
C108   C     0.78327   0.53074   0.96995   0.00000  Uiso   1.00
C109   C     0.74517   0.53144   0.06876   0.00000  Uiso   1.00
C110   C     0.89443   0.51941   0.09265   0.00000  Uiso   1.00
C111   C     0.91835   0.49450   0.03360   0.00000  Uiso   1.00
C112   C     0.94202   0.47863   0.16151   0.00000  Uiso   1.00
C113   C     0.88297   0.57242   0.00416   0.00000  Uiso   1.00
C114   C     0.89726   0.59208   0.87072   0.00000  Uiso   1.00
C115   C     0.91130   0.62083   0.92414   0.00000  Uiso   1.00
H116   H     0.86558   0.56289   0.44838   0.00000  Uiso   1.00
H117   H     0.78255   0.55534   0.47707   0.00000  Uiso   1.00
H118   H     0.91761   0.51911   0.54070   0.00000  Uiso   1.00
H119   H     0.89652   0.61667   0.37785   0.00000  Uiso   1.00
H120   H     0.69062   0.54309   0.42933   0.00000  Uiso   1.00
H121   H     0.97541   0.46671   0.56350   0.00000  Uiso   1.00
H122   H     0.93094   0.67243   0.22009   0.00000  Uiso   1.00
H123   H     0.86647   0.53315   0.83529   0.00000  Uiso   1.00
H124   H     0.78349   0.52397   0.83033   0.00000  Uiso   1.00
H125   H     0.91855   0.48774   0.89397   0.00000  Uiso   1.00
H126   H     0.89746   0.58530   0.73112   0.00000  Uiso   1.00
H127   H     0.69138   0.51763   0.90442   0.00000  Uiso   1.00
H128   H     0.97617   0.44124   0.03859   0.00000  Uiso   1.00
H129   H     0.93171   0.64697   0.69518   0.00000  Uiso   1.00
O130   O     0.63640   0.52485   0.17469   0.00000  Uiso   1.00
O131   O     0.01004   0.42463   0.35071   0.00000  Uiso   1.00
O132   O     0.95170   0.69454   0.90017   0.00000  Uiso   1.00
N133   N     0.70218   0.53837   0.30646   0.00000  Uiso   1.00
N134   N     0.96844   0.46695   0.43191   0.00000  Uiso   1.00
N135   N     0.92688   0.65928   0.11086   0.00000  Uiso   1.00
N136   N     0.70259   0.52467   0.02401   0.00000  Uiso   1.00
N137   N     0.96885   0.45325   0.14946   0.00000  Uiso   1.00
N138   N     0.92729   0.64558   0.82841   0.00000  Uiso   1.00
C139   C     0.86578   0.05608   0.80792   0.00000  Uiso   1.00
C140   C     0.82079   0.04786   0.73848   0.00000  Uiso   1.00
C141   C     0.78274   0.04857   0.83744   0.00000  Uiso   1.00
C142   C     0.74491   0.04021   0.74951   0.00000  Uiso   1.00
C143   C     0.67502   0.02875   0.66916   0.00000  Uiso   1.00
C144   C     0.89417   0.02817   0.77306   0.00000  Uiso   1.00
C145   C     0.91782   0.01233   0.90110   0.00000  Uiso   1.00
C146   C     0.94176   0.98740   0.84225   0.00000  Uiso   1.00
C147   C     0.98581   0.94539   0.81558   0.00000  Uiso   1.00
C148   C     0.88271   0.08117   0.68458   0.00000  Uiso   1.00
C149   C     0.89673   0.10990   0.73822   0.00000  Uiso   1.00
C150   C     0.91103   0.12960   0.60488   0.00000  Uiso   1.00
C151   C     0.93729   0.16989   0.44083   0.00000  Uiso   1.00
C152   C     0.86626   0.03997   0.47576   0.00000  Uiso   1.00
C153   C     0.82106   0.03910   0.55807   0.00000  Uiso   1.00
C154   C     0.78327   0.03074   0.46995   0.00000  Uiso   1.00
C155   C     0.74517   0.03144   0.56876   0.00000  Uiso   1.00
C156   C     0.89443   0.01941   0.59265   0.00000  Uiso   1.00
C157   C     0.91835   0.99450   0.53360   0.00000  Uiso   1.00
C158   C     0.94202   0.97863   0.66151   0.00000  Uiso   1.00
C159   C     0.88297   0.07242   0.50416   0.00000  Uiso   1.00
C160   C     0.89726   0.09208   0.37072   0.00000  Uiso   1.00
C161   C     0.91130   0.12083   0.42414   0.00000  Uiso   1.00
H162   H     0.86558   0.06289   0.94838   0.00000  Uiso   1.00
H163   H     0.78255   0.05534   0.97707   0.00000  Uiso   1.00
H164   H     0.91761   0.01911   0.04070   0.00000  Uiso   1.00
H165   H     0.89652   0.11667   0.87785   0.00000  Uiso   1.00
H166   H     0.69062   0.04309   0.92933   0.00000  Uiso   1.00
H167   H     0.97541   0.96671   0.06350   0.00000  Uiso   1.00
H168   H     0.93094   0.17243   0.72009   0.00000  Uiso   1.00
H169   H     0.86647   0.03315   0.33529   0.00000  Uiso   1.00
H170   H     0.78349   0.02397   0.33033   0.00000  Uiso   1.00
H171   H     0.91855   0.98774   0.39397   0.00000  Uiso   1.00
H172   H     0.89746   0.08530   0.23112   0.00000  Uiso   1.00
H173   H     0.69138   0.01763   0.40442   0.00000  Uiso   1.00
H174   H     0.97617   0.94124   0.53859   0.00000  Uiso   1.00
H175   H     0.93171   0.14697   0.19518   0.00000  Uiso   1.00
O176   O     0.63640   0.02485   0.67469   0.00000  Uiso   1.00
O177   O     0.01004   0.92463   0.85071   0.00000  Uiso   1.00
O178   O     0.95170   0.19454   0.40017   0.00000  Uiso   1.00
N179   N     0.70218   0.03837   0.80646   0.00000  Uiso   1.00
N180   N     0.96844   0.96695   0.93191   0.00000  Uiso   1.00
N181   N     0.92688   0.15928   0.61086   0.00000  Uiso   1.00
N182   N     0.70259   0.02467   0.52401   0.00000  Uiso   1.00
N183   N     0.96885   0.95325   0.64946   0.00000  Uiso   1.00
N184   N     0.92729   0.14558   0.32841   0.00000  Uiso   1.00
C185   C     0.63422   0.44392   0.80792   0.00000  Uiso   1.00
C186   C     0.67921   0.45214   0.73848   0.00000  Uiso   1.00
C187   C     0.71726   0.45143   0.83744   0.00000  Uiso   1.00
C188   C     0.75509   0.45979   0.74951   0.00000  Uiso   1.00
C189   C     0.82498   0.47125   0.66916   0.00000  Uiso   1.00
C190   C     0.60583   0.47183   0.77306   0.00000  Uiso   1.00
C191   C     0.58218   0.48767   0.90110   0.00000  Uiso   1.00
C192   C     0.55824   0.51260   0.84225   0.00000  Uiso   1.00
C193   C     0.51419   0.55461   0.81558   0.00000  Uiso   1.00
C194   C     0.61729   0.41883   0.68458   0.00000  Uiso   1.00
C195   C     0.60327   0.39010   0.73822   0.00000  Uiso   1.00
C196   C     0.58897   0.37040   0.60488   0.00000  Uiso   1.00
C197   C     0.56271   0.33011   0.44083   0.00000  Uiso   1.00
C198   C     0.63374   0.46003   0.47576   0.00000  Uiso   1.00
C199   C     0.67894   0.46090   0.55807   0.00000  Uiso   1.00
C200   C     0.71673   0.46926   0.46995   0.00000  Uiso   1.00
C201   C     0.75483   0.46856   0.56876   0.00000  Uiso   1.00
C202   C     0.60557   0.48059   0.59265   0.00000  Uiso   1.00
C203   C     0.58165   0.50550   0.53360   0.00000  Uiso   1.00
C204   C     0.55798   0.52137   0.66151   0.00000  Uiso   1.00
C205   C     0.61703   0.42758   0.50416   0.00000  Uiso   1.00
C206   C     0.60274   0.40792   0.37072   0.00000  Uiso   1.00
C207   C     0.58870   0.37917   0.42414   0.00000  Uiso   1.00
H208   H     0.63442   0.43711   0.94838   0.00000  Uiso   1.00
H209   H     0.71745   0.44466   0.97707   0.00000  Uiso   1.00
H210   H     0.58239   0.48089   0.04070   0.00000  Uiso   1.00
H211   H     0.60348   0.38333   0.87785   0.00000  Uiso   1.00
H212   H     0.80938   0.45691   0.92933   0.00000  Uiso   1.00
H213   H     0.52459   0.53329   0.06350   0.00000  Uiso   1.00
H214   H     0.56906   0.32757   0.72009   0.00000  Uiso   1.00
H215   H     0.63353   0.46685   0.33529   0.00000  Uiso   1.00
H216   H     0.71651   0.47603   0.33033   0.00000  Uiso   1.00
H217   H     0.58145   0.51226   0.39397   0.00000  Uiso   1.00
H218   H     0.60254   0.41470   0.23112   0.00000  Uiso   1.00
H219   H     0.80862   0.48237   0.40442   0.00000  Uiso   1.00
H220   H     0.52383   0.55876   0.53859   0.00000  Uiso   1.00
H221   H     0.56829   0.35303   0.19518   0.00000  Uiso   1.00
O222   O     0.86360   0.47515   0.67469   0.00000  Uiso   1.00
O223   O     0.48996   0.57537   0.85071   0.00000  Uiso   1.00
O224   O     0.54830   0.30546   0.40017   0.00000  Uiso   1.00
N225   N     0.79782   0.46163   0.80646   0.00000  Uiso   1.00
N226   N     0.53156   0.53305   0.93191   0.00000  Uiso   1.00
N227   N     0.57312   0.34072   0.61086   0.00000  Uiso   1.00
N228   N     0.79741   0.47533   0.52401   0.00000  Uiso   1.00
N229   N     0.53115   0.54675   0.64946   0.00000  Uiso   1.00
N230   N     0.57271   0.35442   0.32841   0.00000  Uiso   1.00
C231   C     0.63422   0.94392   0.30792   0.00000  Uiso   1.00
C232   C     0.67921   0.95214   0.23848   0.00000  Uiso   1.00
C233   C     0.71726   0.95143   0.33744   0.00000  Uiso   1.00
C234   C     0.75509   0.95979   0.24951   0.00000  Uiso   1.00
C235   C     0.82498   0.97125   0.16916   0.00000  Uiso   1.00
C236   C     0.60583   0.97183   0.27306   0.00000  Uiso   1.00
C237   C     0.58218   0.98767   0.40110   0.00000  Uiso   1.00
C238   C     0.55824   0.01260   0.34225   0.00000  Uiso   1.00
C239   C     0.51419   0.05461   0.31558   0.00000  Uiso   1.00
C240   C     0.61729   0.91883   0.18458   0.00000  Uiso   1.00
C241   C     0.60327   0.89010   0.23822   0.00000  Uiso   1.00
C242   C     0.58897   0.87040   0.10488   0.00000  Uiso   1.00
C243   C     0.56271   0.83011   0.94083   0.00000  Uiso   1.00
C244   C     0.63374   0.96003   0.97576   0.00000  Uiso   1.00
C245   C     0.67894   0.96090   0.05807   0.00000  Uiso   1.00
C246   C     0.71673   0.96926   0.96995   0.00000  Uiso   1.00
C247   C     0.75483   0.96856   0.06876   0.00000  Uiso   1.00
C248   C     0.60557   0.98059   0.09265   0.00000  Uiso   1.00
C249   C     0.58165   0.00550   0.03360   0.00000  Uiso   1.00
C250   C     0.55798   0.02137   0.16151   0.00000  Uiso   1.00
C251   C     0.61703   0.92758   0.00416   0.00000  Uiso   1.00
C252   C     0.60274   0.90792   0.87072   0.00000  Uiso   1.00
C253   C     0.58870   0.87917   0.92414   0.00000  Uiso   1.00
H254   H     0.63442   0.93711   0.44838   0.00000  Uiso   1.00
H255   H     0.71745   0.94466   0.47707   0.00000  Uiso   1.00
H256   H     0.58239   0.98089   0.54070   0.00000  Uiso   1.00
H257   H     0.60348   0.88333   0.37785   0.00000  Uiso   1.00
H258   H     0.80938   0.95691   0.42933   0.00000  Uiso   1.00
H259   H     0.52459   0.03329   0.56350   0.00000  Uiso   1.00
H260   H     0.56906   0.82757   0.22009   0.00000  Uiso   1.00
H261   H     0.63353   0.96685   0.83529   0.00000  Uiso   1.00
H262   H     0.71651   0.97603   0.83033   0.00000  Uiso   1.00
H263   H     0.58145   0.01226   0.89397   0.00000  Uiso   1.00
H264   H     0.60254   0.91470   0.73112   0.00000  Uiso   1.00
H265   H     0.80862   0.98237   0.90442   0.00000  Uiso   1.00
H266   H     0.52383   0.05876   0.03859   0.00000  Uiso   1.00
H267   H     0.56829   0.85303   0.69518   0.00000  Uiso   1.00
O268   O     0.86360   0.97515   0.17469   0.00000  Uiso   1.00
O269   O     0.48996   0.07537   0.35071   0.00000  Uiso   1.00
O270   O     0.54830   0.80546   0.90017   0.00000  Uiso   1.00
N271   N     0.79782   0.96163   0.30646   0.00000  Uiso   1.00
N272   N     0.53156   0.03305   0.43191   0.00000  Uiso   1.00
N273   N     0.57312   0.84072   0.11086   0.00000  Uiso   1.00
N274   N     0.79741   0.97533   0.02401   0.00000  Uiso   1.00
N275   N     0.53115   0.04675   0.14946   0.00000  Uiso   1.00
N276   N     0.57271   0.85442   0.82841   0.00000  Uiso   1.00
C277   C     0.13422   0.44392   0.30792   0.00000  Uiso   1.00
C278   C     0.17921   0.45214   0.23848   0.00000  Uiso   1.00
C279   C     0.21726   0.45143   0.33744   0.00000  Uiso   1.00
C280   C     0.25509   0.45979   0.24951   0.00000  Uiso   1.00
C281   C     0.32498   0.47125   0.16916   0.00000  Uiso   1.00
C282   C     0.10583   0.47183   0.27306   0.00000  Uiso   1.00
C283   C     0.08218   0.48767   0.40110   0.00000  Uiso   1.00
C284   C     0.05824   0.51260   0.34225   0.00000  Uiso   1.00
C285   C     0.01419   0.55461   0.31558   0.00000  Uiso   1.00
C286   C     0.11729   0.41883   0.18458   0.00000  Uiso   1.00
C287   C     0.10327   0.39010   0.23822   0.00000  Uiso   1.00
C288   C     0.08897   0.37040   0.10488   0.00000  Uiso   1.00
C289   C     0.06271   0.33011   0.94083   0.00000  Uiso   1.00
C290   C     0.13374   0.46003   0.97576   0.00000  Uiso   1.00
C291   C     0.17894   0.46090   0.05807   0.00000  Uiso   1.00
C292   C     0.21673   0.46926   0.96995   0.00000  Uiso   1.00
C293   C     0.25483   0.46856   0.06876   0.00000  Uiso   1.00
C294   C     0.10557   0.48059   0.09265   0.00000  Uiso   1.00
C295   C     0.08165   0.50550   0.03360   0.00000  Uiso   1.00
C296   C     0.05798   0.52137   0.16151   0.00000  Uiso   1.00
C297   C     0.11703   0.42758   0.00416   0.00000  Uiso   1.00
C298   C     0.10274   0.40792   0.87072   0.00000  Uiso   1.00
C299   C     0.08870   0.37917   0.92414   0.00000  Uiso   1.00
H300   H     0.13442   0.43711   0.44838   0.00000  Uiso   1.00
H301   H     0.21745   0.44466   0.47707   0.00000  Uiso   1.00
H302   H     0.08239   0.48089   0.54070   0.00000  Uiso   1.00
H303   H     0.10348   0.38333   0.37785   0.00000  Uiso   1.00
H304   H     0.30938   0.45691   0.42933   0.00000  Uiso   1.00
H305   H     0.02459   0.53329   0.56350   0.00000  Uiso   1.00
H306   H     0.06906   0.32757   0.22009   0.00000  Uiso   1.00
H307   H     0.13353   0.46685   0.83529   0.00000  Uiso   1.00
H308   H     0.21651   0.47603   0.83033   0.00000  Uiso   1.00
H309   H     0.08145   0.51226   0.89397   0.00000  Uiso   1.00
H310   H     0.10254   0.41470   0.73112   0.00000  Uiso   1.00
H311   H     0.30862   0.48237   0.90442   0.00000  Uiso   1.00
H312   H     0.02383   0.55876   0.03859   0.00000  Uiso   1.00
H313   H     0.06829   0.35303   0.69518   0.00000  Uiso   1.00
O314   O     0.36360   0.47515   0.17469   0.00000  Uiso   1.00
O315   O     0.98996   0.57537   0.35071   0.00000  Uiso   1.00
O316   O     0.04830   0.30546   0.90017   0.00000  Uiso   1.00
N317   N     0.29782   0.46163   0.30646   0.00000  Uiso   1.00
N318   N     0.03156   0.53305   0.43191   0.00000  Uiso   1.00
N319   N     0.07312   0.34072   0.11086   0.00000  Uiso   1.00
N320   N     0.29741   0.47533   0.02401   0.00000  Uiso   1.00
N321   N     0.03115   0.54675   0.14946   0.00000  Uiso   1.00
N322   N     0.07271   0.35442   0.82841   0.00000  Uiso   1.00
C323   C     0.13422   0.94392   0.80792   0.00000  Uiso   1.00
C324   C     0.17921   0.95214   0.73848   0.00000  Uiso   1.00
C325   C     0.21726   0.95143   0.83744   0.00000  Uiso   1.00
C326   C     0.25509   0.95979   0.74951   0.00000  Uiso   1.00
C327   C     0.32498   0.97125   0.66916   0.00000  Uiso   1.00
C328   C     0.10583   0.97183   0.77306   0.00000  Uiso   1.00
C329   C     0.08218   0.98767   0.90110   0.00000  Uiso   1.00
C330   C     0.05824   0.01260   0.84225   0.00000  Uiso   1.00
C331   C     0.01419   0.05461   0.81558   0.00000  Uiso   1.00
C332   C     0.11729   0.91883   0.68458   0.00000  Uiso   1.00
C333   C     0.10327   0.89010   0.73822   0.00000  Uiso   1.00
C334   C     0.08897   0.87040   0.60488   0.00000  Uiso   1.00
C335   C     0.06271   0.83011   0.44083   0.00000  Uiso   1.00
C336   C     0.13374   0.96003   0.47576   0.00000  Uiso   1.00
C337   C     0.17894   0.96090   0.55807   0.00000  Uiso   1.00
C338   C     0.21673   0.96926   0.46995   0.00000  Uiso   1.00
C339   C     0.25483   0.96856   0.56876   0.00000  Uiso   1.00
C340   C     0.10557   0.98059   0.59265   0.00000  Uiso   1.00
C341   C     0.08165   0.00550   0.53360   0.00000  Uiso   1.00
C342   C     0.05798   0.02137   0.66151   0.00000  Uiso   1.00
C343   C     0.11703   0.92758   0.50416   0.00000  Uiso   1.00
C344   C     0.10274   0.90792   0.37072   0.00000  Uiso   1.00
C345   C     0.08870   0.87917   0.42414   0.00000  Uiso   1.00
H346   H     0.13442   0.93711   0.94838   0.00000  Uiso   1.00
H347   H     0.21745   0.94466   0.97707   0.00000  Uiso   1.00
H348   H     0.08239   0.98089   0.04070   0.00000  Uiso   1.00
H349   H     0.10348   0.88333   0.87785   0.00000  Uiso   1.00
H350   H     0.30938   0.95691   0.92933   0.00000  Uiso   1.00
H351   H     0.02459   0.03329   0.06350   0.00000  Uiso   1.00
H352   H     0.06906   0.82757   0.72009   0.00000  Uiso   1.00
H353   H     0.13353   0.96685   0.33529   0.00000  Uiso   1.00
H354   H     0.21651   0.97603   0.33033   0.00000  Uiso   1.00
H355   H     0.08145   0.01226   0.39397   0.00000  Uiso   1.00
H356   H     0.10254   0.91470   0.23112   0.00000  Uiso   1.00
H357   H     0.30862   0.98237   0.40442   0.00000  Uiso   1.00
H358   H     0.02383   0.05876   0.53859   0.00000  Uiso   1.00
H359   H     0.06829   0.85303   0.19518   0.00000  Uiso   1.00
O360   O     0.36360   0.97515   0.67469   0.00000  Uiso   1.00
O361   O     0.98996   0.07537   0.85071   0.00000  Uiso   1.00
O362   O     0.04830   0.80546   0.40017   0.00000  Uiso   1.00
N363   N     0.29782   0.96163   0.80646   0.00000  Uiso   1.00
N364   N     0.03156   0.03305   0.93191   0.00000  Uiso   1.00
N365   N     0.07312   0.84072   0.61086   0.00000  Uiso   1.00
N366   N     0.29741   0.97533   0.52401   0.00000  Uiso   1.00
N367   N     0.03115   0.04675   0.64946   0.00000  Uiso   1.00
N368   N     0.07271   0.85442   0.32841   0.00000  Uiso   1.00
C369   C     0.61578   0.69392   0.05792   0.00000  Uiso   1.00
C370   C     0.57079   0.70214   0.98848   0.00000  Uiso   1.00
C371   C     0.53274   0.70143   0.08744   0.00000  Uiso   1.00
C372   C     0.49491   0.70979   0.99951   0.00000  Uiso   1.00
C373   C     0.42502   0.72125   0.91916   0.00000  Uiso   1.00
C374   C     0.64417   0.72183   0.02306   0.00000  Uiso   1.00
C375   C     0.66782   0.73767   0.15110   0.00000  Uiso   1.00
C376   C     0.69176   0.76260   0.09225   0.00000  Uiso   1.00
C377   C     0.73581   0.80461   0.06558   0.00000  Uiso   1.00
C378   C     0.63271   0.66883   0.93458   0.00000  Uiso   1.00
C379   C     0.64673   0.64010   0.98822   0.00000  Uiso   1.00
C380   C     0.66103   0.62040   0.85488   0.00000  Uiso   1.00
C381   C     0.68729   0.58011   0.69083   0.00000  Uiso   1.00
C382   C     0.61626   0.71003   0.72576   0.00000  Uiso   1.00
C383   C     0.57106   0.71090   0.80807   0.00000  Uiso   1.00
C384   C     0.53327   0.71926   0.71995   0.00000  Uiso   1.00
C385   C     0.49517   0.71856   0.81876   0.00000  Uiso   1.00
C386   C     0.64443   0.73059   0.84265   0.00000  Uiso   1.00
C387   C     0.66835   0.75550   0.78360   0.00000  Uiso   1.00
C388   C     0.69202   0.77137   0.91151   0.00000  Uiso   1.00
C389   C     0.63297   0.67758   0.75416   0.00000  Uiso   1.00
C390   C     0.64726   0.65792   0.62072   0.00000  Uiso   1.00
C391   C     0.66130   0.62917   0.67414   0.00000  Uiso   1.00
H392   H     0.61558   0.68711   0.19838   0.00000  Uiso   1.00
H393   H     0.53255   0.69466   0.22707   0.00000  Uiso   1.00
H394   H     0.66761   0.73089   0.29070   0.00000  Uiso   1.00
H395   H     0.64652   0.63333   0.12785   0.00000  Uiso   1.00
H396   H     0.44062   0.70691   0.17933   0.00000  Uiso   1.00
H397   H     0.72541   0.78329   0.31350   0.00000  Uiso   1.00
H398   H     0.68094   0.57757   0.97009   0.00000  Uiso   1.00
H399   H     0.61647   0.71685   0.58529   0.00000  Uiso   1.00
H400   H     0.53349   0.72603   0.58033   0.00000  Uiso   1.00
H401   H     0.66855   0.76226   0.64397   0.00000  Uiso   1.00
H402   H     0.64746   0.66470   0.48112   0.00000  Uiso   1.00
H403   H     0.44138   0.73237   0.65442   0.00000  Uiso   1.00
H404   H     0.72617   0.80876   0.78859   0.00000  Uiso   1.00
H405   H     0.68171   0.60303   0.44518   0.00000  Uiso   1.00
O406   O     0.38640   0.72515   0.92469   0.00000  Uiso   1.00
O407   O     0.76004   0.82537   0.10071   0.00000  Uiso   1.00
O408   O     0.70170   0.55546   0.65017   0.00000  Uiso   1.00
N409   N     0.45218   0.71163   0.05646   0.00000  Uiso   1.00
N410   N     0.71844   0.78305   0.18191   0.00000  Uiso   1.00
N411   N     0.67688   0.59072   0.86086   0.00000  Uiso   1.00
N412   N     0.45259   0.72533   0.77401   0.00000  Uiso   1.00
N413   N     0.71885   0.79675   0.89946   0.00000  Uiso   1.00
N414   N     0.67729   0.60442   0.57841   0.00000  Uiso   1.00
C415   C     0.61578   0.19392   0.55792   0.00000  Uiso   1.00
C416   C     0.57079   0.20214   0.48848   0.00000  Uiso   1.00
C417   C     0.53274   0.20143   0.58744   0.00000  Uiso   1.00
C418   C     0.49491   0.20979   0.49951   0.00000  Uiso   1.00
C419   C     0.42502   0.22125   0.41916   0.00000  Uiso   1.00
C420   C     0.64417   0.22183   0.52306   0.00000  Uiso   1.00
C421   C     0.66782   0.23767   0.65110   0.00000  Uiso   1.00
C422   C     0.69176   0.26260   0.59225   0.00000  Uiso   1.00
C423   C     0.73581   0.30461   0.56558   0.00000  Uiso   1.00
C424   C     0.63271   0.16883   0.43458   0.00000  Uiso   1.00
C425   C     0.64673   0.14010   0.48822   0.00000  Uiso   1.00
C426   C     0.66103   0.12040   0.35488   0.00000  Uiso   1.00
C427   C     0.68729   0.08011   0.19083   0.00000  Uiso   1.00
C428   C     0.61626   0.21003   0.22576   0.00000  Uiso   1.00
C429   C     0.57106   0.21090   0.30807   0.00000  Uiso   1.00
C430   C     0.53327   0.21926   0.21995   0.00000  Uiso   1.00
C431   C     0.49517   0.21856   0.31876   0.00000  Uiso   1.00
C432   C     0.64443   0.23059   0.34265   0.00000  Uiso   1.00
C433   C     0.66835   0.25550   0.28360   0.00000  Uiso   1.00
C434   C     0.69202   0.27137   0.41151   0.00000  Uiso   1.00
C435   C     0.63297   0.17758   0.25416   0.00000  Uiso   1.00
C436   C     0.64726   0.15792   0.12072   0.00000  Uiso   1.00
C437   C     0.66130   0.12917   0.17414   0.00000  Uiso   1.00
H438   H     0.61558   0.18711   0.69838   0.00000  Uiso   1.00
H439   H     0.53255   0.19466   0.72707   0.00000  Uiso   1.00
H440   H     0.66761   0.23089   0.79070   0.00000  Uiso   1.00
H441   H     0.64652   0.13333   0.62785   0.00000  Uiso   1.00
H442   H     0.44062   0.20691   0.67933   0.00000  Uiso   1.00
H443   H     0.72541   0.28329   0.81350   0.00000  Uiso   1.00
H444   H     0.68094   0.07757   0.47009   0.00000  Uiso   1.00
H445   H     0.61647   0.21685   0.08529   0.00000  Uiso   1.00
H446   H     0.53349   0.22603   0.08033   0.00000  Uiso   1.00
H447   H     0.66855   0.26226   0.14397   0.00000  Uiso   1.00
H448   H     0.64746   0.16470   0.98112   0.00000  Uiso   1.00
H449   H     0.44138   0.23237   0.15442   0.00000  Uiso   1.00
H450   H     0.72617   0.30876   0.28859   0.00000  Uiso   1.00
H451   H     0.68171   0.10303   0.94518   0.00000  Uiso   1.00
O452   O     0.38640   0.22515   0.42469   0.00000  Uiso   1.00
O453   O     0.76004   0.32537   0.60071   0.00000  Uiso   1.00
O454   O     0.70170   0.05546   0.15017   0.00000  Uiso   1.00
N455   N     0.45218   0.21163   0.55646   0.00000  Uiso   1.00
N456   N     0.71844   0.28305   0.68191   0.00000  Uiso   1.00
N457   N     0.67688   0.09072   0.36086   0.00000  Uiso   1.00
N458   N     0.45259   0.22533   0.27401   0.00000  Uiso   1.00
N459   N     0.71885   0.29675   0.39946   0.00000  Uiso   1.00
N460   N     0.67729   0.10442   0.07841   0.00000  Uiso   1.00
C461   C     0.11578   0.69392   0.55792   0.00000  Uiso   1.00
C462   C     0.07079   0.70214   0.48848   0.00000  Uiso   1.00
C463   C     0.03274   0.70143   0.58744   0.00000  Uiso   1.00
C464   C     0.99491   0.70979   0.49951   0.00000  Uiso   1.00
C465   C     0.92502   0.72125   0.41916   0.00000  Uiso   1.00
C466   C     0.14417   0.72183   0.52306   0.00000  Uiso   1.00
C467   C     0.16782   0.73767   0.65110   0.00000  Uiso   1.00
C468   C     0.19176   0.76260   0.59225   0.00000  Uiso   1.00
C469   C     0.23581   0.80461   0.56558   0.00000  Uiso   1.00
C470   C     0.13271   0.66883   0.43458   0.00000  Uiso   1.00
C471   C     0.14673   0.64010   0.48822   0.00000  Uiso   1.00
C472   C     0.16103   0.62040   0.35488   0.00000  Uiso   1.00
C473   C     0.18729   0.58011   0.19083   0.00000  Uiso   1.00
C474   C     0.11626   0.71003   0.22576   0.00000  Uiso   1.00
C475   C     0.07106   0.71090   0.30807   0.00000  Uiso   1.00
C476   C     0.03327   0.71926   0.21995   0.00000  Uiso   1.00
C477   C     0.99517   0.71856   0.31876   0.00000  Uiso   1.00
C478   C     0.14443   0.73059   0.34265   0.00000  Uiso   1.00
C479   C     0.16835   0.75550   0.28360   0.00000  Uiso   1.00
C480   C     0.19202   0.77137   0.41151   0.00000  Uiso   1.00
C481   C     0.13297   0.67758   0.25416   0.00000  Uiso   1.00
C482   C     0.14726   0.65792   0.12072   0.00000  Uiso   1.00
C483   C     0.16130   0.62917   0.17414   0.00000  Uiso   1.00
H484   H     0.11558   0.68711   0.69838   0.00000  Uiso   1.00
H485   H     0.03255   0.69466   0.72707   0.00000  Uiso   1.00
H486   H     0.16761   0.73089   0.79070   0.00000  Uiso   1.00
H487   H     0.14652   0.63333   0.62785   0.00000  Uiso   1.00
H488   H     0.94062   0.70691   0.67933   0.00000  Uiso   1.00
H489   H     0.22541   0.78329   0.81350   0.00000  Uiso   1.00
H490   H     0.18094   0.57757   0.47009   0.00000  Uiso   1.00
H491   H     0.11647   0.71685   0.08529   0.00000  Uiso   1.00
H492   H     0.03349   0.72603   0.08033   0.00000  Uiso   1.00
H493   H     0.16855   0.76226   0.14397   0.00000  Uiso   1.00
H494   H     0.14746   0.66470   0.98112   0.00000  Uiso   1.00
H495   H     0.94138   0.73237   0.15442   0.00000  Uiso   1.00
H496   H     0.22617   0.80876   0.28859   0.00000  Uiso   1.00
H497   H     0.18171   0.60303   0.94518   0.00000  Uiso   1.00
O498   O     0.88640   0.72515   0.42469   0.00000  Uiso   1.00
O499   O     0.26004   0.82537   0.60071   0.00000  Uiso   1.00
O500   O     0.20170   0.55546   0.15017   0.00000  Uiso   1.00
N501   N     0.95218   0.71163   0.55646   0.00000  Uiso   1.00
N502   N     0.21844   0.78305   0.68191   0.00000  Uiso   1.00
N503   N     0.17688   0.59072   0.36086   0.00000  Uiso   1.00
N504   N     0.95259   0.72533   0.27401   0.00000  Uiso   1.00
N505   N     0.21885   0.79675   0.39946   0.00000  Uiso   1.00
N506   N     0.17729   0.60442   0.07841   0.00000  Uiso   1.00
C507   C     0.11578   0.19392   0.05792   0.00000  Uiso   1.00
C508   C     0.07079   0.20214   0.98848   0.00000  Uiso   1.00
C509   C     0.03274   0.20143   0.08744   0.00000  Uiso   1.00
C510   C     0.99491   0.20979   0.99951   0.00000  Uiso   1.00
C511   C     0.92502   0.22125   0.91916   0.00000  Uiso   1.00
C512   C     0.14417   0.22183   0.02306   0.00000  Uiso   1.00
C513   C     0.16782   0.23767   0.15110   0.00000  Uiso   1.00
C514   C     0.19176   0.26260   0.09225   0.00000  Uiso   1.00
C515   C     0.23581   0.30461   0.06558   0.00000  Uiso   1.00
C516   C     0.13271   0.16883   0.93458   0.00000  Uiso   1.00
C517   C     0.14673   0.14010   0.98822   0.00000  Uiso   1.00
C518   C     0.16103   0.12040   0.85488   0.00000  Uiso   1.00
C519   C     0.18729   0.08011   0.69083   0.00000  Uiso   1.00
C520   C     0.11626   0.21003   0.72576   0.00000  Uiso   1.00
C521   C     0.07106   0.21090   0.80807   0.00000  Uiso   1.00
C522   C     0.03327   0.21926   0.71995   0.00000  Uiso   1.00
C523   C     0.99517   0.21856   0.81876   0.00000  Uiso   1.00
C524   C     0.14443   0.23059   0.84265   0.00000  Uiso   1.00
C525   C     0.16835   0.25550   0.78360   0.00000  Uiso   1.00
C526   C     0.19202   0.27137   0.91151   0.00000  Uiso   1.00
C527   C     0.13297   0.17758   0.75416   0.00000  Uiso   1.00
C528   C     0.14726   0.15792   0.62072   0.00000  Uiso   1.00
C529   C     0.16130   0.12917   0.67414   0.00000  Uiso   1.00
H530   H     0.11558   0.18711   0.19838   0.00000  Uiso   1.00
H531   H     0.03255   0.19466   0.22707   0.00000  Uiso   1.00
H532   H     0.16761   0.23089   0.29070   0.00000  Uiso   1.00
H533   H     0.14652   0.13333   0.12785   0.00000  Uiso   1.00
H534   H     0.94062   0.20691   0.17933   0.00000  Uiso   1.00
H535   H     0.22541   0.28329   0.31350   0.00000  Uiso   1.00
H536   H     0.18094   0.07757   0.97009   0.00000  Uiso   1.00
H537   H     0.11647   0.21685   0.58529   0.00000  Uiso   1.00
H538   H     0.03349   0.22603   0.58033   0.00000  Uiso   1.00
H539   H     0.16855   0.26226   0.64397   0.00000  Uiso   1.00
H540   H     0.14746   0.16470   0.48112   0.00000  Uiso   1.00
H541   H     0.94138   0.23237   0.65442   0.00000  Uiso   1.00
H542   H     0.22617   0.30876   0.78859   0.00000  Uiso   1.00
H543   H     0.18171   0.10303   0.44518   0.00000  Uiso   1.00
O544   O     0.88640   0.22515   0.92469   0.00000  Uiso   1.00
O545   O     0.26004   0.32537   0.10071   0.00000  Uiso   1.00
O546   O     0.20170   0.05546   0.65017   0.00000  Uiso   1.00
N547   N     0.95218   0.21163   0.05646   0.00000  Uiso   1.00
N548   N     0.21844   0.28305   0.18191   0.00000  Uiso   1.00
N549   N     0.17688   0.09072   0.86086   0.00000  Uiso   1.00
N550   N     0.95259   0.22533   0.77401   0.00000  Uiso   1.00
N551   N     0.21885   0.29675   0.89946   0.00000  Uiso   1.00
N552   N     0.17729   0.10442   0.57841   0.00000  Uiso   1.00
C553   C     0.88422   0.80608   0.05792   0.00000  Uiso   1.00
C554   C     0.92921   0.79786   0.98848   0.00000  Uiso   1.00
C555   C     0.96726   0.79857   0.08744   0.00000  Uiso   1.00
C556   C     0.00509   0.79021   0.99951   0.00000  Uiso   1.00
C557   C     0.07498   0.77875   0.91916   0.00000  Uiso   1.00
C558   C     0.85583   0.77817   0.02306   0.00000  Uiso   1.00
C559   C     0.83218   0.76233   0.15110   0.00000  Uiso   1.00
C560   C     0.80824   0.73740   0.09225   0.00000  Uiso   1.00
C561   C     0.76419   0.69539   0.06558   0.00000  Uiso   1.00
C562   C     0.86729   0.83117   0.93458   0.00000  Uiso   1.00
C563   C     0.85327   0.85990   0.98822   0.00000  Uiso   1.00
C564   C     0.83897   0.87960   0.85488   0.00000  Uiso   1.00
C565   C     0.81271   0.91989   0.69083   0.00000  Uiso   1.00
C566   C     0.88374   0.78997   0.72576   0.00000  Uiso   1.00
C567   C     0.92894   0.78910   0.80807   0.00000  Uiso   1.00
C568   C     0.96673   0.78074   0.71995   0.00000  Uiso   1.00
C569   C     0.00483   0.78144   0.81876   0.00000  Uiso   1.00
C570   C     0.85557   0.76941   0.84265   0.00000  Uiso   1.00
C571   C     0.83165   0.74450   0.78360   0.00000  Uiso   1.00
C572   C     0.80798   0.72863   0.91151   0.00000  Uiso   1.00
C573   C     0.86703   0.82242   0.75416   0.00000  Uiso   1.00
C574   C     0.85274   0.84208   0.62072   0.00000  Uiso   1.00
C575   C     0.83870   0.87083   0.67414   0.00000  Uiso   1.00
H576   H     0.88442   0.81289   0.19838   0.00000  Uiso   1.00
H577   H     0.96745   0.80534   0.22707   0.00000  Uiso   1.00
H578   H     0.83239   0.76911   0.29070   0.00000  Uiso   1.00
H579   H     0.85348   0.86667   0.12785   0.00000  Uiso   1.00
H580   H     0.05938   0.79309   0.17933   0.00000  Uiso   1.00
H581   H     0.77459   0.71671   0.31350   0.00000  Uiso   1.00
H582   H     0.81906   0.92243   0.97009   0.00000  Uiso   1.00
H583   H     0.88353   0.78315   0.58529   0.00000  Uiso   1.00
H584   H     0.96651   0.77397   0.58033   0.00000  Uiso   1.00
H585   H     0.83145   0.73774   0.64397   0.00000  Uiso   1.00
H586   H     0.85254   0.83530   0.48112   0.00000  Uiso   1.00
H587   H     0.05862   0.76763   0.65442   0.00000  Uiso   1.00
H588   H     0.77383   0.69124   0.78859   0.00000  Uiso   1.00
H589   H     0.81829   0.89697   0.44518   0.00000  Uiso   1.00
O590   O     0.11360   0.77485   0.92469   0.00000  Uiso   1.00
O591   O     0.73996   0.67463   0.10071   0.00000  Uiso   1.00
O592   O     0.79830   0.94454   0.65017   0.00000  Uiso   1.00
N593   N     0.04782   0.78837   0.05646   0.00000  Uiso   1.00
N594   N     0.78156   0.71695   0.18191   0.00000  Uiso   1.00
N595   N     0.82312   0.90928   0.86086   0.00000  Uiso   1.00
N596   N     0.04741   0.77467   0.77401   0.00000  Uiso   1.00
N597   N     0.78115   0.70325   0.89946   0.00000  Uiso   1.00
N598   N     0.82271   0.89558   0.57841   0.00000  Uiso   1.00
C599   C     0.88422   0.30608   0.55792   0.00000  Uiso   1.00
C600   C     0.92921   0.29786   0.48848   0.00000  Uiso   1.00
C601   C     0.96726   0.29857   0.58744   0.00000  Uiso   1.00
C602   C     0.00509   0.29021   0.49951   0.00000  Uiso   1.00
C603   C     0.07498   0.27875   0.41916   0.00000  Uiso   1.00
C604   C     0.85583   0.27817   0.52306   0.00000  Uiso   1.00
C605   C     0.83218   0.26233   0.65110   0.00000  Uiso   1.00
C606   C     0.80824   0.23740   0.59225   0.00000  Uiso   1.00
C607   C     0.76419   0.19539   0.56558   0.00000  Uiso   1.00
C608   C     0.86729   0.33117   0.43458   0.00000  Uiso   1.00
C609   C     0.85327   0.35990   0.48822   0.00000  Uiso   1.00
C610   C     0.83897   0.37960   0.35488   0.00000  Uiso   1.00
C611   C     0.81271   0.41989   0.19083   0.00000  Uiso   1.00
C612   C     0.88374   0.28997   0.22576   0.00000  Uiso   1.00
C613   C     0.92894   0.28910   0.30807   0.00000  Uiso   1.00
C614   C     0.96673   0.28074   0.21995   0.00000  Uiso   1.00
C615   C     0.00483   0.28144   0.31876   0.00000  Uiso   1.00
C616   C     0.85557   0.26941   0.34265   0.00000  Uiso   1.00
C617   C     0.83165   0.24450   0.28360   0.00000  Uiso   1.00
C618   C     0.80798   0.22863   0.41151   0.00000  Uiso   1.00
C619   C     0.86703   0.32242   0.25416   0.00000  Uiso   1.00
C620   C     0.85274   0.34208   0.12072   0.00000  Uiso   1.00
C621   C     0.83870   0.37083   0.17414   0.00000  Uiso   1.00
H622   H     0.88442   0.31289   0.69838   0.00000  Uiso   1.00
H623   H     0.96745   0.30534   0.72707   0.00000  Uiso   1.00
H624   H     0.83239   0.26911   0.79070   0.00000  Uiso   1.00
H625   H     0.85348   0.36667   0.62785   0.00000  Uiso   1.00
H626   H     0.05938   0.29309   0.67933   0.00000  Uiso   1.00
H627   H     0.77459   0.21671   0.81350   0.00000  Uiso   1.00
H628   H     0.81906   0.42243   0.47009   0.00000  Uiso   1.00
H629   H     0.88353   0.28315   0.08529   0.00000  Uiso   1.00
H630   H     0.96651   0.27397   0.08033   0.00000  Uiso   1.00
H631   H     0.83145   0.23774   0.14397   0.00000  Uiso   1.00
H632   H     0.85254   0.33530   0.98112   0.00000  Uiso   1.00
H633   H     0.05862   0.26763   0.15442   0.00000  Uiso   1.00
H634   H     0.77383   0.19124   0.28859   0.00000  Uiso   1.00
H635   H     0.81829   0.39697   0.94518   0.00000  Uiso   1.00
O636   O     0.11360   0.27485   0.42469   0.00000  Uiso   1.00
O637   O     0.73996   0.17463   0.60071   0.00000  Uiso   1.00
O638   O     0.79830   0.44454   0.15017   0.00000  Uiso   1.00
N639   N     0.04782   0.28837   0.55646   0.00000  Uiso   1.00
N640   N     0.78156   0.21695   0.68191   0.00000  Uiso   1.00
N641   N     0.82312   0.40928   0.36086   0.00000  Uiso   1.00
N642   N     0.04741   0.27467   0.27401   0.00000  Uiso   1.00
N643   N     0.78115   0.20325   0.39946   0.00000  Uiso   1.00
N644   N     0.82271   0.39558   0.07841   0.00000  Uiso   1.00
C645   C     0.38422   0.80608   0.55792   0.00000  Uiso   1.00
C646   C     0.42921   0.79786   0.48848   0.00000  Uiso   1.00
C647   C     0.46726   0.79857   0.58744   0.00000  Uiso   1.00
C648   C     0.50509   0.79021   0.49951   0.00000  Uiso   1.00
C649   C     0.57498   0.77875   0.41916   0.00000  Uiso   1.00
C650   C     0.35583   0.77817   0.52306   0.00000  Uiso   1.00
C651   C     0.33218   0.76233   0.65110   0.00000  Uiso   1.00
C652   C     0.30824   0.73740   0.59225   0.00000  Uiso   1.00
C653   C     0.26419   0.69539   0.56558   0.00000  Uiso   1.00
C654   C     0.36729   0.83117   0.43458   0.00000  Uiso   1.00
C655   C     0.35327   0.85990   0.48822   0.00000  Uiso   1.00
C656   C     0.33897   0.87960   0.35488   0.00000  Uiso   1.00
C657   C     0.31271   0.91989   0.19083   0.00000  Uiso   1.00
C658   C     0.38374   0.78997   0.22576   0.00000  Uiso   1.00
C659   C     0.42894   0.78910   0.30807   0.00000  Uiso   1.00
C660   C     0.46673   0.78074   0.21995   0.00000  Uiso   1.00
C661   C     0.50483   0.78144   0.31876   0.00000  Uiso   1.00
C662   C     0.35557   0.76941   0.34265   0.00000  Uiso   1.00
C663   C     0.33165   0.74450   0.28360   0.00000  Uiso   1.00
C664   C     0.30798   0.72863   0.41151   0.00000  Uiso   1.00
C665   C     0.36703   0.82242   0.25416   0.00000  Uiso   1.00
C666   C     0.35274   0.84208   0.12072   0.00000  Uiso   1.00
C667   C     0.33870   0.87083   0.17414   0.00000  Uiso   1.00
H668   H     0.38442   0.81289   0.69838   0.00000  Uiso   1.00
H669   H     0.46745   0.80534   0.72707   0.00000  Uiso   1.00
H670   H     0.33239   0.76911   0.79070   0.00000  Uiso   1.00
H671   H     0.35348   0.86667   0.62785   0.00000  Uiso   1.00
H672   H     0.55938   0.79309   0.67933   0.00000  Uiso   1.00
H673   H     0.27459   0.71671   0.81350   0.00000  Uiso   1.00
H674   H     0.31906   0.92243   0.47009   0.00000  Uiso   1.00
H675   H     0.38353   0.78315   0.08529   0.00000  Uiso   1.00
H676   H     0.46651   0.77397   0.08033   0.00000  Uiso   1.00
H677   H     0.33145   0.73774   0.14397   0.00000  Uiso   1.00
H678   H     0.35254   0.83530   0.98112   0.00000  Uiso   1.00
H679   H     0.55862   0.76763   0.15442   0.00000  Uiso   1.00
H680   H     0.27383   0.69124   0.28859   0.00000  Uiso   1.00
H681   H     0.31829   0.89697   0.94518   0.00000  Uiso   1.00
O682   O     0.61360   0.77485   0.42469   0.00000  Uiso   1.00
O683   O     0.23996   0.67463   0.60071   0.00000  Uiso   1.00
O684   O     0.29830   0.94454   0.15017   0.00000  Uiso   1.00
N685   N     0.54782   0.78837   0.55646   0.00000  Uiso   1.00
N686   N     0.28156   0.71695   0.68191   0.00000  Uiso   1.00
N687   N     0.32312   0.90928   0.36086   0.00000  Uiso   1.00
N688   N     0.54741   0.77467   0.27401   0.00000  Uiso   1.00
N689   N     0.28115   0.70325   0.39946   0.00000  Uiso   1.00
N690   N     0.32271   0.89558   0.07841   0.00000  Uiso   1.00
C691   C     0.38422   0.30608   0.05792   0.00000  Uiso   1.00
C692   C     0.42921   0.29786   0.98848   0.00000  Uiso   1.00
C693   C     0.46726   0.29857   0.08744   0.00000  Uiso   1.00
C694   C     0.50509   0.29021   0.99951   0.00000  Uiso   1.00
C695   C     0.57498   0.27875   0.91916   0.00000  Uiso   1.00
C696   C     0.35583   0.27817   0.02306   0.00000  Uiso   1.00
C697   C     0.33218   0.26233   0.15110   0.00000  Uiso   1.00
C698   C     0.30824   0.23740   0.09225   0.00000  Uiso   1.00
C699   C     0.26419   0.19539   0.06558   0.00000  Uiso   1.00
C700   C     0.36729   0.33117   0.93458   0.00000  Uiso   1.00
C701   C     0.35327   0.35990   0.98822   0.00000  Uiso   1.00
C702   C     0.33897   0.37960   0.85488   0.00000  Uiso   1.00
C703   C     0.31271   0.41989   0.69083   0.00000  Uiso   1.00
C704   C     0.38374   0.28997   0.72576   0.00000  Uiso   1.00
C705   C     0.42894   0.28910   0.80807   0.00000  Uiso   1.00
C706   C     0.46673   0.28074   0.71995   0.00000  Uiso   1.00
C707   C     0.50483   0.28144   0.81876   0.00000  Uiso   1.00
C708   C     0.35557   0.26941   0.84265   0.00000  Uiso   1.00
C709   C     0.33165   0.24450   0.78360   0.00000  Uiso   1.00
C710   C     0.30798   0.22863   0.91151   0.00000  Uiso   1.00
C711   C     0.36703   0.32242   0.75416   0.00000  Uiso   1.00
C712   C     0.35274   0.34208   0.62072   0.00000  Uiso   1.00
C713   C     0.33870   0.37083   0.67414   0.00000  Uiso   1.00
H714   H     0.38442   0.31289   0.19838   0.00000  Uiso   1.00
H715   H     0.46745   0.30534   0.22707   0.00000  Uiso   1.00
H716   H     0.33239   0.26911   0.29070   0.00000  Uiso   1.00
H717   H     0.35348   0.36667   0.12785   0.00000  Uiso   1.00
H718   H     0.55938   0.29309   0.17933   0.00000  Uiso   1.00
H719   H     0.27459   0.21671   0.31350   0.00000  Uiso   1.00
H720   H     0.31906   0.42243   0.97009   0.00000  Uiso   1.00
H721   H     0.38353   0.28315   0.58529   0.00000  Uiso   1.00
H722   H     0.46651   0.27397   0.58033   0.00000  Uiso   1.00
H723   H     0.33145   0.23774   0.64397   0.00000  Uiso   1.00
H724   H     0.35254   0.33530   0.48112   0.00000  Uiso   1.00
H725   H     0.55862   0.26763   0.65442   0.00000  Uiso   1.00
H726   H     0.27383   0.19124   0.78859   0.00000  Uiso   1.00
H727   H     0.31829   0.39697   0.44518   0.00000  Uiso   1.00
O728   O     0.61360   0.27485   0.92469   0.00000  Uiso   1.00
O729   O     0.23996   0.17463   0.10071   0.00000  Uiso   1.00
O730   O     0.29830   0.44454   0.65017   0.00000  Uiso   1.00
N731   N     0.54782   0.28837   0.05646   0.00000  Uiso   1.00
N732   N     0.28156   0.21695   0.18191   0.00000  Uiso   1.00
N733   N     0.32312   0.40928   0.86086   0.00000  Uiso   1.00
N734   N     0.54741   0.27467   0.77401   0.00000  Uiso   1.00
N735   N     0.28115   0.20325   0.89946   0.00000  Uiso   1.00
N736   N     0.32271   0.39558   0.57841   0.00000  Uiso   1.00
