data_job_03901
_audit_creation_date              2018-12-19
_audit_creation_method            'Materials Studio'
_symmetry_space_group_name_H-M    'P1'
_symmetry_Int_Tables_number       1
_symmetry_cell_setting            triclinic
loop_
_symmetry_equiv_pos_as_xyz
  x,y,z
_cell_length_a                    18.7546
_cell_length_b                    18.7546
_cell_length_c                    28.9933
_cell_angle_alpha                 90.0000
_cell_angle_beta                  90.0000
_cell_angle_gamma                 90.0000
loop_
_atom_site_label
_atom_site_type_symbol
_atom_site_fract_x
_atom_site_fract_y
_atom_site_fract_z
_atom_site_U_iso_or_equiv
_atom_site_adp_type
_atom_site_occupancy
C1     C     0.23622   0.70719   0.39431   0.00000  Uiso   1.00
C2     C     0.20208   0.77441   0.41399   0.00000  Uiso   1.00
C3     C     0.17204   0.82930   0.38844   0.00000  Uiso   1.00
C4     C     0.14356   0.88622   0.41290   0.00000  Uiso   1.00
C5     C     0.09034   0.99034   0.43612   0.00000  Uiso   1.00
C6     C     0.31179   0.70486   0.41366   0.00000  Uiso   1.00
C7     C     0.37399   0.70125   0.38783   0.00000  Uiso   1.00
C8     C     0.43786   0.69960   0.41202   0.00000  Uiso   1.00
C9     C     0.55497   0.69568   0.43473   0.00000  Uiso   1.00
C10    C     0.19674   0.64466   0.41617   0.00000  Uiso   1.00
C11    C     0.16223   0.59043   0.39246   0.00000  Uiso   1.00
C12    C     0.12925   0.53809   0.41877   0.00000  Uiso   1.00
C13    C     0.06773   0.44070   0.44538   0.00000  Uiso   1.00
C14    C     0.23905   0.71064   0.48319   0.00000  Uiso   1.00
C15    C     0.20362   0.77629   0.46227   0.00000  Uiso   1.00
C16    C     0.17517   0.83313   0.48678   0.00000  Uiso   1.00
C17    C     0.14509   0.88810   0.46127   0.00000  Uiso   1.00
C18    C     0.31333   0.70674   0.46194   0.00000  Uiso   1.00
C19    C     0.37712   0.70508   0.48617   0.00000  Uiso   1.00
C20    C     0.43940   0.70148   0.46039   0.00000  Uiso   1.00
C21    C     0.19828   0.64654   0.46445   0.00000  Uiso   1.00
C22    C     0.16536   0.59426   0.49080   0.00000  Uiso   1.00
C23    C     0.13080   0.53997   0.46713   0.00000  Uiso   1.00
H24    H     0.23502   0.70572   0.35672   0.00000  Uiso   1.00
H25    H     0.17086   0.82783   0.35108   0.00000  Uiso   1.00
H26    H     0.37278   0.69979   0.35048   0.00000  Uiso   1.00
H27    H     0.16105   0.58899   0.35510   0.00000  Uiso   1.00
H28    H     0.10043   0.96406   0.36612   0.00000  Uiso   1.00
H29    H     0.52618   0.69405   0.36484   0.00000  Uiso   1.00
H30    H     0.07970   0.46041   0.37460   0.00000  Uiso   1.00
H31    H     0.24025   0.71211   0.52077   0.00000  Uiso   1.00
H32    H     0.17637   0.83457   0.52413   0.00000  Uiso   1.00
H33    H     0.37829   0.70653   0.52353   0.00000  Uiso   1.00
H34    H     0.16656   0.59573   0.52816   0.00000  Uiso   1.00
H35    H     0.10490   0.96953   0.50657   0.00000  Uiso   1.00
H36    H     0.53066   0.69952   0.50530   0.00000  Uiso   1.00
H37    H     0.08418   0.46588   0.51506   0.00000  Uiso   1.00
O38    O     0.06057   0.04725   0.43559   0.00000  Uiso   1.00
O39    O     0.61914   0.69300   0.43392   0.00000  Uiso   1.00
O40    O     0.03337   0.38647   0.44673   0.00000  Uiso   1.00
N41    N     0.11024   0.94853   0.39871   0.00000  Uiso   1.00
N42    N     0.50829   0.69611   0.39752   0.00000  Uiso   1.00
N43    N     0.09089   0.47766   0.40664   0.00000  Uiso   1.00
N44    N     0.11264   0.95148   0.47429   0.00000  Uiso   1.00
N45    N     0.51070   0.69905   0.47310   0.00000  Uiso   1.00
N46    N     0.09329   0.48060   0.48222   0.00000  Uiso   1.00
C47    C     0.73622   0.20719   0.89431   0.00000  Uiso   1.00
C48    C     0.70208   0.27441   0.91399   0.00000  Uiso   1.00
C49    C     0.67204   0.32930   0.88844   0.00000  Uiso   1.00
C50    C     0.64356   0.38622   0.91290   0.00000  Uiso   1.00
C51    C     0.59034   0.49034   0.93612   0.00000  Uiso   1.00
C52    C     0.81179   0.20486   0.91366   0.00000  Uiso   1.00
C53    C     0.87399   0.20125   0.88783   0.00000  Uiso   1.00
C54    C     0.93786   0.19960   0.91202   0.00000  Uiso   1.00
C55    C     0.05497   0.19568   0.93473   0.00000  Uiso   1.00
C56    C     0.69674   0.14466   0.91617   0.00000  Uiso   1.00
C57    C     0.66223   0.09043   0.89246   0.00000  Uiso   1.00
C58    C     0.62925   0.03809   0.91877   0.00000  Uiso   1.00
C59    C     0.56773   0.94070   0.94538   0.00000  Uiso   1.00
C60    C     0.73905   0.21064   0.98319   0.00000  Uiso   1.00
C61    C     0.70362   0.27629   0.96227   0.00000  Uiso   1.00
C62    C     0.67517   0.33313   0.98678   0.00000  Uiso   1.00
C63    C     0.64509   0.38810   0.96127   0.00000  Uiso   1.00
C64    C     0.81333   0.20674   0.96194   0.00000  Uiso   1.00
C65    C     0.87712   0.20508   0.98617   0.00000  Uiso   1.00
C66    C     0.93940   0.20148   0.96039   0.00000  Uiso   1.00
C67    C     0.69828   0.14654   0.96445   0.00000  Uiso   1.00
C68    C     0.66536   0.09426   0.99080   0.00000  Uiso   1.00
C69    C     0.63080   0.03997   0.96713   0.00000  Uiso   1.00
H70    H     0.73502   0.20572   0.85672   0.00000  Uiso   1.00
H71    H     0.67086   0.32783   0.85108   0.00000  Uiso   1.00
H72    H     0.87278   0.19979   0.85048   0.00000  Uiso   1.00
H73    H     0.66105   0.08899   0.85510   0.00000  Uiso   1.00
H74    H     0.60043   0.46406   0.86612   0.00000  Uiso   1.00
H75    H     0.02618   0.19405   0.86484   0.00000  Uiso   1.00
H76    H     0.57970   0.96041   0.87460   0.00000  Uiso   1.00
H77    H     0.74025   0.21211   0.02077   0.00000  Uiso   1.00
H78    H     0.67637   0.33457   0.02413   0.00000  Uiso   1.00
H79    H     0.87829   0.20653   0.02353   0.00000  Uiso   1.00
H80    H     0.66656   0.09573   0.02816   0.00000  Uiso   1.00
H81    H     0.60490   0.46953   0.00657   0.00000  Uiso   1.00
H82    H     0.03066   0.19952   0.00530   0.00000  Uiso   1.00
H83    H     0.58418   0.96588   0.01506   0.00000  Uiso   1.00
O84    O     0.56057   0.54725   0.93559   0.00000  Uiso   1.00
O85    O     0.11914   0.19300   0.93392   0.00000  Uiso   1.00
O86    O     0.53337   0.88647   0.94673   0.00000  Uiso   1.00
N87    N     0.61024   0.44853   0.89871   0.00000  Uiso   1.00
N88    N     0.00829   0.19611   0.89752   0.00000  Uiso   1.00
N89    N     0.59089   0.97766   0.90664   0.00000  Uiso   1.00
N90    N     0.61264   0.45148   0.97429   0.00000  Uiso   1.00
N91    N     0.01070   0.19905   0.97310   0.00000  Uiso   1.00
N92    N     0.59329   0.98060   0.98222   0.00000  Uiso   1.00
C93    C     0.26378   0.79281   0.89431   0.00000  Uiso   1.00
C94    C     0.29792   0.72559   0.91399   0.00000  Uiso   1.00
C95    C     0.32796   0.67070   0.88844   0.00000  Uiso   1.00
C96    C     0.35644   0.61378   0.91290   0.00000  Uiso   1.00
C97    C     0.40966   0.50966   0.93612   0.00000  Uiso   1.00
C98    C     0.18821   0.79514   0.91366   0.00000  Uiso   1.00
C99    C     0.12601   0.79875   0.88783   0.00000  Uiso   1.00
C100   C     0.06214   0.80040   0.91202   0.00000  Uiso   1.00
C101   C     0.94503   0.80432   0.93473   0.00000  Uiso   1.00
C102   C     0.30326   0.85534   0.91617   0.00000  Uiso   1.00
C103   C     0.33777   0.90957   0.89246   0.00000  Uiso   1.00
C104   C     0.37075   0.96191   0.91877   0.00000  Uiso   1.00
C105   C     0.43227   0.05930   0.94538   0.00000  Uiso   1.00
C106   C     0.26095   0.78936   0.98319   0.00000  Uiso   1.00
C107   C     0.29638   0.72371   0.96227   0.00000  Uiso   1.00
C108   C     0.32483   0.66687   0.98678   0.00000  Uiso   1.00
C109   C     0.35491   0.61190   0.96127   0.00000  Uiso   1.00
C110   C     0.18667   0.79326   0.96194   0.00000  Uiso   1.00
C111   C     0.12288   0.79492   0.98617   0.00000  Uiso   1.00
C112   C     0.06060   0.79852   0.96039   0.00000  Uiso   1.00
C113   C     0.30172   0.85346   0.96445   0.00000  Uiso   1.00
C114   C     0.33464   0.90574   0.99080   0.00000  Uiso   1.00
C115   C     0.36920   0.96003   0.96713   0.00000  Uiso   1.00
H116   H     0.26498   0.79428   0.85672   0.00000  Uiso   1.00
H117   H     0.32914   0.67217   0.85108   0.00000  Uiso   1.00
H118   H     0.12722   0.80021   0.85048   0.00000  Uiso   1.00
H119   H     0.33895   0.91101   0.85510   0.00000  Uiso   1.00
H120   H     0.39957   0.53594   0.86612   0.00000  Uiso   1.00
H121   H     0.97382   0.80595   0.86484   0.00000  Uiso   1.00
H122   H     0.42030   0.03959   0.87460   0.00000  Uiso   1.00
H123   H     0.25975   0.78789   0.02077   0.00000  Uiso   1.00
H124   H     0.32363   0.66543   0.02413   0.00000  Uiso   1.00
H125   H     0.12171   0.79347   0.02353   0.00000  Uiso   1.00
H126   H     0.33344   0.90427   0.02816   0.00000  Uiso   1.00
H127   H     0.39510   0.53047   0.00657   0.00000  Uiso   1.00
H128   H     0.96934   0.80048   0.00530   0.00000  Uiso   1.00
H129   H     0.41582   0.03412   0.01506   0.00000  Uiso   1.00
O130   O     0.43943   0.45275   0.93559   0.00000  Uiso   1.00
O131   O     0.88086   0.80700   0.93392   0.00000  Uiso   1.00
O132   O     0.46663   0.11353   0.94673   0.00000  Uiso   1.00
N133   N     0.38976   0.55147   0.89871   0.00000  Uiso   1.00
N134   N     0.99171   0.80389   0.89752   0.00000  Uiso   1.00
N135   N     0.40911   0.02234   0.90664   0.00000  Uiso   1.00
N136   N     0.38736   0.54852   0.97429   0.00000  Uiso   1.00
N137   N     0.98930   0.80095   0.97310   0.00000  Uiso   1.00
N138   N     0.40671   0.01940   0.98222   0.00000  Uiso   1.00
C139   C     0.76378   0.29281   0.39431   0.00000  Uiso   1.00
C140   C     0.79792   0.22559   0.41399   0.00000  Uiso   1.00
C141   C     0.82796   0.17070   0.38844   0.00000  Uiso   1.00
C142   C     0.85644   0.11378   0.41290   0.00000  Uiso   1.00
C143   C     0.90966   0.00966   0.43612   0.00000  Uiso   1.00
C144   C     0.68821   0.29514   0.41366   0.00000  Uiso   1.00
C145   C     0.62601   0.29875   0.38783   0.00000  Uiso   1.00
C146   C     0.56214   0.30040   0.41202   0.00000  Uiso   1.00
C147   C     0.44503   0.30432   0.43473   0.00000  Uiso   1.00
C148   C     0.80326   0.35534   0.41617   0.00000  Uiso   1.00
C149   C     0.83777   0.40957   0.39246   0.00000  Uiso   1.00
C150   C     0.87075   0.46191   0.41877   0.00000  Uiso   1.00
C151   C     0.93227   0.55930   0.44538   0.00000  Uiso   1.00
C152   C     0.76095   0.28936   0.48319   0.00000  Uiso   1.00
C153   C     0.79638   0.22371   0.46227   0.00000  Uiso   1.00
C154   C     0.82483   0.16687   0.48678   0.00000  Uiso   1.00
C155   C     0.85491   0.11190   0.46127   0.00000  Uiso   1.00
C156   C     0.68667   0.29326   0.46194   0.00000  Uiso   1.00
C157   C     0.62288   0.29492   0.48617   0.00000  Uiso   1.00
C158   C     0.56060   0.29852   0.46039   0.00000  Uiso   1.00
C159   C     0.80172   0.35346   0.46445   0.00000  Uiso   1.00
C160   C     0.83464   0.40574   0.49080   0.00000  Uiso   1.00
C161   C     0.86920   0.46003   0.46713   0.00000  Uiso   1.00
H162   H     0.76498   0.29428   0.35672   0.00000  Uiso   1.00
H163   H     0.82914   0.17217   0.35108   0.00000  Uiso   1.00
H164   H     0.62722   0.30021   0.35048   0.00000  Uiso   1.00
H165   H     0.83895   0.41101   0.35510   0.00000  Uiso   1.00
H166   H     0.89957   0.03594   0.36612   0.00000  Uiso   1.00
H167   H     0.47382   0.30595   0.36484   0.00000  Uiso   1.00
H168   H     0.92030   0.53959   0.37460   0.00000  Uiso   1.00
H169   H     0.75975   0.28789   0.52077   0.00000  Uiso   1.00
H170   H     0.82363   0.16543   0.52413   0.00000  Uiso   1.00
H171   H     0.62171   0.29347   0.52353   0.00000  Uiso   1.00
H172   H     0.83344   0.40427   0.52816   0.00000  Uiso   1.00
H173   H     0.89510   0.03047   0.50657   0.00000  Uiso   1.00
H174   H     0.46934   0.30048   0.50530   0.00000  Uiso   1.00
H175   H     0.91582   0.53412   0.51506   0.00000  Uiso   1.00
O176   O     0.93943   0.95275   0.43559   0.00000  Uiso   1.00
O177   O     0.38086   0.30700   0.43392   0.00000  Uiso   1.00
O178   O     0.96663   0.61353   0.44673   0.00000  Uiso   1.00
N179   N     0.88976   0.05147   0.39871   0.00000  Uiso   1.00
N180   N     0.49171   0.30389   0.39752   0.00000  Uiso   1.00
N181   N     0.90911   0.52234   0.40664   0.00000  Uiso   1.00
N182   N     0.88736   0.04852   0.47429   0.00000  Uiso   1.00
N183   N     0.48930   0.30095   0.47310   0.00000  Uiso   1.00
N184   N     0.90671   0.51940   0.48222   0.00000  Uiso   1.00
C185   C     0.29281   0.73622   0.64431   0.00000  Uiso   1.00
C186   C     0.22559   0.70208   0.66399   0.00000  Uiso   1.00
C187   C     0.17070   0.67204   0.63844   0.00000  Uiso   1.00
C188   C     0.11378   0.64356   0.66290   0.00000  Uiso   1.00
C189   C     0.00966   0.59034   0.68612   0.00000  Uiso   1.00
C190   C     0.29514   0.81179   0.66366   0.00000  Uiso   1.00
C191   C     0.29875   0.87399   0.63783   0.00000  Uiso   1.00
C192   C     0.30040   0.93786   0.66202   0.00000  Uiso   1.00
C193   C     0.30432   0.05497   0.68473   0.00000  Uiso   1.00
C194   C     0.35534   0.69674   0.66617   0.00000  Uiso   1.00
C195   C     0.40957   0.66223   0.64246   0.00000  Uiso   1.00
C196   C     0.46191   0.62925   0.66877   0.00000  Uiso   1.00
C197   C     0.55930   0.56773   0.69538   0.00000  Uiso   1.00
C198   C     0.28936   0.73905   0.73319   0.00000  Uiso   1.00
C199   C     0.22371   0.70362   0.71227   0.00000  Uiso   1.00
C200   C     0.16687   0.67517   0.73678   0.00000  Uiso   1.00
C201   C     0.11190   0.64509   0.71127   0.00000  Uiso   1.00
C202   C     0.29326   0.81333   0.71194   0.00000  Uiso   1.00
C203   C     0.29492   0.87712   0.73617   0.00000  Uiso   1.00
C204   C     0.29852   0.93940   0.71039   0.00000  Uiso   1.00
C205   C     0.35346   0.69828   0.71445   0.00000  Uiso   1.00
C206   C     0.40574   0.66536   0.74080   0.00000  Uiso   1.00
C207   C     0.46003   0.63080   0.71713   0.00000  Uiso   1.00
H208   H     0.29428   0.73502   0.60672   0.00000  Uiso   1.00
H209   H     0.17217   0.67086   0.60108   0.00000  Uiso   1.00
H210   H     0.30021   0.87278   0.60048   0.00000  Uiso   1.00
H211   H     0.41101   0.66105   0.60510   0.00000  Uiso   1.00
H212   H     0.03594   0.60043   0.61612   0.00000  Uiso   1.00
H213   H     0.30595   0.02618   0.61484   0.00000  Uiso   1.00
H214   H     0.53959   0.57970   0.62460   0.00000  Uiso   1.00
H215   H     0.28789   0.74025   0.77077   0.00000  Uiso   1.00
H216   H     0.16543   0.67637   0.77413   0.00000  Uiso   1.00
H217   H     0.29347   0.87829   0.77353   0.00000  Uiso   1.00
H218   H     0.40427   0.66656   0.77816   0.00000  Uiso   1.00
H219   H     0.03047   0.60490   0.75657   0.00000  Uiso   1.00
H220   H     0.30048   0.03066   0.75530   0.00000  Uiso   1.00
H221   H     0.53412   0.58418   0.76506   0.00000  Uiso   1.00
O222   O     0.95275   0.56057   0.68559   0.00000  Uiso   1.00
O223   O     0.30700   0.11914   0.68392   0.00000  Uiso   1.00
O224   O     0.61353   0.53337   0.69673   0.00000  Uiso   1.00
N225   N     0.05147   0.61024   0.64871   0.00000  Uiso   1.00
N226   N     0.30389   0.00829   0.64752   0.00000  Uiso   1.00
N227   N     0.52234   0.59089   0.65664   0.00000  Uiso   1.00
N228   N     0.04852   0.61264   0.72429   0.00000  Uiso   1.00
N229   N     0.30095   0.01070   0.72310   0.00000  Uiso   1.00
N230   N     0.51940   0.59329   0.73222   0.00000  Uiso   1.00
C231   C     0.79281   0.23622   0.14431   0.00000  Uiso   1.00
C232   C     0.72559   0.20208   0.16399   0.00000  Uiso   1.00
C233   C     0.67070   0.17204   0.13844   0.00000  Uiso   1.00
C234   C     0.61378   0.14356   0.16290   0.00000  Uiso   1.00
C235   C     0.50966   0.09034   0.18612   0.00000  Uiso   1.00
C236   C     0.79514   0.31179   0.16366   0.00000  Uiso   1.00
C237   C     0.79875   0.37399   0.13783   0.00000  Uiso   1.00
C238   C     0.80040   0.43786   0.16202   0.00000  Uiso   1.00
C239   C     0.80432   0.55497   0.18473   0.00000  Uiso   1.00
C240   C     0.85534   0.19674   0.16617   0.00000  Uiso   1.00
C241   C     0.90957   0.16223   0.14246   0.00000  Uiso   1.00
C242   C     0.96191   0.12925   0.16877   0.00000  Uiso   1.00
C243   C     0.05930   0.06773   0.19538   0.00000  Uiso   1.00
C244   C     0.78936   0.23905   0.23319   0.00000  Uiso   1.00
C245   C     0.72371   0.20362   0.21227   0.00000  Uiso   1.00
C246   C     0.66687   0.17517   0.23678   0.00000  Uiso   1.00
C247   C     0.61190   0.14509   0.21127   0.00000  Uiso   1.00
C248   C     0.79326   0.31333   0.21194   0.00000  Uiso   1.00
C249   C     0.79492   0.37712   0.23617   0.00000  Uiso   1.00
C250   C     0.79852   0.43940   0.21039   0.00000  Uiso   1.00
C251   C     0.85346   0.19828   0.21445   0.00000  Uiso   1.00
C252   C     0.90574   0.16536   0.24080   0.00000  Uiso   1.00
C253   C     0.96003   0.13080   0.21713   0.00000  Uiso   1.00
H254   H     0.79428   0.23502   0.10672   0.00000  Uiso   1.00
H255   H     0.67217   0.17086   0.10108   0.00000  Uiso   1.00
H256   H     0.80021   0.37278   0.10048   0.00000  Uiso   1.00
H257   H     0.91101   0.16105   0.10510   0.00000  Uiso   1.00
H258   H     0.53594   0.10043   0.11612   0.00000  Uiso   1.00
H259   H     0.80595   0.52618   0.11484   0.00000  Uiso   1.00
H260   H     0.03959   0.07970   0.12460   0.00000  Uiso   1.00
H261   H     0.78789   0.24025   0.27077   0.00000  Uiso   1.00
H262   H     0.66543   0.17637   0.27413   0.00000  Uiso   1.00
H263   H     0.79347   0.37829   0.27353   0.00000  Uiso   1.00
H264   H     0.90427   0.16656   0.27816   0.00000  Uiso   1.00
H265   H     0.53047   0.10490   0.25657   0.00000  Uiso   1.00
H266   H     0.80048   0.53066   0.25530   0.00000  Uiso   1.00
H267   H     0.03412   0.08418   0.26506   0.00000  Uiso   1.00
O268   O     0.45275   0.06057   0.18559   0.00000  Uiso   1.00
O269   O     0.80700   0.61914   0.18392   0.00000  Uiso   1.00
O270   O     0.11353   0.03337   0.19673   0.00000  Uiso   1.00
N271   N     0.55147   0.11024   0.14871   0.00000  Uiso   1.00
N272   N     0.80389   0.50829   0.14752   0.00000  Uiso   1.00
N273   N     0.02234   0.09089   0.15664   0.00000  Uiso   1.00
N274   N     0.54852   0.11264   0.22429   0.00000  Uiso   1.00
N275   N     0.80095   0.51070   0.22310   0.00000  Uiso   1.00
N276   N     0.01940   0.09329   0.23222   0.00000  Uiso   1.00
C277   C     0.20719   0.76378   0.14431   0.00000  Uiso   1.00
C278   C     0.27441   0.79792   0.16399   0.00000  Uiso   1.00
C279   C     0.32930   0.82796   0.13844   0.00000  Uiso   1.00
C280   C     0.38622   0.85644   0.16290   0.00000  Uiso   1.00
C281   C     0.49034   0.90966   0.18612   0.00000  Uiso   1.00
C282   C     0.20486   0.68821   0.16366   0.00000  Uiso   1.00
C283   C     0.20125   0.62601   0.13783   0.00000  Uiso   1.00
C284   C     0.19960   0.56214   0.16202   0.00000  Uiso   1.00
C285   C     0.19568   0.44503   0.18473   0.00000  Uiso   1.00
C286   C     0.14466   0.80326   0.16617   0.00000  Uiso   1.00
C287   C     0.09043   0.83777   0.14246   0.00000  Uiso   1.00
C288   C     0.03809   0.87075   0.16877   0.00000  Uiso   1.00
C289   C     0.94070   0.93227   0.19538   0.00000  Uiso   1.00
C290   C     0.21064   0.76095   0.23319   0.00000  Uiso   1.00
C291   C     0.27629   0.79638   0.21227   0.00000  Uiso   1.00
C292   C     0.33313   0.82483   0.23678   0.00000  Uiso   1.00
C293   C     0.38810   0.85491   0.21127   0.00000  Uiso   1.00
C294   C     0.20674   0.68667   0.21194   0.00000  Uiso   1.00
C295   C     0.20508   0.62288   0.23617   0.00000  Uiso   1.00
C296   C     0.20148   0.56060   0.21039   0.00000  Uiso   1.00
C297   C     0.14654   0.80172   0.21445   0.00000  Uiso   1.00
C298   C     0.09426   0.83464   0.24080   0.00000  Uiso   1.00
C299   C     0.03997   0.86920   0.21713   0.00000  Uiso   1.00
H300   H     0.20572   0.76498   0.10672   0.00000  Uiso   1.00
H301   H     0.32783   0.82914   0.10108   0.00000  Uiso   1.00
H302   H     0.19979   0.62722   0.10048   0.00000  Uiso   1.00
H303   H     0.08899   0.83895   0.10510   0.00000  Uiso   1.00
H304   H     0.46406   0.89957   0.11612   0.00000  Uiso   1.00
H305   H     0.19405   0.47382   0.11484   0.00000  Uiso   1.00
H306   H     0.96041   0.92030   0.12460   0.00000  Uiso   1.00
H307   H     0.21211   0.75975   0.27077   0.00000  Uiso   1.00
H308   H     0.33457   0.82363   0.27413   0.00000  Uiso   1.00
H309   H     0.20653   0.62171   0.27353   0.00000  Uiso   1.00
H310   H     0.09573   0.83344   0.27816   0.00000  Uiso   1.00
H311   H     0.46953   0.89510   0.25657   0.00000  Uiso   1.00
H312   H     0.19952   0.46934   0.25530   0.00000  Uiso   1.00
H313   H     0.96588   0.91582   0.26506   0.00000  Uiso   1.00
O314   O     0.54725   0.93943   0.18559   0.00000  Uiso   1.00
O315   O     0.19300   0.38086   0.18392   0.00000  Uiso   1.00
O316   O     0.88647   0.96663   0.19673   0.00000  Uiso   1.00
N317   N     0.44853   0.88976   0.14871   0.00000  Uiso   1.00
N318   N     0.19611   0.49171   0.14752   0.00000  Uiso   1.00
N319   N     0.97766   0.90911   0.15664   0.00000  Uiso   1.00
N320   N     0.45148   0.88736   0.22429   0.00000  Uiso   1.00
N321   N     0.19905   0.48930   0.22310   0.00000  Uiso   1.00
N322   N     0.98060   0.90671   0.23222   0.00000  Uiso   1.00
C323   C     0.70719   0.26378   0.64431   0.00000  Uiso   1.00
C324   C     0.77441   0.29792   0.66399   0.00000  Uiso   1.00
C325   C     0.82930   0.32796   0.63844   0.00000  Uiso   1.00
C326   C     0.88622   0.35644   0.66290   0.00000  Uiso   1.00
C327   C     0.99034   0.40966   0.68612   0.00000  Uiso   1.00
C328   C     0.70486   0.18821   0.66366   0.00000  Uiso   1.00
C329   C     0.70125   0.12601   0.63783   0.00000  Uiso   1.00
C330   C     0.69960   0.06214   0.66202   0.00000  Uiso   1.00
C331   C     0.69568   0.94503   0.68473   0.00000  Uiso   1.00
C332   C     0.64466   0.30326   0.66617   0.00000  Uiso   1.00
C333   C     0.59043   0.33777   0.64246   0.00000  Uiso   1.00
C334   C     0.53809   0.37075   0.66877   0.00000  Uiso   1.00
C335   C     0.44070   0.43227   0.69538   0.00000  Uiso   1.00
C336   C     0.71064   0.26095   0.73319   0.00000  Uiso   1.00
C337   C     0.77629   0.29638   0.71227   0.00000  Uiso   1.00
C338   C     0.83313   0.32483   0.73678   0.00000  Uiso   1.00
C339   C     0.88810   0.35491   0.71127   0.00000  Uiso   1.00
C340   C     0.70674   0.18667   0.71194   0.00000  Uiso   1.00
C341   C     0.70508   0.12288   0.73617   0.00000  Uiso   1.00
C342   C     0.70148   0.06060   0.71039   0.00000  Uiso   1.00
C343   C     0.64654   0.30172   0.71445   0.00000  Uiso   1.00
C344   C     0.59426   0.33464   0.74080   0.00000  Uiso   1.00
C345   C     0.53997   0.36920   0.71713   0.00000  Uiso   1.00
H346   H     0.70572   0.26498   0.60672   0.00000  Uiso   1.00
H347   H     0.82783   0.32914   0.60108   0.00000  Uiso   1.00
H348   H     0.69979   0.12722   0.60048   0.00000  Uiso   1.00
H349   H     0.58899   0.33895   0.60510   0.00000  Uiso   1.00
H350   H     0.96406   0.39957   0.61612   0.00000  Uiso   1.00
H351   H     0.69405   0.97382   0.61484   0.00000  Uiso   1.00
H352   H     0.46041   0.42030   0.62460   0.00000  Uiso   1.00
H353   H     0.71211   0.25975   0.77077   0.00000  Uiso   1.00
H354   H     0.83457   0.32363   0.77413   0.00000  Uiso   1.00
H355   H     0.70653   0.12171   0.77353   0.00000  Uiso   1.00
H356   H     0.59573   0.33344   0.77816   0.00000  Uiso   1.00
H357   H     0.96953   0.39510   0.75657   0.00000  Uiso   1.00
H358   H     0.69952   0.96934   0.75530   0.00000  Uiso   1.00
H359   H     0.46588   0.41582   0.76506   0.00000  Uiso   1.00
O360   O     0.04725   0.43943   0.68559   0.00000  Uiso   1.00
O361   O     0.69300   0.88086   0.68392   0.00000  Uiso   1.00
O362   O     0.38647   0.46663   0.69673   0.00000  Uiso   1.00
N363   N     0.94853   0.38976   0.64871   0.00000  Uiso   1.00
N364   N     0.69611   0.99171   0.64752   0.00000  Uiso   1.00
N365   N     0.47766   0.40911   0.65664   0.00000  Uiso   1.00
N366   N     0.95148   0.38736   0.72429   0.00000  Uiso   1.00
N367   N     0.69905   0.98930   0.72310   0.00000  Uiso   1.00
N368   N     0.48060   0.40671   0.73222   0.00000  Uiso   1.00
C369   C     0.76378   0.79281   0.85569   0.00000  Uiso   1.00
C370   C     0.79792   0.72559   0.83601   0.00000  Uiso   1.00
C371   C     0.82796   0.67070   0.86156   0.00000  Uiso   1.00
C372   C     0.85644   0.61378   0.83710   0.00000  Uiso   1.00
C373   C     0.90966   0.50966   0.81388   0.00000  Uiso   1.00
C374   C     0.68821   0.79514   0.83634   0.00000  Uiso   1.00
C375   C     0.62601   0.79875   0.86217   0.00000  Uiso   1.00
C376   C     0.56214   0.80040   0.83798   0.00000  Uiso   1.00
C377   C     0.44503   0.80432   0.81527   0.00000  Uiso   1.00
C378   C     0.80326   0.85534   0.83383   0.00000  Uiso   1.00
C379   C     0.83777   0.90957   0.85754   0.00000  Uiso   1.00
C380   C     0.87075   0.96191   0.83123   0.00000  Uiso   1.00
C381   C     0.93227   0.05930   0.80462   0.00000  Uiso   1.00
C382   C     0.76095   0.78936   0.76681   0.00000  Uiso   1.00
C383   C     0.79638   0.72371   0.78773   0.00000  Uiso   1.00
C384   C     0.82483   0.66687   0.76322   0.00000  Uiso   1.00
C385   C     0.85491   0.61190   0.78873   0.00000  Uiso   1.00
C386   C     0.68667   0.79326   0.78806   0.00000  Uiso   1.00
C387   C     0.62288   0.79492   0.76383   0.00000  Uiso   1.00
C388   C     0.56060   0.79852   0.78961   0.00000  Uiso   1.00
C389   C     0.80172   0.85346   0.78555   0.00000  Uiso   1.00
C390   C     0.83464   0.90574   0.75920   0.00000  Uiso   1.00
C391   C     0.86920   0.96003   0.78287   0.00000  Uiso   1.00
H392   H     0.76498   0.79428   0.89328   0.00000  Uiso   1.00
H393   H     0.82914   0.67217   0.89892   0.00000  Uiso   1.00
H394   H     0.62722   0.80021   0.89952   0.00000  Uiso   1.00
H395   H     0.83895   0.91101   0.89490   0.00000  Uiso   1.00
H396   H     0.89957   0.53594   0.88388   0.00000  Uiso   1.00
H397   H     0.47382   0.80595   0.88516   0.00000  Uiso   1.00
H398   H     0.92030   0.03959   0.87540   0.00000  Uiso   1.00
H399   H     0.75975   0.78789   0.72923   0.00000  Uiso   1.00
H400   H     0.82363   0.66543   0.72587   0.00000  Uiso   1.00
H401   H     0.62171   0.79347   0.72647   0.00000  Uiso   1.00
H402   H     0.83344   0.90427   0.72184   0.00000  Uiso   1.00
H403   H     0.89510   0.53047   0.74343   0.00000  Uiso   1.00
H404   H     0.46934   0.80048   0.74470   0.00000  Uiso   1.00
H405   H     0.91582   0.03412   0.73494   0.00000  Uiso   1.00
O406   O     0.93943   0.45275   0.81441   0.00000  Uiso   1.00
O407   O     0.38086   0.80700   0.81608   0.00000  Uiso   1.00
O408   O     0.96663   0.11353   0.80327   0.00000  Uiso   1.00
N409   N     0.88976   0.55147   0.85129   0.00000  Uiso   1.00
N410   N     0.49171   0.80389   0.85248   0.00000  Uiso   1.00
N411   N     0.90911   0.02234   0.84336   0.00000  Uiso   1.00
N412   N     0.88736   0.54852   0.77571   0.00000  Uiso   1.00
N413   N     0.48930   0.80095   0.77690   0.00000  Uiso   1.00
N414   N     0.90671   0.01940   0.76778   0.00000  Uiso   1.00
C415   C     0.26378   0.29281   0.35569   0.00000  Uiso   1.00
C416   C     0.29792   0.22559   0.33601   0.00000  Uiso   1.00
C417   C     0.32796   0.17070   0.36156   0.00000  Uiso   1.00
C418   C     0.35644   0.11378   0.33710   0.00000  Uiso   1.00
C419   C     0.40966   0.00966   0.31388   0.00000  Uiso   1.00
C420   C     0.18821   0.29514   0.33634   0.00000  Uiso   1.00
C421   C     0.12601   0.29875   0.36217   0.00000  Uiso   1.00
C422   C     0.06214   0.30040   0.33798   0.00000  Uiso   1.00
C423   C     0.94503   0.30432   0.31527   0.00000  Uiso   1.00
C424   C     0.30326   0.35534   0.33383   0.00000  Uiso   1.00
C425   C     0.33777   0.40957   0.35754   0.00000  Uiso   1.00
C426   C     0.37075   0.46191   0.33123   0.00000  Uiso   1.00
C427   C     0.43227   0.55930   0.30462   0.00000  Uiso   1.00
C428   C     0.26095   0.28936   0.26681   0.00000  Uiso   1.00
C429   C     0.29638   0.22371   0.28773   0.00000  Uiso   1.00
C430   C     0.32483   0.16687   0.26322   0.00000  Uiso   1.00
C431   C     0.35491   0.11190   0.28873   0.00000  Uiso   1.00
C432   C     0.18667   0.29326   0.28806   0.00000  Uiso   1.00
C433   C     0.12288   0.29492   0.26383   0.00000  Uiso   1.00
C434   C     0.06060   0.29852   0.28961   0.00000  Uiso   1.00
C435   C     0.30172   0.35346   0.28555   0.00000  Uiso   1.00
C436   C     0.33464   0.40574   0.25920   0.00000  Uiso   1.00
C437   C     0.36920   0.46003   0.28287   0.00000  Uiso   1.00
H438   H     0.26498   0.29428   0.39328   0.00000  Uiso   1.00
H439   H     0.32914   0.17217   0.39892   0.00000  Uiso   1.00
H440   H     0.12722   0.30021   0.39952   0.00000  Uiso   1.00
H441   H     0.33895   0.41101   0.39490   0.00000  Uiso   1.00
H442   H     0.39957   0.03594   0.38388   0.00000  Uiso   1.00
H443   H     0.97382   0.30595   0.38516   0.00000  Uiso   1.00
H444   H     0.42030   0.53959   0.37540   0.00000  Uiso   1.00
H445   H     0.25975   0.28789   0.22923   0.00000  Uiso   1.00
H446   H     0.32363   0.16543   0.22587   0.00000  Uiso   1.00
H447   H     0.12171   0.29347   0.22647   0.00000  Uiso   1.00
H448   H     0.33344   0.40427   0.22184   0.00000  Uiso   1.00
H449   H     0.39510   0.03047   0.24343   0.00000  Uiso   1.00
H450   H     0.96934   0.30048   0.24470   0.00000  Uiso   1.00
H451   H     0.41582   0.53412   0.23494   0.00000  Uiso   1.00
O452   O     0.43943   0.95275   0.31441   0.00000  Uiso   1.00
O453   O     0.88086   0.30700   0.31608   0.00000  Uiso   1.00
O454   O     0.46663   0.61353   0.30327   0.00000  Uiso   1.00
N455   N     0.38976   0.05147   0.35129   0.00000  Uiso   1.00
N456   N     0.99171   0.30389   0.35248   0.00000  Uiso   1.00
N457   N     0.40911   0.52234   0.34336   0.00000  Uiso   1.00
N458   N     0.38736   0.04852   0.27571   0.00000  Uiso   1.00
N459   N     0.98930   0.30095   0.27690   0.00000  Uiso   1.00
N460   N     0.40671   0.51940   0.26778   0.00000  Uiso   1.00
C461   C     0.73622   0.70719   0.35569   0.00000  Uiso   1.00
C462   C     0.70208   0.77441   0.33601   0.00000  Uiso   1.00
C463   C     0.67204   0.82930   0.36156   0.00000  Uiso   1.00
C464   C     0.64356   0.88622   0.33710   0.00000  Uiso   1.00
C465   C     0.59034   0.99034   0.31388   0.00000  Uiso   1.00
C466   C     0.81179   0.70486   0.33634   0.00000  Uiso   1.00
C467   C     0.87399   0.70125   0.36217   0.00000  Uiso   1.00
C468   C     0.93786   0.69960   0.33798   0.00000  Uiso   1.00
C469   C     0.05497   0.69568   0.31527   0.00000  Uiso   1.00
C470   C     0.69674   0.64466   0.33383   0.00000  Uiso   1.00
C471   C     0.66223   0.59043   0.35754   0.00000  Uiso   1.00
C472   C     0.62925   0.53809   0.33123   0.00000  Uiso   1.00
C473   C     0.56773   0.44070   0.30462   0.00000  Uiso   1.00
C474   C     0.73905   0.71064   0.26681   0.00000  Uiso   1.00
C475   C     0.70362   0.77629   0.28773   0.00000  Uiso   1.00
C476   C     0.67517   0.83313   0.26322   0.00000  Uiso   1.00
C477   C     0.64509   0.88810   0.28873   0.00000  Uiso   1.00
C478   C     0.81333   0.70674   0.28806   0.00000  Uiso   1.00
C479   C     0.87712   0.70508   0.26383   0.00000  Uiso   1.00
C480   C     0.93940   0.70148   0.28961   0.00000  Uiso   1.00
C481   C     0.69828   0.64654   0.28555   0.00000  Uiso   1.00
C482   C     0.66536   0.59426   0.25920   0.00000  Uiso   1.00
C483   C     0.63080   0.53997   0.28287   0.00000  Uiso   1.00
H484   H     0.73502   0.70572   0.39328   0.00000  Uiso   1.00
H485   H     0.67086   0.82783   0.39892   0.00000  Uiso   1.00
H486   H     0.87278   0.69979   0.39952   0.00000  Uiso   1.00
H487   H     0.66105   0.58899   0.39490   0.00000  Uiso   1.00
H488   H     0.60043   0.96406   0.38388   0.00000  Uiso   1.00
H489   H     0.02618   0.69405   0.38516   0.00000  Uiso   1.00
H490   H     0.57970   0.46041   0.37540   0.00000  Uiso   1.00
H491   H     0.74025   0.71211   0.22923   0.00000  Uiso   1.00
H492   H     0.67637   0.83457   0.22587   0.00000  Uiso   1.00
H493   H     0.87829   0.70653   0.22647   0.00000  Uiso   1.00
H494   H     0.66656   0.59573   0.22184   0.00000  Uiso   1.00
H495   H     0.60490   0.96953   0.24343   0.00000  Uiso   1.00
H496   H     0.03066   0.69952   0.24470   0.00000  Uiso   1.00
H497   H     0.58418   0.46588   0.23494   0.00000  Uiso   1.00
O498   O     0.56057   0.04725   0.31441   0.00000  Uiso   1.00
O499   O     0.11914   0.69300   0.31608   0.00000  Uiso   1.00
O500   O     0.53337   0.38647   0.30327   0.00000  Uiso   1.00
N501   N     0.61024   0.94853   0.35129   0.00000  Uiso   1.00
N502   N     0.00829   0.69611   0.35248   0.00000  Uiso   1.00
N503   N     0.59089   0.47766   0.34336   0.00000  Uiso   1.00
N504   N     0.61264   0.95148   0.27571   0.00000  Uiso   1.00
N505   N     0.01070   0.69905   0.27690   0.00000  Uiso   1.00
N506   N     0.59329   0.48060   0.26778   0.00000  Uiso   1.00
C507   C     0.23622   0.20719   0.85569   0.00000  Uiso   1.00
C508   C     0.20208   0.27441   0.83601   0.00000  Uiso   1.00
C509   C     0.17204   0.32930   0.86156   0.00000  Uiso   1.00
C510   C     0.14356   0.38622   0.83710   0.00000  Uiso   1.00
C511   C     0.09034   0.49034   0.81388   0.00000  Uiso   1.00
C512   C     0.31179   0.20486   0.83634   0.00000  Uiso   1.00
C513   C     0.37399   0.20125   0.86217   0.00000  Uiso   1.00
C514   C     0.43786   0.19960   0.83798   0.00000  Uiso   1.00
C515   C     0.55497   0.19568   0.81527   0.00000  Uiso   1.00
C516   C     0.19674   0.14466   0.83383   0.00000  Uiso   1.00
C517   C     0.16223   0.09043   0.85754   0.00000  Uiso   1.00
C518   C     0.12925   0.03809   0.83123   0.00000  Uiso   1.00
C519   C     0.06773   0.94070   0.80462   0.00000  Uiso   1.00
C520   C     0.23905   0.21064   0.76681   0.00000  Uiso   1.00
C521   C     0.20362   0.27629   0.78773   0.00000  Uiso   1.00
C522   C     0.17517   0.33313   0.76322   0.00000  Uiso   1.00
C523   C     0.14509   0.38810   0.78873   0.00000  Uiso   1.00
C524   C     0.31333   0.20674   0.78806   0.00000  Uiso   1.00
C525   C     0.37712   0.20508   0.76383   0.00000  Uiso   1.00
C526   C     0.43940   0.20148   0.78961   0.00000  Uiso   1.00
C527   C     0.19828   0.14654   0.78555   0.00000  Uiso   1.00
C528   C     0.16536   0.09426   0.75920   0.00000  Uiso   1.00
C529   C     0.13080   0.03997   0.78287   0.00000  Uiso   1.00
H530   H     0.23502   0.20572   0.89328   0.00000  Uiso   1.00
H531   H     0.17086   0.32783   0.89892   0.00000  Uiso   1.00
H532   H     0.37278   0.19979   0.89952   0.00000  Uiso   1.00
H533   H     0.16105   0.08899   0.89490   0.00000  Uiso   1.00
H534   H     0.10043   0.46406   0.88388   0.00000  Uiso   1.00
H535   H     0.52618   0.19405   0.88516   0.00000  Uiso   1.00
H536   H     0.07970   0.96041   0.87540   0.00000  Uiso   1.00
H537   H     0.24025   0.21211   0.72923   0.00000  Uiso   1.00
H538   H     0.17637   0.33457   0.72587   0.00000  Uiso   1.00
H539   H     0.37829   0.20653   0.72647   0.00000  Uiso   1.00
H540   H     0.16656   0.09573   0.72184   0.00000  Uiso   1.00
H541   H     0.10490   0.46953   0.74343   0.00000  Uiso   1.00
H542   H     0.53066   0.19952   0.74470   0.00000  Uiso   1.00
H543   H     0.08418   0.96588   0.73494   0.00000  Uiso   1.00
O544   O     0.06057   0.54725   0.81441   0.00000  Uiso   1.00
O545   O     0.61914   0.19300   0.81608   0.00000  Uiso   1.00
O546   O     0.03337   0.88647   0.80327   0.00000  Uiso   1.00
N547   N     0.11024   0.44853   0.85129   0.00000  Uiso   1.00
N548   N     0.50829   0.19611   0.85248   0.00000  Uiso   1.00
N549   N     0.09089   0.97766   0.84336   0.00000  Uiso   1.00
N550   N     0.11264   0.45148   0.77571   0.00000  Uiso   1.00
N551   N     0.51070   0.19905   0.77690   0.00000  Uiso   1.00
N552   N     0.09329   0.98060   0.76778   0.00000  Uiso   1.00
C553   C     0.70719   0.76378   0.60569   0.00000  Uiso   1.00
C554   C     0.77441   0.79792   0.58601   0.00000  Uiso   1.00
C555   C     0.82930   0.82796   0.61156   0.00000  Uiso   1.00
C556   C     0.88622   0.85644   0.58710   0.00000  Uiso   1.00
C557   C     0.99034   0.90966   0.56388   0.00000  Uiso   1.00
C558   C     0.70486   0.68821   0.58634   0.00000  Uiso   1.00
C559   C     0.70125   0.62601   0.61217   0.00000  Uiso   1.00
C560   C     0.69960   0.56214   0.58798   0.00000  Uiso   1.00
C561   C     0.69568   0.44503   0.56527   0.00000  Uiso   1.00
C562   C     0.64466   0.80326   0.58383   0.00000  Uiso   1.00
C563   C     0.59043   0.83777   0.60754   0.00000  Uiso   1.00
C564   C     0.53809   0.87075   0.58123   0.00000  Uiso   1.00
C565   C     0.44070   0.93227   0.55462   0.00000  Uiso   1.00
C566   C     0.71064   0.76095   0.51681   0.00000  Uiso   1.00
C567   C     0.77629   0.79638   0.53773   0.00000  Uiso   1.00
C568   C     0.83313   0.82483   0.51322   0.00000  Uiso   1.00
C569   C     0.88810   0.85491   0.53873   0.00000  Uiso   1.00
C570   C     0.70674   0.68667   0.53806   0.00000  Uiso   1.00
C571   C     0.70508   0.62288   0.51383   0.00000  Uiso   1.00
C572   C     0.70148   0.56060   0.53961   0.00000  Uiso   1.00
C573   C     0.64654   0.80172   0.53555   0.00000  Uiso   1.00
C574   C     0.59426   0.83464   0.50920   0.00000  Uiso   1.00
C575   C     0.53997   0.86920   0.53287   0.00000  Uiso   1.00
H576   H     0.70572   0.76498   0.64328   0.00000  Uiso   1.00
H577   H     0.82783   0.82914   0.64892   0.00000  Uiso   1.00
H578   H     0.69979   0.62722   0.64952   0.00000  Uiso   1.00
H579   H     0.58899   0.83895   0.64490   0.00000  Uiso   1.00
H580   H     0.96406   0.89957   0.63388   0.00000  Uiso   1.00
H581   H     0.69405   0.47382   0.63516   0.00000  Uiso   1.00
H582   H     0.46041   0.92030   0.62540   0.00000  Uiso   1.00
H583   H     0.71211   0.75975   0.47923   0.00000  Uiso   1.00
H584   H     0.83457   0.82363   0.47587   0.00000  Uiso   1.00
H585   H     0.70653   0.62171   0.47647   0.00000  Uiso   1.00
H586   H     0.59573   0.83344   0.47184   0.00000  Uiso   1.00
H587   H     0.96953   0.89510   0.49343   0.00000  Uiso   1.00
H588   H     0.69952   0.46934   0.49470   0.00000  Uiso   1.00
H589   H     0.46588   0.91582   0.48494   0.00000  Uiso   1.00
O590   O     0.04725   0.93943   0.56441   0.00000  Uiso   1.00
O591   O     0.69300   0.38086   0.56608   0.00000  Uiso   1.00
O592   O     0.38647   0.96663   0.55327   0.00000  Uiso   1.00
N593   N     0.94853   0.88976   0.60129   0.00000  Uiso   1.00
N594   N     0.69611   0.49171   0.60248   0.00000  Uiso   1.00
N595   N     0.47766   0.90911   0.59336   0.00000  Uiso   1.00
N596   N     0.95148   0.88736   0.52571   0.00000  Uiso   1.00
N597   N     0.69905   0.48930   0.52690   0.00000  Uiso   1.00
N598   N     0.48060   0.90671   0.51778   0.00000  Uiso   1.00
C599   C     0.20719   0.26378   0.10569   0.00000  Uiso   1.00
C600   C     0.27441   0.29792   0.08601   0.00000  Uiso   1.00
C601   C     0.32930   0.32796   0.11156   0.00000  Uiso   1.00
C602   C     0.38622   0.35644   0.08710   0.00000  Uiso   1.00
C603   C     0.49034   0.40966   0.06388   0.00000  Uiso   1.00
C604   C     0.20486   0.18821   0.08634   0.00000  Uiso   1.00
C605   C     0.20125   0.12601   0.11217   0.00000  Uiso   1.00
C606   C     0.19960   0.06214   0.08798   0.00000  Uiso   1.00
C607   C     0.19568   0.94503   0.06527   0.00000  Uiso   1.00
C608   C     0.14466   0.30326   0.08383   0.00000  Uiso   1.00
C609   C     0.09043   0.33777   0.10754   0.00000  Uiso   1.00
C610   C     0.03809   0.37075   0.08123   0.00000  Uiso   1.00
C611   C     0.94070   0.43227   0.05462   0.00000  Uiso   1.00
C612   C     0.21064   0.26095   0.01681   0.00000  Uiso   1.00
C613   C     0.27629   0.29638   0.03773   0.00000  Uiso   1.00
C614   C     0.33313   0.32483   0.01322   0.00000  Uiso   1.00
C615   C     0.38810   0.35491   0.03873   0.00000  Uiso   1.00
C616   C     0.20674   0.18667   0.03806   0.00000  Uiso   1.00
C617   C     0.20508   0.12288   0.01383   0.00000  Uiso   1.00
C618   C     0.20148   0.06060   0.03961   0.00000  Uiso   1.00
C619   C     0.14654   0.30172   0.03555   0.00000  Uiso   1.00
C620   C     0.09426   0.33464   0.00920   0.00000  Uiso   1.00
C621   C     0.03997   0.36920   0.03287   0.00000  Uiso   1.00
H622   H     0.20572   0.26498   0.14328   0.00000  Uiso   1.00
H623   H     0.32783   0.32914   0.14892   0.00000  Uiso   1.00
H624   H     0.19979   0.12722   0.14952   0.00000  Uiso   1.00
H625   H     0.08899   0.33895   0.14490   0.00000  Uiso   1.00
H626   H     0.46406   0.39957   0.13388   0.00000  Uiso   1.00
H627   H     0.19405   0.97382   0.13516   0.00000  Uiso   1.00
H628   H     0.96041   0.42030   0.12540   0.00000  Uiso   1.00
H629   H     0.21211   0.25975   0.97923   0.00000  Uiso   1.00
H630   H     0.33457   0.32363   0.97587   0.00000  Uiso   1.00
H631   H     0.20653   0.12171   0.97647   0.00000  Uiso   1.00
H632   H     0.09573   0.33344   0.97184   0.00000  Uiso   1.00
H633   H     0.46953   0.39510   0.99343   0.00000  Uiso   1.00
H634   H     0.19952   0.96934   0.99470   0.00000  Uiso   1.00
H635   H     0.96588   0.41582   0.98494   0.00000  Uiso   1.00
O636   O     0.54725   0.43943   0.06441   0.00000  Uiso   1.00
O637   O     0.19300   0.88086   0.06608   0.00000  Uiso   1.00
O638   O     0.88647   0.46663   0.05327   0.00000  Uiso   1.00
N639   N     0.44853   0.38976   0.10129   0.00000  Uiso   1.00
N640   N     0.19611   0.99171   0.10248   0.00000  Uiso   1.00
N641   N     0.97766   0.40911   0.09336   0.00000  Uiso   1.00
N642   N     0.45148   0.38736   0.02571   0.00000  Uiso   1.00
N643   N     0.19905   0.98930   0.02690   0.00000  Uiso   1.00
N644   N     0.98060   0.40671   0.01778   0.00000  Uiso   1.00
C645   C     0.79281   0.73622   0.10569   0.00000  Uiso   1.00
C646   C     0.72559   0.70208   0.08601   0.00000  Uiso   1.00
C647   C     0.67070   0.67204   0.11156   0.00000  Uiso   1.00
C648   C     0.61378   0.64356   0.08710   0.00000  Uiso   1.00
C649   C     0.50966   0.59034   0.06388   0.00000  Uiso   1.00
C650   C     0.79514   0.81179   0.08634   0.00000  Uiso   1.00
C651   C     0.79875   0.87399   0.11217   0.00000  Uiso   1.00
C652   C     0.80040   0.93786   0.08798   0.00000  Uiso   1.00
C653   C     0.80432   0.05497   0.06527   0.00000  Uiso   1.00
C654   C     0.85534   0.69674   0.08383   0.00000  Uiso   1.00
C655   C     0.90957   0.66223   0.10754   0.00000  Uiso   1.00
C656   C     0.96191   0.62925   0.08123   0.00000  Uiso   1.00
C657   C     0.05930   0.56773   0.05462   0.00000  Uiso   1.00
C658   C     0.78936   0.73905   0.01681   0.00000  Uiso   1.00
C659   C     0.72371   0.70362   0.03773   0.00000  Uiso   1.00
C660   C     0.66687   0.67517   0.01322   0.00000  Uiso   1.00
C661   C     0.61190   0.64509   0.03873   0.00000  Uiso   1.00
C662   C     0.79326   0.81333   0.03806   0.00000  Uiso   1.00
C663   C     0.79492   0.87712   0.01383   0.00000  Uiso   1.00
C664   C     0.79852   0.93940   0.03961   0.00000  Uiso   1.00
C665   C     0.85346   0.69828   0.03555   0.00000  Uiso   1.00
C666   C     0.90574   0.66536   0.00920   0.00000  Uiso   1.00
C667   C     0.96003   0.63080   0.03287   0.00000  Uiso   1.00
H668   H     0.79428   0.73502   0.14328   0.00000  Uiso   1.00
H669   H     0.67217   0.67086   0.14892   0.00000  Uiso   1.00
H670   H     0.80021   0.87278   0.14952   0.00000  Uiso   1.00
H671   H     0.91101   0.66105   0.14490   0.00000  Uiso   1.00
H672   H     0.53594   0.60043   0.13388   0.00000  Uiso   1.00
H673   H     0.80595   0.02618   0.13516   0.00000  Uiso   1.00
H674   H     0.03959   0.57970   0.12540   0.00000  Uiso   1.00
H675   H     0.78789   0.74025   0.97923   0.00000  Uiso   1.00
H676   H     0.66543   0.67637   0.97587   0.00000  Uiso   1.00
H677   H     0.79347   0.87829   0.97647   0.00000  Uiso   1.00
H678   H     0.90427   0.66656   0.97184   0.00000  Uiso   1.00
H679   H     0.53047   0.60490   0.99343   0.00000  Uiso   1.00
H680   H     0.80048   0.03066   0.99470   0.00000  Uiso   1.00
H681   H     0.03412   0.58418   0.98494   0.00000  Uiso   1.00
O682   O     0.45275   0.56057   0.06441   0.00000  Uiso   1.00
O683   O     0.80700   0.11914   0.06608   0.00000  Uiso   1.00
O684   O     0.11353   0.53337   0.05327   0.00000  Uiso   1.00
N685   N     0.55147   0.61024   0.10129   0.00000  Uiso   1.00
N686   N     0.80389   0.00829   0.10248   0.00000  Uiso   1.00
N687   N     0.02234   0.59089   0.09336   0.00000  Uiso   1.00
N688   N     0.54852   0.61264   0.02571   0.00000  Uiso   1.00
N689   N     0.80095   0.01070   0.02690   0.00000  Uiso   1.00
N690   N     0.01940   0.59329   0.01778   0.00000  Uiso   1.00
C691   C     0.29281   0.23622   0.60569   0.00000  Uiso   1.00
C692   C     0.22559   0.20208   0.58601   0.00000  Uiso   1.00
C693   C     0.17070   0.17204   0.61156   0.00000  Uiso   1.00
C694   C     0.11378   0.14356   0.58710   0.00000  Uiso   1.00
C695   C     0.00966   0.09034   0.56388   0.00000  Uiso   1.00
C696   C     0.29514   0.31179   0.58634   0.00000  Uiso   1.00
C697   C     0.29875   0.37399   0.61217   0.00000  Uiso   1.00
C698   C     0.30040   0.43786   0.58798   0.00000  Uiso   1.00
C699   C     0.30432   0.55497   0.56527   0.00000  Uiso   1.00
C700   C     0.35534   0.19674   0.58383   0.00000  Uiso   1.00
C701   C     0.40957   0.16223   0.60754   0.00000  Uiso   1.00
C702   C     0.46191   0.12925   0.58123   0.00000  Uiso   1.00
C703   C     0.55930   0.06773   0.55462   0.00000  Uiso   1.00
C704   C     0.28936   0.23905   0.51681   0.00000  Uiso   1.00
C705   C     0.22371   0.20362   0.53773   0.00000  Uiso   1.00
C706   C     0.16687   0.17517   0.51322   0.00000  Uiso   1.00
C707   C     0.11190   0.14509   0.53873   0.00000  Uiso   1.00
C708   C     0.29326   0.31333   0.53806   0.00000  Uiso   1.00
C709   C     0.29492   0.37712   0.51383   0.00000  Uiso   1.00
C710   C     0.29852   0.43940   0.53961   0.00000  Uiso   1.00
C711   C     0.35346   0.19828   0.53555   0.00000  Uiso   1.00
C712   C     0.40574   0.16536   0.50920   0.00000  Uiso   1.00
C713   C     0.46003   0.13080   0.53287   0.00000  Uiso   1.00
H714   H     0.29428   0.23502   0.64328   0.00000  Uiso   1.00
H715   H     0.17217   0.17086   0.64892   0.00000  Uiso   1.00
H716   H     0.30021   0.37278   0.64952   0.00000  Uiso   1.00
H717   H     0.41101   0.16105   0.64490   0.00000  Uiso   1.00
H718   H     0.03594   0.10043   0.63388   0.00000  Uiso   1.00
H719   H     0.30595   0.52618   0.63516   0.00000  Uiso   1.00
H720   H     0.53959   0.07970   0.62540   0.00000  Uiso   1.00
H721   H     0.28789   0.24025   0.47923   0.00000  Uiso   1.00
H722   H     0.16543   0.17637   0.47587   0.00000  Uiso   1.00
H723   H     0.29347   0.37829   0.47647   0.00000  Uiso   1.00
H724   H     0.40427   0.16656   0.47184   0.00000  Uiso   1.00
H725   H     0.03047   0.10490   0.49343   0.00000  Uiso   1.00
H726   H     0.30048   0.53066   0.49470   0.00000  Uiso   1.00
H727   H     0.53412   0.08418   0.48494   0.00000  Uiso   1.00
O728   O     0.95275   0.06057   0.56441   0.00000  Uiso   1.00
O729   O     0.30700   0.61914   0.56608   0.00000  Uiso   1.00
O730   O     0.61353   0.03337   0.55327   0.00000  Uiso   1.00
N731   N     0.05147   0.11024   0.60129   0.00000  Uiso   1.00
N732   N     0.30389   0.50829   0.60248   0.00000  Uiso   1.00
N733   N     0.52234   0.09089   0.59336   0.00000  Uiso   1.00
N734   N     0.04852   0.11264   0.52571   0.00000  Uiso   1.00
N735   N     0.30095   0.51070   0.52690   0.00000  Uiso   1.00
N736   N     0.51940   0.09329   0.51778   0.00000  Uiso   1.00
