data_job_05581
_audit_creation_date              2018-12-19
_audit_creation_method            'Materials Studio'
_symmetry_space_group_name_H-M    'P1'
_symmetry_Int_Tables_number       1
_symmetry_cell_setting            triclinic
loop_
_symmetry_equiv_pos_as_xyz
  x,y,z
_cell_length_a                    44.4712
_cell_length_b                    30.8336
_cell_length_c                    7.6262
_cell_angle_alpha                 90.0000
_cell_angle_beta                  90.0000
_cell_angle_gamma                 90.0000
loop_
_atom_site_label
_atom_site_type_symbol
_atom_site_fract_x
_atom_site_fract_y
_atom_site_fract_z
_atom_site_U_iso_or_equiv
_atom_site_adp_type
_atom_site_occupancy
C1     C     0.80206   0.38852   0.57464   0.00000  Uiso   1.00
C2     C     0.82968   0.40198   0.67990   0.00000  Uiso   1.00
C3     C     0.85562   0.42045   0.61170   0.00000  Uiso   1.00
C4     C     0.87837   0.43043   0.72968   0.00000  Uiso   1.00
C5     C     0.92173   0.45256   0.86578   0.00000  Uiso   1.00
C6     C     0.79701   0.34062   0.61483   0.00000  Uiso   1.00
C7     C     0.79549   0.30751   0.49190   0.00000  Uiso   1.00
C8     C     0.79074   0.26584   0.55512   0.00000  Uiso   1.00
C9     C     0.78337   0.19271   0.59018   0.00000  Uiso   1.00
C10    C     0.77555   0.41260   0.65590   0.00000  Uiso   1.00
C11    C     0.75596   0.44000   0.56751   0.00000  Uiso   1.00
C12    C     0.73313   0.45892   0.66530   0.00000  Uiso   1.00
C13    C     0.69243   0.49755   0.76413   0.00000  Uiso   1.00
C14    C     0.79632   0.37341   0.90547   0.00000  Uiso   1.00
C15    C     0.82656   0.39377   0.85959   0.00000  Uiso   1.00
C16    C     0.84927   0.40373   0.97772   0.00000  Uiso   1.00
C17    C     0.87524   0.42221   0.90970   0.00000  Uiso   1.00
C18    C     0.79390   0.33242   0.79451   0.00000  Uiso   1.00
C19    C     0.78914   0.29079   0.85793   0.00000  Uiso   1.00
C20    C     0.78761   0.25761   0.73514   0.00000  Uiso   1.00
C21    C     0.77243   0.40440   0.83560   0.00000  Uiso   1.00
C22    C     0.74962   0.42328   0.93354   0.00000  Uiso   1.00
C23    C     0.73001   0.45070   0.84532   0.00000  Uiso   1.00
H24    H     0.80448   0.39491   0.43474   0.00000  Uiso   1.00
H25    H     0.85802   0.42679   0.47262   0.00000  Uiso   1.00
H26    H     0.79790   0.31387   0.35285   0.00000  Uiso   1.00
H27    H     0.75838   0.44634   0.42845   0.00000  Uiso   1.00
H28    H     0.91602   0.45851   0.59386   0.00000  Uiso   1.00
H29    H     0.78923   0.22040   0.34131   0.00000  Uiso   1.00
H30    H     0.70590   0.49974   0.50072   0.00000  Uiso   1.00
H31    H     0.79389   0.36702   0.04537   0.00000  Uiso   1.00
H32    H     0.84685   0.39738   0.11677   0.00000  Uiso   1.00
H33    H     0.78673   0.28445   0.99699   0.00000  Uiso   1.00
H34    H     0.74721   0.41692   0.07259   0.00000  Uiso   1.00
H35    H     0.90695   0.43463   0.11667   0.00000  Uiso   1.00
H36    H     0.78016   0.19652   0.86412   0.00000  Uiso   1.00
H37    H     0.69683   0.47586   0.02354   0.00000  Uiso   1.00
O38    O     0.94652   0.46703   0.89121   0.00000  Uiso   1.00
O39    O     0.78018   0.15464   0.55987   0.00000  Uiso   1.00
O40    O     0.67085   0.52113   0.76901   0.00000  Uiso   1.00
N41    N     0.90661   0.44873   0.70711   0.00000  Uiso   1.00
N42    N     0.78808   0.22611   0.47099   0.00000  Uiso   1.00
N43    N     0.71017   0.48726   0.62002   0.00000  Uiso   1.00
N44    N     0.90173   0.43588   0.98843   0.00000  Uiso   1.00
N45    N     0.78320   0.21326   0.75232   0.00000  Uiso   1.00
N46    N     0.70529   0.47441   0.90134   0.00000  Uiso   1.00
C47    C     0.80206   0.88852   0.07464   0.00000  Uiso   1.00
C48    C     0.82968   0.90198   0.17990   0.00000  Uiso   1.00
C49    C     0.85562   0.92045   0.11170   0.00000  Uiso   1.00
C50    C     0.87837   0.93043   0.22968   0.00000  Uiso   1.00
C51    C     0.92173   0.95256   0.36578   0.00000  Uiso   1.00
C52    C     0.79701   0.84062   0.11483   0.00000  Uiso   1.00
C53    C     0.79549   0.80751   0.99190   0.00000  Uiso   1.00
C54    C     0.79074   0.76584   0.05512   0.00000  Uiso   1.00
C55    C     0.78337   0.69271   0.09018   0.00000  Uiso   1.00
C56    C     0.77555   0.91260   0.15590   0.00000  Uiso   1.00
C57    C     0.75596   0.94000   0.06751   0.00000  Uiso   1.00
C58    C     0.73313   0.95892   0.16530   0.00000  Uiso   1.00
C59    C     0.69243   0.99755   0.26413   0.00000  Uiso   1.00
C60    C     0.79632   0.87341   0.40547   0.00000  Uiso   1.00
C61    C     0.82656   0.89377   0.35959   0.00000  Uiso   1.00
C62    C     0.84927   0.90373   0.47772   0.00000  Uiso   1.00
C63    C     0.87524   0.92221   0.40970   0.00000  Uiso   1.00
C64    C     0.79390   0.83242   0.29451   0.00000  Uiso   1.00
C65    C     0.78914   0.79079   0.35793   0.00000  Uiso   1.00
C66    C     0.78761   0.75761   0.23514   0.00000  Uiso   1.00
C67    C     0.77243   0.90440   0.33560   0.00000  Uiso   1.00
C68    C     0.74962   0.92328   0.43354   0.00000  Uiso   1.00
C69    C     0.73001   0.95070   0.34532   0.00000  Uiso   1.00
H70    H     0.80448   0.89491   0.93474   0.00000  Uiso   1.00
H71    H     0.85802   0.92679   0.97262   0.00000  Uiso   1.00
H72    H     0.79790   0.81387   0.85285   0.00000  Uiso   1.00
H73    H     0.75838   0.94634   0.92845   0.00000  Uiso   1.00
H74    H     0.91602   0.95851   0.09386   0.00000  Uiso   1.00
H75    H     0.78923   0.72040   0.84131   0.00000  Uiso   1.00
H76    H     0.70590   0.99974   0.00072   0.00000  Uiso   1.00
H77    H     0.79389   0.86702   0.54537   0.00000  Uiso   1.00
H78    H     0.84685   0.89738   0.61677   0.00000  Uiso   1.00
H79    H     0.78673   0.78445   0.49699   0.00000  Uiso   1.00
H80    H     0.74721   0.91692   0.57259   0.00000  Uiso   1.00
H81    H     0.90695   0.93463   0.61667   0.00000  Uiso   1.00
H82    H     0.78016   0.69652   0.36412   0.00000  Uiso   1.00
H83    H     0.69683   0.97586   0.52354   0.00000  Uiso   1.00
O84    O     0.94652   0.96703   0.39121   0.00000  Uiso   1.00
O85    O     0.78018   0.65464   0.05987   0.00000  Uiso   1.00
O86    O     0.67085   0.02113   0.26901   0.00000  Uiso   1.00
N87    N     0.90661   0.94873   0.20711   0.00000  Uiso   1.00
N88    N     0.78808   0.72611   0.97099   0.00000  Uiso   1.00
N89    N     0.71017   0.98726   0.12002   0.00000  Uiso   1.00
N90    N     0.90173   0.93588   0.48843   0.00000  Uiso   1.00
N91    N     0.78320   0.71326   0.25232   0.00000  Uiso   1.00
N92    N     0.70529   0.97441   0.40134   0.00000  Uiso   1.00
C93    C     0.30206   0.38852   0.07464   0.00000  Uiso   1.00
C94    C     0.32968   0.40198   0.17990   0.00000  Uiso   1.00
C95    C     0.35562   0.42045   0.11170   0.00000  Uiso   1.00
C96    C     0.37837   0.43043   0.22968   0.00000  Uiso   1.00
C97    C     0.42173   0.45256   0.36578   0.00000  Uiso   1.00
C98    C     0.29701   0.34062   0.11483   0.00000  Uiso   1.00
C99    C     0.29549   0.30751   0.99190   0.00000  Uiso   1.00
C100   C     0.29074   0.26584   0.05512   0.00000  Uiso   1.00
C101   C     0.28337   0.19271   0.09018   0.00000  Uiso   1.00
C102   C     0.27555   0.41260   0.15590   0.00000  Uiso   1.00
C103   C     0.25596   0.44000   0.06751   0.00000  Uiso   1.00
C104   C     0.23313   0.45892   0.16530   0.00000  Uiso   1.00
C105   C     0.19243   0.49755   0.26413   0.00000  Uiso   1.00
C106   C     0.29632   0.37341   0.40547   0.00000  Uiso   1.00
C107   C     0.32656   0.39377   0.35959   0.00000  Uiso   1.00
C108   C     0.34927   0.40373   0.47772   0.00000  Uiso   1.00
C109   C     0.37524   0.42221   0.40970   0.00000  Uiso   1.00
C110   C     0.29390   0.33242   0.29451   0.00000  Uiso   1.00
C111   C     0.28914   0.29079   0.35793   0.00000  Uiso   1.00
C112   C     0.28761   0.25761   0.23514   0.00000  Uiso   1.00
C113   C     0.27243   0.40440   0.33560   0.00000  Uiso   1.00
C114   C     0.24962   0.42328   0.43354   0.00000  Uiso   1.00
C115   C     0.23001   0.45070   0.34532   0.00000  Uiso   1.00
H116   H     0.30448   0.39491   0.93474   0.00000  Uiso   1.00
H117   H     0.35802   0.42679   0.97262   0.00000  Uiso   1.00
H118   H     0.29790   0.31387   0.85285   0.00000  Uiso   1.00
H119   H     0.25838   0.44634   0.92845   0.00000  Uiso   1.00
H120   H     0.41602   0.45851   0.09386   0.00000  Uiso   1.00
H121   H     0.28923   0.22040   0.84131   0.00000  Uiso   1.00
H122   H     0.20590   0.49974   0.00072   0.00000  Uiso   1.00
H123   H     0.29389   0.36702   0.54537   0.00000  Uiso   1.00
H124   H     0.34685   0.39738   0.61677   0.00000  Uiso   1.00
H125   H     0.28673   0.28445   0.49699   0.00000  Uiso   1.00
H126   H     0.24721   0.41692   0.57259   0.00000  Uiso   1.00
H127   H     0.40695   0.43463   0.61667   0.00000  Uiso   1.00
H128   H     0.28016   0.19652   0.36412   0.00000  Uiso   1.00
H129   H     0.19683   0.47586   0.52354   0.00000  Uiso   1.00
O130   O     0.44652   0.46703   0.39121   0.00000  Uiso   1.00
O131   O     0.28018   0.15464   0.05987   0.00000  Uiso   1.00
O132   O     0.17085   0.52113   0.26901   0.00000  Uiso   1.00
N133   N     0.40661   0.44873   0.20711   0.00000  Uiso   1.00
N134   N     0.28808   0.22611   0.97099   0.00000  Uiso   1.00
N135   N     0.21017   0.48726   0.12002   0.00000  Uiso   1.00
N136   N     0.40173   0.43588   0.48843   0.00000  Uiso   1.00
N137   N     0.28320   0.21326   0.25232   0.00000  Uiso   1.00
N138   N     0.20529   0.47441   0.40134   0.00000  Uiso   1.00
C139   C     0.30206   0.88852   0.57464   0.00000  Uiso   1.00
C140   C     0.32968   0.90198   0.67990   0.00000  Uiso   1.00
C141   C     0.35562   0.92045   0.61170   0.00000  Uiso   1.00
C142   C     0.37837   0.93043   0.72968   0.00000  Uiso   1.00
C143   C     0.42173   0.95256   0.86578   0.00000  Uiso   1.00
C144   C     0.29701   0.84062   0.61483   0.00000  Uiso   1.00
C145   C     0.29549   0.80751   0.49190   0.00000  Uiso   1.00
C146   C     0.29074   0.76584   0.55512   0.00000  Uiso   1.00
C147   C     0.28337   0.69271   0.59018   0.00000  Uiso   1.00
C148   C     0.27555   0.91260   0.65590   0.00000  Uiso   1.00
C149   C     0.25596   0.94000   0.56751   0.00000  Uiso   1.00
C150   C     0.23313   0.95892   0.66530   0.00000  Uiso   1.00
C151   C     0.19243   0.99755   0.76413   0.00000  Uiso   1.00
C152   C     0.29632   0.87341   0.90547   0.00000  Uiso   1.00
C153   C     0.32656   0.89377   0.85959   0.00000  Uiso   1.00
C154   C     0.34927   0.90373   0.97772   0.00000  Uiso   1.00
C155   C     0.37524   0.92221   0.90970   0.00000  Uiso   1.00
C156   C     0.29390   0.83242   0.79451   0.00000  Uiso   1.00
C157   C     0.28914   0.79079   0.85793   0.00000  Uiso   1.00
C158   C     0.28761   0.75761   0.73514   0.00000  Uiso   1.00
C159   C     0.27243   0.90440   0.83560   0.00000  Uiso   1.00
C160   C     0.24962   0.92328   0.93354   0.00000  Uiso   1.00
C161   C     0.23001   0.95070   0.84532   0.00000  Uiso   1.00
H162   H     0.30448   0.89491   0.43474   0.00000  Uiso   1.00
H163   H     0.35802   0.92679   0.47262   0.00000  Uiso   1.00
H164   H     0.29790   0.81387   0.35285   0.00000  Uiso   1.00
H165   H     0.25838   0.94634   0.42845   0.00000  Uiso   1.00
H166   H     0.41602   0.95851   0.59386   0.00000  Uiso   1.00
H167   H     0.28923   0.72040   0.34131   0.00000  Uiso   1.00
H168   H     0.20590   0.99974   0.50072   0.00000  Uiso   1.00
H169   H     0.29389   0.86702   0.04537   0.00000  Uiso   1.00
H170   H     0.34685   0.89738   0.11677   0.00000  Uiso   1.00
H171   H     0.28673   0.78445   0.99699   0.00000  Uiso   1.00
H172   H     0.24721   0.91692   0.07259   0.00000  Uiso   1.00
H173   H     0.40695   0.93463   0.11667   0.00000  Uiso   1.00
H174   H     0.28016   0.69652   0.86412   0.00000  Uiso   1.00
H175   H     0.19683   0.97586   0.02354   0.00000  Uiso   1.00
O176   O     0.44652   0.96703   0.89121   0.00000  Uiso   1.00
O177   O     0.28018   0.65464   0.55987   0.00000  Uiso   1.00
O178   O     0.17085   0.02113   0.76901   0.00000  Uiso   1.00
N179   N     0.40661   0.94873   0.70711   0.00000  Uiso   1.00
N180   N     0.28808   0.72611   0.47099   0.00000  Uiso   1.00
N181   N     0.21017   0.98726   0.62002   0.00000  Uiso   1.00
N182   N     0.40173   0.93588   0.98843   0.00000  Uiso   1.00
N183   N     0.28320   0.71326   0.75232   0.00000  Uiso   1.00
N184   N     0.20529   0.97441   0.90134   0.00000  Uiso   1.00
C185   C     0.19794   0.61148   0.57464   0.00000  Uiso   1.00
C186   C     0.17032   0.59802   0.67990   0.00000  Uiso   1.00
C187   C     0.14438   0.57955   0.61170   0.00000  Uiso   1.00
C188   C     0.12163   0.56957   0.72968   0.00000  Uiso   1.00
C189   C     0.07827   0.54744   0.86578   0.00000  Uiso   1.00
C190   C     0.20299   0.65938   0.61483   0.00000  Uiso   1.00
C191   C     0.20451   0.69249   0.49190   0.00000  Uiso   1.00
C192   C     0.20926   0.73416   0.55512   0.00000  Uiso   1.00
C193   C     0.21663   0.80729   0.59018   0.00000  Uiso   1.00
C194   C     0.22445   0.58740   0.65590   0.00000  Uiso   1.00
C195   C     0.24404   0.56000   0.56751   0.00000  Uiso   1.00
C196   C     0.26687   0.54108   0.66530   0.00000  Uiso   1.00
C197   C     0.30757   0.50245   0.76413   0.00000  Uiso   1.00
C198   C     0.20368   0.62659   0.90547   0.00000  Uiso   1.00
C199   C     0.17344   0.60623   0.85959   0.00000  Uiso   1.00
C200   C     0.15073   0.59627   0.97772   0.00000  Uiso   1.00
C201   C     0.12476   0.57779   0.90970   0.00000  Uiso   1.00
C202   C     0.20610   0.66758   0.79451   0.00000  Uiso   1.00
C203   C     0.21086   0.70921   0.85793   0.00000  Uiso   1.00
C204   C     0.21239   0.74239   0.73514   0.00000  Uiso   1.00
C205   C     0.22757   0.59560   0.83560   0.00000  Uiso   1.00
C206   C     0.25038   0.57672   0.93354   0.00000  Uiso   1.00
C207   C     0.26999   0.54930   0.84532   0.00000  Uiso   1.00
H208   H     0.19552   0.60509   0.43474   0.00000  Uiso   1.00
H209   H     0.14198   0.57321   0.47262   0.00000  Uiso   1.00
H210   H     0.20210   0.68613   0.35285   0.00000  Uiso   1.00
H211   H     0.24162   0.55366   0.42845   0.00000  Uiso   1.00
H212   H     0.08398   0.54149   0.59386   0.00000  Uiso   1.00
H213   H     0.21077   0.77960   0.34131   0.00000  Uiso   1.00
H214   H     0.29410   0.50026   0.50072   0.00000  Uiso   1.00
H215   H     0.20611   0.63298   0.04537   0.00000  Uiso   1.00
H216   H     0.15315   0.60262   0.11677   0.00000  Uiso   1.00
H217   H     0.21327   0.71555   0.99699   0.00000  Uiso   1.00
H218   H     0.25279   0.58308   0.07259   0.00000  Uiso   1.00
H219   H     0.09305   0.56537   0.11667   0.00000  Uiso   1.00
H220   H     0.21984   0.80348   0.86412   0.00000  Uiso   1.00
H221   H     0.30317   0.52414   0.02354   0.00000  Uiso   1.00
O222   O     0.05348   0.53297   0.89121   0.00000  Uiso   1.00
O223   O     0.21982   0.84536   0.55987   0.00000  Uiso   1.00
O224   O     0.32915   0.47887   0.76901   0.00000  Uiso   1.00
N225   N     0.09339   0.55127   0.70711   0.00000  Uiso   1.00
N226   N     0.21192   0.77389   0.47099   0.00000  Uiso   1.00
N227   N     0.28983   0.51274   0.62002   0.00000  Uiso   1.00
N228   N     0.09827   0.56412   0.98843   0.00000  Uiso   1.00
N229   N     0.21680   0.78674   0.75232   0.00000  Uiso   1.00
N230   N     0.29471   0.52559   0.90134   0.00000  Uiso   1.00
C231   C     0.19794   0.11148   0.07464   0.00000  Uiso   1.00
C232   C     0.17032   0.09802   0.17990   0.00000  Uiso   1.00
C233   C     0.14438   0.07955   0.11170   0.00000  Uiso   1.00
C234   C     0.12163   0.06957   0.22968   0.00000  Uiso   1.00
C235   C     0.07827   0.04744   0.36578   0.00000  Uiso   1.00
C236   C     0.20299   0.15938   0.11483   0.00000  Uiso   1.00
C237   C     0.20451   0.19249   0.99190   0.00000  Uiso   1.00
C238   C     0.20926   0.23416   0.05512   0.00000  Uiso   1.00
C239   C     0.21663   0.30729   0.09018   0.00000  Uiso   1.00
C240   C     0.22445   0.08740   0.15590   0.00000  Uiso   1.00
C241   C     0.24404   0.06000   0.06751   0.00000  Uiso   1.00
C242   C     0.26687   0.04108   0.16530   0.00000  Uiso   1.00
C243   C     0.30757   0.00245   0.26413   0.00000  Uiso   1.00
C244   C     0.20368   0.12659   0.40547   0.00000  Uiso   1.00
C245   C     0.17344   0.10623   0.35959   0.00000  Uiso   1.00
C246   C     0.15073   0.09627   0.47772   0.00000  Uiso   1.00
C247   C     0.12476   0.07779   0.40970   0.00000  Uiso   1.00
C248   C     0.20610   0.16758   0.29451   0.00000  Uiso   1.00
C249   C     0.21086   0.20921   0.35793   0.00000  Uiso   1.00
C250   C     0.21239   0.24239   0.23514   0.00000  Uiso   1.00
C251   C     0.22757   0.09560   0.33560   0.00000  Uiso   1.00
C252   C     0.25038   0.07672   0.43354   0.00000  Uiso   1.00
C253   C     0.26999   0.04930   0.34532   0.00000  Uiso   1.00
H254   H     0.19552   0.10509   0.93474   0.00000  Uiso   1.00
H255   H     0.14198   0.07321   0.97262   0.00000  Uiso   1.00
H256   H     0.20210   0.18613   0.85285   0.00000  Uiso   1.00
H257   H     0.24162   0.05366   0.92845   0.00000  Uiso   1.00
H258   H     0.08398   0.04149   0.09386   0.00000  Uiso   1.00
H259   H     0.21077   0.27960   0.84131   0.00000  Uiso   1.00
H260   H     0.29410   0.00026   0.00072   0.00000  Uiso   1.00
H261   H     0.20611   0.13298   0.54537   0.00000  Uiso   1.00
H262   H     0.15315   0.10262   0.61677   0.00000  Uiso   1.00
H263   H     0.21327   0.21555   0.49699   0.00000  Uiso   1.00
H264   H     0.25279   0.08308   0.57259   0.00000  Uiso   1.00
H265   H     0.09305   0.06537   0.61667   0.00000  Uiso   1.00
H266   H     0.21984   0.30348   0.36412   0.00000  Uiso   1.00
H267   H     0.30317   0.02414   0.52354   0.00000  Uiso   1.00
O268   O     0.05348   0.03297   0.39121   0.00000  Uiso   1.00
O269   O     0.21982   0.34536   0.05987   0.00000  Uiso   1.00
O270   O     0.32915   0.97887   0.26901   0.00000  Uiso   1.00
N271   N     0.09339   0.05127   0.20711   0.00000  Uiso   1.00
N272   N     0.21192   0.27389   0.97099   0.00000  Uiso   1.00
N273   N     0.28983   0.01274   0.12002   0.00000  Uiso   1.00
N274   N     0.09827   0.06412   0.48843   0.00000  Uiso   1.00
N275   N     0.21680   0.28674   0.25232   0.00000  Uiso   1.00
N276   N     0.29471   0.02559   0.40134   0.00000  Uiso   1.00
C277   C     0.69794   0.61148   0.07464   0.00000  Uiso   1.00
C278   C     0.67032   0.59802   0.17990   0.00000  Uiso   1.00
C279   C     0.64438   0.57955   0.11170   0.00000  Uiso   1.00
C280   C     0.62163   0.56957   0.22968   0.00000  Uiso   1.00
C281   C     0.57827   0.54744   0.36578   0.00000  Uiso   1.00
C282   C     0.70299   0.65938   0.11483   0.00000  Uiso   1.00
C283   C     0.70451   0.69249   0.99190   0.00000  Uiso   1.00
C284   C     0.70926   0.73416   0.05512   0.00000  Uiso   1.00
C285   C     0.71663   0.80729   0.09018   0.00000  Uiso   1.00
C286   C     0.72445   0.58740   0.15590   0.00000  Uiso   1.00
C287   C     0.74404   0.56000   0.06751   0.00000  Uiso   1.00
C288   C     0.76687   0.54108   0.16530   0.00000  Uiso   1.00
C289   C     0.80757   0.50245   0.26413   0.00000  Uiso   1.00
C290   C     0.70368   0.62659   0.40547   0.00000  Uiso   1.00
C291   C     0.67344   0.60623   0.35959   0.00000  Uiso   1.00
C292   C     0.65073   0.59627   0.47772   0.00000  Uiso   1.00
C293   C     0.62476   0.57779   0.40970   0.00000  Uiso   1.00
C294   C     0.70610   0.66758   0.29451   0.00000  Uiso   1.00
C295   C     0.71086   0.70921   0.35793   0.00000  Uiso   1.00
C296   C     0.71239   0.74239   0.23514   0.00000  Uiso   1.00
C297   C     0.72757   0.59560   0.33560   0.00000  Uiso   1.00
C298   C     0.75038   0.57672   0.43354   0.00000  Uiso   1.00
C299   C     0.76999   0.54930   0.34532   0.00000  Uiso   1.00
H300   H     0.69552   0.60509   0.93474   0.00000  Uiso   1.00
H301   H     0.64198   0.57321   0.97262   0.00000  Uiso   1.00
H302   H     0.70210   0.68613   0.85285   0.00000  Uiso   1.00
H303   H     0.74162   0.55366   0.92845   0.00000  Uiso   1.00
H304   H     0.58398   0.54149   0.09386   0.00000  Uiso   1.00
H305   H     0.71077   0.77960   0.84131   0.00000  Uiso   1.00
H306   H     0.79410   0.50026   0.00072   0.00000  Uiso   1.00
H307   H     0.70611   0.63298   0.54537   0.00000  Uiso   1.00
H308   H     0.65315   0.60262   0.61677   0.00000  Uiso   1.00
H309   H     0.71327   0.71555   0.49699   0.00000  Uiso   1.00
H310   H     0.75279   0.58308   0.57259   0.00000  Uiso   1.00
H311   H     0.59305   0.56537   0.61667   0.00000  Uiso   1.00
H312   H     0.71984   0.80348   0.36412   0.00000  Uiso   1.00
H313   H     0.80317   0.52414   0.52354   0.00000  Uiso   1.00
O314   O     0.55348   0.53297   0.39121   0.00000  Uiso   1.00
O315   O     0.71982   0.84536   0.05987   0.00000  Uiso   1.00
O316   O     0.82915   0.47887   0.26901   0.00000  Uiso   1.00
N317   N     0.59339   0.55127   0.20711   0.00000  Uiso   1.00
N318   N     0.71192   0.77389   0.97099   0.00000  Uiso   1.00
N319   N     0.78983   0.51274   0.12002   0.00000  Uiso   1.00
N320   N     0.59827   0.56412   0.48843   0.00000  Uiso   1.00
N321   N     0.71680   0.78674   0.25232   0.00000  Uiso   1.00
N322   N     0.79471   0.52559   0.40134   0.00000  Uiso   1.00
C323   C     0.69794   0.11148   0.57464   0.00000  Uiso   1.00
C324   C     0.67032   0.09802   0.67990   0.00000  Uiso   1.00
C325   C     0.64438   0.07955   0.61170   0.00000  Uiso   1.00
C326   C     0.62163   0.06957   0.72968   0.00000  Uiso   1.00
C327   C     0.57827   0.04744   0.86578   0.00000  Uiso   1.00
C328   C     0.70299   0.15938   0.61483   0.00000  Uiso   1.00
C329   C     0.70451   0.19249   0.49190   0.00000  Uiso   1.00
C330   C     0.70926   0.23416   0.55512   0.00000  Uiso   1.00
C331   C     0.71663   0.30729   0.59018   0.00000  Uiso   1.00
C332   C     0.72445   0.08740   0.65590   0.00000  Uiso   1.00
C333   C     0.74404   0.06000   0.56751   0.00000  Uiso   1.00
C334   C     0.76687   0.04108   0.66530   0.00000  Uiso   1.00
C335   C     0.80757   0.00245   0.76413   0.00000  Uiso   1.00
C336   C     0.70368   0.12659   0.90547   0.00000  Uiso   1.00
C337   C     0.67344   0.10623   0.85959   0.00000  Uiso   1.00
C338   C     0.65073   0.09627   0.97772   0.00000  Uiso   1.00
C339   C     0.62476   0.07779   0.90970   0.00000  Uiso   1.00
C340   C     0.70610   0.16758   0.79451   0.00000  Uiso   1.00
C341   C     0.71086   0.20921   0.85793   0.00000  Uiso   1.00
C342   C     0.71239   0.24239   0.73514   0.00000  Uiso   1.00
C343   C     0.72757   0.09560   0.83560   0.00000  Uiso   1.00
C344   C     0.75038   0.07672   0.93354   0.00000  Uiso   1.00
C345   C     0.76999   0.04930   0.84532   0.00000  Uiso   1.00
H346   H     0.69552   0.10509   0.43474   0.00000  Uiso   1.00
H347   H     0.64198   0.07321   0.47262   0.00000  Uiso   1.00
H348   H     0.70210   0.18613   0.35285   0.00000  Uiso   1.00
H349   H     0.74162   0.05366   0.42845   0.00000  Uiso   1.00
H350   H     0.58398   0.04149   0.59386   0.00000  Uiso   1.00
H351   H     0.71077   0.27960   0.34131   0.00000  Uiso   1.00
H352   H     0.79410   0.00026   0.50072   0.00000  Uiso   1.00
H353   H     0.70611   0.13298   0.04537   0.00000  Uiso   1.00
H354   H     0.65315   0.10262   0.11677   0.00000  Uiso   1.00
H355   H     0.71327   0.21555   0.99699   0.00000  Uiso   1.00
H356   H     0.75279   0.08308   0.07259   0.00000  Uiso   1.00
H357   H     0.59305   0.06537   0.11667   0.00000  Uiso   1.00
H358   H     0.71984   0.30348   0.86412   0.00000  Uiso   1.00
H359   H     0.80317   0.02414   0.02354   0.00000  Uiso   1.00
O360   O     0.55348   0.03297   0.89121   0.00000  Uiso   1.00
O361   O     0.71982   0.34536   0.55987   0.00000  Uiso   1.00
O362   O     0.82915   0.97887   0.76901   0.00000  Uiso   1.00
N363   N     0.59339   0.05127   0.70711   0.00000  Uiso   1.00
N364   N     0.71192   0.27389   0.47099   0.00000  Uiso   1.00
N365   N     0.78983   0.01274   0.62002   0.00000  Uiso   1.00
N366   N     0.59827   0.06412   0.98843   0.00000  Uiso   1.00
N367   N     0.71680   0.28674   0.75232   0.00000  Uiso   1.00
N368   N     0.79471   0.02559   0.90134   0.00000  Uiso   1.00
C369   C     0.05206   0.86148   0.82464   0.00000  Uiso   1.00
C370   C     0.07968   0.84802   0.92990   0.00000  Uiso   1.00
C371   C     0.10562   0.82955   0.86170   0.00000  Uiso   1.00
C372   C     0.12837   0.81957   0.97968   0.00000  Uiso   1.00
C373   C     0.17173   0.79744   0.11578   0.00000  Uiso   1.00
C374   C     0.04701   0.90938   0.86483   0.00000  Uiso   1.00
C375   C     0.04549   0.94249   0.74190   0.00000  Uiso   1.00
C376   C     0.04074   0.98416   0.80512   0.00000  Uiso   1.00
C377   C     0.03337   0.05729   0.84018   0.00000  Uiso   1.00
C378   C     0.02555   0.83740   0.90590   0.00000  Uiso   1.00
C379   C     0.00596   0.81000   0.81751   0.00000  Uiso   1.00
C380   C     0.98313   0.79108   0.91530   0.00000  Uiso   1.00
C381   C     0.94243   0.75245   0.01413   0.00000  Uiso   1.00
C382   C     0.04632   0.87659   0.15547   0.00000  Uiso   1.00
C383   C     0.07656   0.85623   0.10959   0.00000  Uiso   1.00
C384   C     0.09927   0.84627   0.22772   0.00000  Uiso   1.00
C385   C     0.12524   0.82779   0.15970   0.00000  Uiso   1.00
C386   C     0.04390   0.91758   0.04451   0.00000  Uiso   1.00
C387   C     0.03914   0.95921   0.10793   0.00000  Uiso   1.00
C388   C     0.03761   0.99239   0.98514   0.00000  Uiso   1.00
C389   C     0.02243   0.84560   0.08560   0.00000  Uiso   1.00
C390   C     0.99962   0.82672   0.18354   0.00000  Uiso   1.00
C391   C     0.98001   0.79930   0.09532   0.00000  Uiso   1.00
H392   H     0.05448   0.85509   0.68474   0.00000  Uiso   1.00
H393   H     0.10802   0.82321   0.72262   0.00000  Uiso   1.00
H394   H     0.04790   0.93613   0.60285   0.00000  Uiso   1.00
H395   H     0.00838   0.80366   0.67845   0.00000  Uiso   1.00
H396   H     0.16602   0.79149   0.84386   0.00000  Uiso   1.00
H397   H     0.03923   0.02960   0.59131   0.00000  Uiso   1.00
H398   H     0.95590   0.75026   0.75072   0.00000  Uiso   1.00
H399   H     0.04389   0.88298   0.29537   0.00000  Uiso   1.00
H400   H     0.09685   0.85262   0.36677   0.00000  Uiso   1.00
H401   H     0.03673   0.96555   0.24699   0.00000  Uiso   1.00
H402   H     0.99721   0.83308   0.32259   0.00000  Uiso   1.00
H403   H     0.15695   0.81537   0.36667   0.00000  Uiso   1.00
H404   H     0.03016   0.05348   0.11412   0.00000  Uiso   1.00
H405   H     0.94683   0.77414   0.27354   0.00000  Uiso   1.00
O406   O     0.19652   0.78297   0.14121   0.00000  Uiso   1.00
O407   O     0.03018   0.09536   0.80987   0.00000  Uiso   1.00
O408   O     0.92085   0.72887   0.01901   0.00000  Uiso   1.00
N409   N     0.15661   0.80127   0.95711   0.00000  Uiso   1.00
N410   N     0.03808   0.02389   0.72099   0.00000  Uiso   1.00
N411   N     0.96017   0.76274   0.87002   0.00000  Uiso   1.00
N412   N     0.15173   0.81412   0.23843   0.00000  Uiso   1.00
N413   N     0.03320   0.03674   0.00232   0.00000  Uiso   1.00
N414   N     0.95529   0.77559   0.15134   0.00000  Uiso   1.00
C415   C     0.05206   0.36148   0.32464   0.00000  Uiso   1.00
C416   C     0.07968   0.34802   0.42990   0.00000  Uiso   1.00
C417   C     0.10562   0.32955   0.36170   0.00000  Uiso   1.00
C418   C     0.12837   0.31957   0.47968   0.00000  Uiso   1.00
C419   C     0.17173   0.29744   0.61578   0.00000  Uiso   1.00
C420   C     0.04701   0.40938   0.36483   0.00000  Uiso   1.00
C421   C     0.04549   0.44249   0.24190   0.00000  Uiso   1.00
C422   C     0.04074   0.48416   0.30512   0.00000  Uiso   1.00
C423   C     0.03337   0.55729   0.34018   0.00000  Uiso   1.00
C424   C     0.02555   0.33740   0.40590   0.00000  Uiso   1.00
C425   C     0.00596   0.31000   0.31751   0.00000  Uiso   1.00
C426   C     0.98313   0.29108   0.41530   0.00000  Uiso   1.00
C427   C     0.94243   0.25245   0.51413   0.00000  Uiso   1.00
C428   C     0.04632   0.37659   0.65547   0.00000  Uiso   1.00
C429   C     0.07656   0.35623   0.60959   0.00000  Uiso   1.00
C430   C     0.09927   0.34627   0.72772   0.00000  Uiso   1.00
C431   C     0.12524   0.32779   0.65970   0.00000  Uiso   1.00
C432   C     0.04390   0.41758   0.54451   0.00000  Uiso   1.00
C433   C     0.03914   0.45921   0.60793   0.00000  Uiso   1.00
C434   C     0.03761   0.49239   0.48514   0.00000  Uiso   1.00
C435   C     0.02243   0.34560   0.58560   0.00000  Uiso   1.00
C436   C     0.99962   0.32672   0.68354   0.00000  Uiso   1.00
C437   C     0.98001   0.29930   0.59532   0.00000  Uiso   1.00
H438   H     0.05448   0.35509   0.18474   0.00000  Uiso   1.00
H439   H     0.10802   0.32321   0.22262   0.00000  Uiso   1.00
H440   H     0.04790   0.43613   0.10285   0.00000  Uiso   1.00
H441   H     0.00838   0.30366   0.17845   0.00000  Uiso   1.00
H442   H     0.16602   0.29149   0.34386   0.00000  Uiso   1.00
H443   H     0.03923   0.52960   0.09131   0.00000  Uiso   1.00
H444   H     0.95590   0.25026   0.25072   0.00000  Uiso   1.00
H445   H     0.04389   0.38298   0.79537   0.00000  Uiso   1.00
H446   H     0.09685   0.35262   0.86677   0.00000  Uiso   1.00
H447   H     0.03673   0.46555   0.74699   0.00000  Uiso   1.00
H448   H     0.99721   0.33308   0.82259   0.00000  Uiso   1.00
H449   H     0.15695   0.31537   0.86667   0.00000  Uiso   1.00
H450   H     0.03016   0.55348   0.61412   0.00000  Uiso   1.00
H451   H     0.94683   0.27414   0.77354   0.00000  Uiso   1.00
O452   O     0.19652   0.28297   0.64121   0.00000  Uiso   1.00
O453   O     0.03018   0.59536   0.30987   0.00000  Uiso   1.00
O454   O     0.92085   0.22887   0.51901   0.00000  Uiso   1.00
N455   N     0.15661   0.30127   0.45711   0.00000  Uiso   1.00
N456   N     0.03808   0.52389   0.22099   0.00000  Uiso   1.00
N457   N     0.96017   0.26274   0.37002   0.00000  Uiso   1.00
N458   N     0.15173   0.31412   0.73843   0.00000  Uiso   1.00
N459   N     0.03320   0.53674   0.50232   0.00000  Uiso   1.00
N460   N     0.95529   0.27559   0.65134   0.00000  Uiso   1.00
C461   C     0.55206   0.86148   0.32464   0.00000  Uiso   1.00
C462   C     0.57968   0.84802   0.42990   0.00000  Uiso   1.00
C463   C     0.60562   0.82955   0.36170   0.00000  Uiso   1.00
C464   C     0.62837   0.81957   0.47968   0.00000  Uiso   1.00
C465   C     0.67173   0.79744   0.61578   0.00000  Uiso   1.00
C466   C     0.54701   0.90938   0.36483   0.00000  Uiso   1.00
C467   C     0.54549   0.94249   0.24190   0.00000  Uiso   1.00
C468   C     0.54074   0.98416   0.30512   0.00000  Uiso   1.00
C469   C     0.53337   0.05729   0.34018   0.00000  Uiso   1.00
C470   C     0.52555   0.83740   0.40590   0.00000  Uiso   1.00
C471   C     0.50596   0.81000   0.31751   0.00000  Uiso   1.00
C472   C     0.48313   0.79108   0.41530   0.00000  Uiso   1.00
C473   C     0.44243   0.75245   0.51413   0.00000  Uiso   1.00
C474   C     0.54632   0.87659   0.65547   0.00000  Uiso   1.00
C475   C     0.57656   0.85623   0.60959   0.00000  Uiso   1.00
C476   C     0.59927   0.84627   0.72772   0.00000  Uiso   1.00
C477   C     0.62524   0.82779   0.65970   0.00000  Uiso   1.00
C478   C     0.54390   0.91758   0.54451   0.00000  Uiso   1.00
C479   C     0.53914   0.95921   0.60793   0.00000  Uiso   1.00
C480   C     0.53761   0.99239   0.48514   0.00000  Uiso   1.00
C481   C     0.52243   0.84560   0.58560   0.00000  Uiso   1.00
C482   C     0.49962   0.82672   0.68354   0.00000  Uiso   1.00
C483   C     0.48001   0.79930   0.59532   0.00000  Uiso   1.00
H484   H     0.55448   0.85509   0.18474   0.00000  Uiso   1.00
H485   H     0.60802   0.82321   0.22262   0.00000  Uiso   1.00
H486   H     0.54790   0.93613   0.10285   0.00000  Uiso   1.00
H487   H     0.50838   0.80366   0.17845   0.00000  Uiso   1.00
H488   H     0.66602   0.79149   0.34386   0.00000  Uiso   1.00
H489   H     0.53923   0.02960   0.09131   0.00000  Uiso   1.00
H490   H     0.45590   0.75026   0.25072   0.00000  Uiso   1.00
H491   H     0.54389   0.88298   0.79537   0.00000  Uiso   1.00
H492   H     0.59685   0.85262   0.86677   0.00000  Uiso   1.00
H493   H     0.53673   0.96555   0.74699   0.00000  Uiso   1.00
H494   H     0.49721   0.83308   0.82259   0.00000  Uiso   1.00
H495   H     0.65695   0.81537   0.86667   0.00000  Uiso   1.00
H496   H     0.53016   0.05348   0.61412   0.00000  Uiso   1.00
H497   H     0.44683   0.77414   0.77354   0.00000  Uiso   1.00
O498   O     0.69652   0.78297   0.64121   0.00000  Uiso   1.00
O499   O     0.53018   0.09536   0.30987   0.00000  Uiso   1.00
O500   O     0.42085   0.72887   0.51901   0.00000  Uiso   1.00
N501   N     0.65661   0.80127   0.45711   0.00000  Uiso   1.00
N502   N     0.53808   0.02389   0.22099   0.00000  Uiso   1.00
N503   N     0.46017   0.76274   0.37002   0.00000  Uiso   1.00
N504   N     0.65173   0.81412   0.73843   0.00000  Uiso   1.00
N505   N     0.53320   0.03674   0.50232   0.00000  Uiso   1.00
N506   N     0.45529   0.77559   0.65134   0.00000  Uiso   1.00
C507   C     0.55206   0.36148   0.82464   0.00000  Uiso   1.00
C508   C     0.57968   0.34802   0.92990   0.00000  Uiso   1.00
C509   C     0.60562   0.32955   0.86170   0.00000  Uiso   1.00
C510   C     0.62837   0.31957   0.97968   0.00000  Uiso   1.00
C511   C     0.67173   0.29744   0.11578   0.00000  Uiso   1.00
C512   C     0.54701   0.40938   0.86483   0.00000  Uiso   1.00
C513   C     0.54549   0.44249   0.74190   0.00000  Uiso   1.00
C514   C     0.54074   0.48416   0.80512   0.00000  Uiso   1.00
C515   C     0.53337   0.55729   0.84018   0.00000  Uiso   1.00
C516   C     0.52555   0.33740   0.90590   0.00000  Uiso   1.00
C517   C     0.50596   0.31000   0.81751   0.00000  Uiso   1.00
C518   C     0.48313   0.29108   0.91530   0.00000  Uiso   1.00
C519   C     0.44243   0.25245   0.01413   0.00000  Uiso   1.00
C520   C     0.54632   0.37659   0.15547   0.00000  Uiso   1.00
C521   C     0.57656   0.35623   0.10959   0.00000  Uiso   1.00
C522   C     0.59927   0.34627   0.22772   0.00000  Uiso   1.00
C523   C     0.62524   0.32779   0.15970   0.00000  Uiso   1.00
C524   C     0.54390   0.41758   0.04451   0.00000  Uiso   1.00
C525   C     0.53914   0.45921   0.10793   0.00000  Uiso   1.00
C526   C     0.53761   0.49239   0.98514   0.00000  Uiso   1.00
C527   C     0.52243   0.34560   0.08560   0.00000  Uiso   1.00
C528   C     0.49962   0.32672   0.18354   0.00000  Uiso   1.00
C529   C     0.48001   0.29930   0.09532   0.00000  Uiso   1.00
H530   H     0.55448   0.35509   0.68474   0.00000  Uiso   1.00
H531   H     0.60802   0.32321   0.72262   0.00000  Uiso   1.00
H532   H     0.54790   0.43613   0.60285   0.00000  Uiso   1.00
H533   H     0.50838   0.30366   0.67845   0.00000  Uiso   1.00
H534   H     0.66602   0.29149   0.84386   0.00000  Uiso   1.00
H535   H     0.53923   0.52960   0.59131   0.00000  Uiso   1.00
H536   H     0.45590   0.25026   0.75072   0.00000  Uiso   1.00
H537   H     0.54389   0.38298   0.29537   0.00000  Uiso   1.00
H538   H     0.59685   0.35262   0.36677   0.00000  Uiso   1.00
H539   H     0.53673   0.46555   0.24699   0.00000  Uiso   1.00
H540   H     0.49721   0.33308   0.32259   0.00000  Uiso   1.00
H541   H     0.65695   0.31537   0.36667   0.00000  Uiso   1.00
H542   H     0.53016   0.55348   0.11412   0.00000  Uiso   1.00
H543   H     0.44683   0.27414   0.27354   0.00000  Uiso   1.00
O544   O     0.69652   0.28297   0.14121   0.00000  Uiso   1.00
O545   O     0.53018   0.59536   0.80987   0.00000  Uiso   1.00
O546   O     0.42085   0.22887   0.01901   0.00000  Uiso   1.00
N547   N     0.65661   0.30127   0.95711   0.00000  Uiso   1.00
N548   N     0.53808   0.52389   0.72099   0.00000  Uiso   1.00
N549   N     0.46017   0.26274   0.87002   0.00000  Uiso   1.00
N550   N     0.65173   0.31412   0.23843   0.00000  Uiso   1.00
N551   N     0.53320   0.53674   0.00232   0.00000  Uiso   1.00
N552   N     0.45529   0.27559   0.15134   0.00000  Uiso   1.00
C553   C     0.44794   0.63852   0.82464   0.00000  Uiso   1.00
C554   C     0.42032   0.65198   0.92990   0.00000  Uiso   1.00
C555   C     0.39438   0.67045   0.86170   0.00000  Uiso   1.00
C556   C     0.37163   0.68043   0.97968   0.00000  Uiso   1.00
C557   C     0.32827   0.70256   0.11578   0.00000  Uiso   1.00
C558   C     0.45299   0.59062   0.86483   0.00000  Uiso   1.00
C559   C     0.45451   0.55751   0.74190   0.00000  Uiso   1.00
C560   C     0.45926   0.51584   0.80512   0.00000  Uiso   1.00
C561   C     0.46663   0.44271   0.84018   0.00000  Uiso   1.00
C562   C     0.47445   0.66260   0.90590   0.00000  Uiso   1.00
C563   C     0.49404   0.69000   0.81751   0.00000  Uiso   1.00
C564   C     0.51687   0.70892   0.91530   0.00000  Uiso   1.00
C565   C     0.55757   0.74755   0.01413   0.00000  Uiso   1.00
C566   C     0.45368   0.62341   0.15547   0.00000  Uiso   1.00
C567   C     0.42344   0.64377   0.10959   0.00000  Uiso   1.00
C568   C     0.40073   0.65373   0.22772   0.00000  Uiso   1.00
C569   C     0.37476   0.67221   0.15970   0.00000  Uiso   1.00
C570   C     0.45610   0.58242   0.04451   0.00000  Uiso   1.00
C571   C     0.46086   0.54079   0.10793   0.00000  Uiso   1.00
C572   C     0.46239   0.50761   0.98514   0.00000  Uiso   1.00
C573   C     0.47757   0.65440   0.08560   0.00000  Uiso   1.00
C574   C     0.50038   0.67328   0.18354   0.00000  Uiso   1.00
C575   C     0.51999   0.70070   0.09532   0.00000  Uiso   1.00
H576   H     0.44552   0.64491   0.68474   0.00000  Uiso   1.00
H577   H     0.39198   0.67679   0.72262   0.00000  Uiso   1.00
H578   H     0.45210   0.56387   0.60285   0.00000  Uiso   1.00
H579   H     0.49162   0.69634   0.67845   0.00000  Uiso   1.00
H580   H     0.33398   0.70851   0.84386   0.00000  Uiso   1.00
H581   H     0.46077   0.47040   0.59131   0.00000  Uiso   1.00
H582   H     0.54410   0.74974   0.75072   0.00000  Uiso   1.00
H583   H     0.45611   0.61702   0.29537   0.00000  Uiso   1.00
H584   H     0.40315   0.64738   0.36677   0.00000  Uiso   1.00
H585   H     0.46327   0.53445   0.24699   0.00000  Uiso   1.00
H586   H     0.50279   0.66692   0.32259   0.00000  Uiso   1.00
H587   H     0.34305   0.68463   0.36667   0.00000  Uiso   1.00
H588   H     0.46984   0.44652   0.11412   0.00000  Uiso   1.00
H589   H     0.55317   0.72586   0.27354   0.00000  Uiso   1.00
O590   O     0.30348   0.71703   0.14121   0.00000  Uiso   1.00
O591   O     0.46982   0.40464   0.80987   0.00000  Uiso   1.00
O592   O     0.57915   0.77113   0.01901   0.00000  Uiso   1.00
N593   N     0.34339   0.69873   0.95711   0.00000  Uiso   1.00
N594   N     0.46192   0.47611   0.72099   0.00000  Uiso   1.00
N595   N     0.53983   0.73726   0.87002   0.00000  Uiso   1.00
N596   N     0.34827   0.68588   0.23843   0.00000  Uiso   1.00
N597   N     0.46680   0.46326   0.00232   0.00000  Uiso   1.00
N598   N     0.54471   0.72441   0.15134   0.00000  Uiso   1.00
C599   C     0.44794   0.13852   0.32464   0.00000  Uiso   1.00
C600   C     0.42032   0.15198   0.42990   0.00000  Uiso   1.00
C601   C     0.39438   0.17045   0.36170   0.00000  Uiso   1.00
C602   C     0.37163   0.18043   0.47968   0.00000  Uiso   1.00
C603   C     0.32827   0.20256   0.61578   0.00000  Uiso   1.00
C604   C     0.45299   0.09062   0.36483   0.00000  Uiso   1.00
C605   C     0.45451   0.05751   0.24190   0.00000  Uiso   1.00
C606   C     0.45926   0.01584   0.30512   0.00000  Uiso   1.00
C607   C     0.46663   0.94271   0.34018   0.00000  Uiso   1.00
C608   C     0.47445   0.16260   0.40590   0.00000  Uiso   1.00
C609   C     0.49404   0.19000   0.31751   0.00000  Uiso   1.00
C610   C     0.51687   0.20892   0.41530   0.00000  Uiso   1.00
C611   C     0.55757   0.24755   0.51413   0.00000  Uiso   1.00
C612   C     0.45368   0.12341   0.65547   0.00000  Uiso   1.00
C613   C     0.42344   0.14377   0.60959   0.00000  Uiso   1.00
C614   C     0.40073   0.15373   0.72772   0.00000  Uiso   1.00
C615   C     0.37476   0.17221   0.65970   0.00000  Uiso   1.00
C616   C     0.45610   0.08242   0.54451   0.00000  Uiso   1.00
C617   C     0.46086   0.04079   0.60793   0.00000  Uiso   1.00
C618   C     0.46239   0.00761   0.48514   0.00000  Uiso   1.00
C619   C     0.47757   0.15440   0.58560   0.00000  Uiso   1.00
C620   C     0.50038   0.17328   0.68354   0.00000  Uiso   1.00
C621   C     0.51999   0.20070   0.59532   0.00000  Uiso   1.00
H622   H     0.44552   0.14491   0.18474   0.00000  Uiso   1.00
H623   H     0.39198   0.17679   0.22262   0.00000  Uiso   1.00
H624   H     0.45210   0.06387   0.10285   0.00000  Uiso   1.00
H625   H     0.49162   0.19634   0.17845   0.00000  Uiso   1.00
H626   H     0.33398   0.20851   0.34386   0.00000  Uiso   1.00
H627   H     0.46077   0.97040   0.09131   0.00000  Uiso   1.00
H628   H     0.54410   0.24974   0.25072   0.00000  Uiso   1.00
H629   H     0.45611   0.11702   0.79537   0.00000  Uiso   1.00
H630   H     0.40315   0.14738   0.86677   0.00000  Uiso   1.00
H631   H     0.46327   0.03445   0.74699   0.00000  Uiso   1.00
H632   H     0.50279   0.16692   0.82259   0.00000  Uiso   1.00
H633   H     0.34305   0.18463   0.86667   0.00000  Uiso   1.00
H634   H     0.46984   0.94652   0.61412   0.00000  Uiso   1.00
H635   H     0.55317   0.22586   0.77354   0.00000  Uiso   1.00
O636   O     0.30348   0.21703   0.64121   0.00000  Uiso   1.00
O637   O     0.46982   0.90464   0.30987   0.00000  Uiso   1.00
O638   O     0.57915   0.27113   0.51901   0.00000  Uiso   1.00
N639   N     0.34339   0.19873   0.45711   0.00000  Uiso   1.00
N640   N     0.46192   0.97611   0.22099   0.00000  Uiso   1.00
N641   N     0.53983   0.23726   0.37002   0.00000  Uiso   1.00
N642   N     0.34827   0.18588   0.73843   0.00000  Uiso   1.00
N643   N     0.46680   0.96326   0.50232   0.00000  Uiso   1.00
N644   N     0.54471   0.22441   0.65134   0.00000  Uiso   1.00
C645   C     0.94794   0.63852   0.32464   0.00000  Uiso   1.00
C646   C     0.92032   0.65198   0.42990   0.00000  Uiso   1.00
C647   C     0.89438   0.67045   0.36170   0.00000  Uiso   1.00
C648   C     0.87163   0.68043   0.47968   0.00000  Uiso   1.00
C649   C     0.82827   0.70256   0.61578   0.00000  Uiso   1.00
C650   C     0.95299   0.59062   0.36483   0.00000  Uiso   1.00
C651   C     0.95451   0.55751   0.24190   0.00000  Uiso   1.00
C652   C     0.95926   0.51584   0.30512   0.00000  Uiso   1.00
C653   C     0.96663   0.44271   0.34018   0.00000  Uiso   1.00
C654   C     0.97445   0.66260   0.40590   0.00000  Uiso   1.00
C655   C     0.99404   0.69000   0.31751   0.00000  Uiso   1.00
C656   C     0.01687   0.70892   0.41530   0.00000  Uiso   1.00
C657   C     0.05757   0.74755   0.51413   0.00000  Uiso   1.00
C658   C     0.95368   0.62341   0.65547   0.00000  Uiso   1.00
C659   C     0.92344   0.64377   0.60959   0.00000  Uiso   1.00
C660   C     0.90073   0.65373   0.72772   0.00000  Uiso   1.00
C661   C     0.87476   0.67221   0.65970   0.00000  Uiso   1.00
C662   C     0.95610   0.58242   0.54451   0.00000  Uiso   1.00
C663   C     0.96086   0.54079   0.60793   0.00000  Uiso   1.00
C664   C     0.96239   0.50761   0.48514   0.00000  Uiso   1.00
C665   C     0.97757   0.65440   0.58560   0.00000  Uiso   1.00
C666   C     0.00038   0.67328   0.68354   0.00000  Uiso   1.00
C667   C     0.01999   0.70070   0.59532   0.00000  Uiso   1.00
H668   H     0.94552   0.64491   0.18474   0.00000  Uiso   1.00
H669   H     0.89198   0.67679   0.22262   0.00000  Uiso   1.00
H670   H     0.95210   0.56387   0.10285   0.00000  Uiso   1.00
H671   H     0.99162   0.69634   0.17845   0.00000  Uiso   1.00
H672   H     0.83398   0.70851   0.34386   0.00000  Uiso   1.00
H673   H     0.96077   0.47040   0.09131   0.00000  Uiso   1.00
H674   H     0.04410   0.74974   0.25072   0.00000  Uiso   1.00
H675   H     0.95611   0.61702   0.79537   0.00000  Uiso   1.00
H676   H     0.90315   0.64738   0.86677   0.00000  Uiso   1.00
H677   H     0.96327   0.53445   0.74699   0.00000  Uiso   1.00
H678   H     0.00279   0.66692   0.82259   0.00000  Uiso   1.00
H679   H     0.84305   0.68463   0.86667   0.00000  Uiso   1.00
H680   H     0.96984   0.44652   0.61412   0.00000  Uiso   1.00
H681   H     0.05317   0.72586   0.77354   0.00000  Uiso   1.00
O682   O     0.80348   0.71703   0.64121   0.00000  Uiso   1.00
O683   O     0.96982   0.40464   0.30987   0.00000  Uiso   1.00
O684   O     0.07915   0.77113   0.51901   0.00000  Uiso   1.00
N685   N     0.84339   0.69873   0.45711   0.00000  Uiso   1.00
N686   N     0.96192   0.47611   0.22099   0.00000  Uiso   1.00
N687   N     0.03983   0.73726   0.37002   0.00000  Uiso   1.00
N688   N     0.84827   0.68588   0.73843   0.00000  Uiso   1.00
N689   N     0.96680   0.46326   0.50232   0.00000  Uiso   1.00
N690   N     0.04471   0.72441   0.65134   0.00000  Uiso   1.00
C691   C     0.94794   0.13852   0.82464   0.00000  Uiso   1.00
C692   C     0.92032   0.15198   0.92990   0.00000  Uiso   1.00
C693   C     0.89438   0.17045   0.86170   0.00000  Uiso   1.00
C694   C     0.87163   0.18043   0.97968   0.00000  Uiso   1.00
C695   C     0.82827   0.20256   0.11578   0.00000  Uiso   1.00
C696   C     0.95299   0.09062   0.86483   0.00000  Uiso   1.00
C697   C     0.95451   0.05751   0.74190   0.00000  Uiso   1.00
C698   C     0.95926   0.01584   0.80512   0.00000  Uiso   1.00
C699   C     0.96663   0.94271   0.84018   0.00000  Uiso   1.00
C700   C     0.97445   0.16260   0.90590   0.00000  Uiso   1.00
C701   C     0.99404   0.19000   0.81751   0.00000  Uiso   1.00
C702   C     0.01687   0.20892   0.91530   0.00000  Uiso   1.00
C703   C     0.05757   0.24755   0.01413   0.00000  Uiso   1.00
C704   C     0.95368   0.12341   0.15547   0.00000  Uiso   1.00
C705   C     0.92344   0.14377   0.10959   0.00000  Uiso   1.00
C706   C     0.90073   0.15373   0.22772   0.00000  Uiso   1.00
C707   C     0.87476   0.17221   0.15970   0.00000  Uiso   1.00
C708   C     0.95610   0.08242   0.04451   0.00000  Uiso   1.00
C709   C     0.96086   0.04079   0.10793   0.00000  Uiso   1.00
C710   C     0.96239   0.00761   0.98514   0.00000  Uiso   1.00
C711   C     0.97757   0.15440   0.08560   0.00000  Uiso   1.00
C712   C     0.00038   0.17328   0.18354   0.00000  Uiso   1.00
C713   C     0.01999   0.20070   0.09532   0.00000  Uiso   1.00
H714   H     0.94552   0.14491   0.68474   0.00000  Uiso   1.00
H715   H     0.89198   0.17679   0.72262   0.00000  Uiso   1.00
H716   H     0.95210   0.06387   0.60285   0.00000  Uiso   1.00
H717   H     0.99162   0.19634   0.67845   0.00000  Uiso   1.00
H718   H     0.83398   0.20851   0.84386   0.00000  Uiso   1.00
H719   H     0.96077   0.97040   0.59131   0.00000  Uiso   1.00
H720   H     0.04410   0.24974   0.75072   0.00000  Uiso   1.00
H721   H     0.95611   0.11702   0.29537   0.00000  Uiso   1.00
H722   H     0.90315   0.14738   0.36677   0.00000  Uiso   1.00
H723   H     0.96327   0.03445   0.24699   0.00000  Uiso   1.00
H724   H     0.00279   0.16692   0.32259   0.00000  Uiso   1.00
H725   H     0.84305   0.18463   0.36667   0.00000  Uiso   1.00
H726   H     0.96984   0.94652   0.11412   0.00000  Uiso   1.00
H727   H     0.05317   0.22586   0.27354   0.00000  Uiso   1.00
O728   O     0.80348   0.21703   0.14121   0.00000  Uiso   1.00
O729   O     0.96982   0.90464   0.80987   0.00000  Uiso   1.00
O730   O     0.07915   0.27113   0.01901   0.00000  Uiso   1.00
N731   N     0.84339   0.19873   0.95711   0.00000  Uiso   1.00
N732   N     0.96192   0.97611   0.72099   0.00000  Uiso   1.00
N733   N     0.03983   0.23726   0.87002   0.00000  Uiso   1.00
N734   N     0.84827   0.18588   0.23843   0.00000  Uiso   1.00
N735   N     0.96680   0.96326   0.00232   0.00000  Uiso   1.00
N736   N     0.04471   0.22441   0.15134   0.00000  Uiso   1.00
