data_job_02472
_audit_creation_date              2018-12-19
_audit_creation_method            'Materials Studio'
_symmetry_space_group_name_H-M    'P1'
_symmetry_Int_Tables_number       1
_symmetry_cell_setting            triclinic
loop_
_symmetry_equiv_pos_as_xyz
  x,y,z
_cell_length_a                    28.0989
_cell_length_b                    50.1743
_cell_length_c                    8.2237
_cell_angle_alpha                 90.0000
_cell_angle_beta                  90.0000
_cell_angle_gamma                 90.0000
loop_
_atom_site_label
_atom_site_type_symbol
_atom_site_fract_x
_atom_site_fract_y
_atom_site_fract_z
_atom_site_U_iso_or_equiv
_atom_site_adp_type
_atom_site_occupancy
C1     C     0.58230   0.43433   0.27498   0.00000  Uiso   1.00
C2     C     0.60814   0.44728   0.41762   0.00000  Uiso   1.00
C3     C     0.65008   0.46180   0.40796   0.00000  Uiso   1.00
C4     C     0.66805   0.47202   0.55234   0.00000  Uiso   1.00
C5     C     0.71171   0.49275   0.75122   0.00000  Uiso   1.00
C6     C     0.57763   0.40488   0.31784   0.00000  Uiso   1.00
C7     C     0.59392   0.38374   0.22427   0.00000  Uiso   1.00
C8     C     0.58619   0.35826   0.28465   0.00000  Uiso   1.00
C9     C     0.58246   0.31316   0.32856   0.00000  Uiso   1.00
C10    C     0.53189   0.44558   0.27698   0.00000  Uiso   1.00
C11    C     0.50971   0.45865   0.14904   0.00000  Uiso   1.00
C12    C     0.46347   0.46744   0.17500   0.00000  Uiso   1.00
C13    C     0.38871   0.48553   0.15547   0.00000  Uiso   1.00
C14    C     0.53962   0.42666   0.54856   0.00000  Uiso   1.00
C15    C     0.58496   0.44312   0.56622   0.00000  Uiso   1.00
C16    C     0.60287   0.45332   0.71065   0.00000  Uiso   1.00
C17    C     0.64483   0.46785   0.70121   0.00000  Uiso   1.00
C18    C     0.55445   0.40071   0.46643   0.00000  Uiso   1.00
C19    C     0.54670   0.37526   0.52696   0.00000  Uiso   1.00
C20    C     0.56297   0.35409   0.43352   0.00000  Uiso   1.00
C21    C     0.50871   0.44141   0.42558   0.00000  Uiso   1.00
C22    C     0.46249   0.45018   0.45174   0.00000  Uiso   1.00
C23    C     0.44025   0.46327   0.32387   0.00000  Uiso   1.00
H24    H     0.60035   0.43757   0.15929   0.00000  Uiso   1.00
H25    H     0.66801   0.46502   0.29294   0.00000  Uiso   1.00
H26    H     0.61185   0.38697   0.10928   0.00000  Uiso   1.00
H27    H     0.52765   0.46187   0.03407   0.00000  Uiso   1.00
H28    H     0.73282   0.49360   0.50666   0.00000  Uiso   1.00
H29    H     0.61438   0.32903   0.11936   0.00000  Uiso   1.00
H30    H     0.43684   0.48698   0.96076   0.00000  Uiso   1.00
H31    H     0.52158   0.42342   0.66426   0.00000  Uiso   1.00
H32    H     0.58492   0.45009   0.82563   0.00000  Uiso   1.00
H33    H     0.52876   0.37205   0.64195   0.00000  Uiso   1.00
H34    H     0.44457   0.44695   0.56674   0.00000  Uiso   1.00
H35    H     0.66539   0.48149   0.93900   0.00000  Uiso   1.00
H36    H     0.54694   0.31692   0.55170   0.00000  Uiso   1.00
H37    H     0.36940   0.47487   0.39310   0.00000  Uiso   1.00
O38    O     0.74220   0.50534   0.81988   0.00000  Uiso   1.00
O39    O     0.58681   0.28943   0.31174   0.00000  Uiso   1.00
O40    O     0.35388   0.49666   0.10366   0.00000  Uiso   1.00
N41    N     0.70825   0.48709   0.58626   0.00000  Uiso   1.00
N42    N     0.59752   0.33323   0.22417   0.00000  Uiso   1.00
N43    N     0.43153   0.48090   0.07588   0.00000  Uiso   1.00
N44    N     0.67197   0.48058   0.81890   0.00000  Uiso   1.00
N45    N     0.56124   0.32672   0.45681   0.00000  Uiso   1.00
N46    N     0.39525   0.47438   0.30852   0.00000  Uiso   1.00
C47    C     0.58230   0.93433   0.77498   0.00000  Uiso   1.00
C48    C     0.60814   0.94728   0.91762   0.00000  Uiso   1.00
C49    C     0.65008   0.96180   0.90796   0.00000  Uiso   1.00
C50    C     0.66805   0.97202   0.05234   0.00000  Uiso   1.00
C51    C     0.71171   0.99275   0.25122   0.00000  Uiso   1.00
C52    C     0.57763   0.90488   0.81784   0.00000  Uiso   1.00
C53    C     0.59392   0.88374   0.72427   0.00000  Uiso   1.00
C54    C     0.58619   0.85826   0.78465   0.00000  Uiso   1.00
C55    C     0.58246   0.81316   0.82856   0.00000  Uiso   1.00
C56    C     0.53189   0.94558   0.77698   0.00000  Uiso   1.00
C57    C     0.50971   0.95865   0.64904   0.00000  Uiso   1.00
C58    C     0.46347   0.96744   0.67500   0.00000  Uiso   1.00
C59    C     0.38871   0.98553   0.65547   0.00000  Uiso   1.00
C60    C     0.53962   0.92666   0.04856   0.00000  Uiso   1.00
C61    C     0.58496   0.94312   0.06622   0.00000  Uiso   1.00
C62    C     0.60287   0.95332   0.21065   0.00000  Uiso   1.00
C63    C     0.64483   0.96785   0.20121   0.00000  Uiso   1.00
C64    C     0.55445   0.90071   0.96643   0.00000  Uiso   1.00
C65    C     0.54670   0.87526   0.02696   0.00000  Uiso   1.00
C66    C     0.56297   0.85409   0.93352   0.00000  Uiso   1.00
C67    C     0.50871   0.94141   0.92558   0.00000  Uiso   1.00
C68    C     0.46249   0.95018   0.95174   0.00000  Uiso   1.00
C69    C     0.44025   0.96327   0.82387   0.00000  Uiso   1.00
H70    H     0.60035   0.93757   0.65929   0.00000  Uiso   1.00
H71    H     0.66801   0.96502   0.79294   0.00000  Uiso   1.00
H72    H     0.61185   0.88697   0.60928   0.00000  Uiso   1.00
H73    H     0.52765   0.96187   0.53407   0.00000  Uiso   1.00
H74    H     0.73282   0.99360   0.00666   0.00000  Uiso   1.00
H75    H     0.61438   0.82903   0.61936   0.00000  Uiso   1.00
H76    H     0.43684   0.98698   0.46076   0.00000  Uiso   1.00
H77    H     0.52158   0.92342   0.16426   0.00000  Uiso   1.00
H78    H     0.58492   0.95009   0.32563   0.00000  Uiso   1.00
H79    H     0.52876   0.87205   0.14195   0.00000  Uiso   1.00
H80    H     0.44457   0.94695   0.06674   0.00000  Uiso   1.00
H81    H     0.66539   0.98149   0.43900   0.00000  Uiso   1.00
H82    H     0.54694   0.81692   0.05170   0.00000  Uiso   1.00
H83    H     0.36940   0.97487   0.89310   0.00000  Uiso   1.00
O84    O     0.74220   0.00534   0.31988   0.00000  Uiso   1.00
O85    O     0.58681   0.78943   0.81174   0.00000  Uiso   1.00
O86    O     0.35388   0.99666   0.60366   0.00000  Uiso   1.00
N87    N     0.70825   0.98709   0.08626   0.00000  Uiso   1.00
N88    N     0.59752   0.83323   0.72417   0.00000  Uiso   1.00
N89    N     0.43153   0.98090   0.57588   0.00000  Uiso   1.00
N90    N     0.67197   0.98058   0.31890   0.00000  Uiso   1.00
N91    N     0.56124   0.82672   0.95681   0.00000  Uiso   1.00
N92    N     0.39525   0.97438   0.80852   0.00000  Uiso   1.00
C93    C     0.08230   0.43433   0.77498   0.00000  Uiso   1.00
C94    C     0.10814   0.44728   0.91762   0.00000  Uiso   1.00
C95    C     0.15008   0.46180   0.90796   0.00000  Uiso   1.00
C96    C     0.16805   0.47202   0.05234   0.00000  Uiso   1.00
C97    C     0.21171   0.49275   0.25122   0.00000  Uiso   1.00
C98    C     0.07763   0.40488   0.81784   0.00000  Uiso   1.00
C99    C     0.09392   0.38374   0.72427   0.00000  Uiso   1.00
C100   C     0.08619   0.35826   0.78465   0.00000  Uiso   1.00
C101   C     0.08246   0.31316   0.82856   0.00000  Uiso   1.00
C102   C     0.03189   0.44558   0.77698   0.00000  Uiso   1.00
C103   C     0.00971   0.45865   0.64904   0.00000  Uiso   1.00
C104   C     0.96347   0.46744   0.67500   0.00000  Uiso   1.00
C105   C     0.88871   0.48553   0.65547   0.00000  Uiso   1.00
C106   C     0.03962   0.42666   0.04856   0.00000  Uiso   1.00
C107   C     0.08496   0.44312   0.06622   0.00000  Uiso   1.00
C108   C     0.10287   0.45332   0.21065   0.00000  Uiso   1.00
C109   C     0.14483   0.46785   0.20121   0.00000  Uiso   1.00
C110   C     0.05445   0.40071   0.96643   0.00000  Uiso   1.00
C111   C     0.04670   0.37526   0.02696   0.00000  Uiso   1.00
C112   C     0.06297   0.35409   0.93352   0.00000  Uiso   1.00
C113   C     0.00871   0.44141   0.92558   0.00000  Uiso   1.00
C114   C     0.96249   0.45018   0.95174   0.00000  Uiso   1.00
C115   C     0.94025   0.46327   0.82387   0.00000  Uiso   1.00
H116   H     0.10035   0.43757   0.65929   0.00000  Uiso   1.00
H117   H     0.16801   0.46502   0.79294   0.00000  Uiso   1.00
H118   H     0.11185   0.38697   0.60928   0.00000  Uiso   1.00
H119   H     0.02765   0.46187   0.53407   0.00000  Uiso   1.00
H120   H     0.23282   0.49360   0.00666   0.00000  Uiso   1.00
H121   H     0.11438   0.32903   0.61936   0.00000  Uiso   1.00
H122   H     0.93684   0.48698   0.46076   0.00000  Uiso   1.00
H123   H     0.02158   0.42342   0.16426   0.00000  Uiso   1.00
H124   H     0.08492   0.45009   0.32563   0.00000  Uiso   1.00
H125   H     0.02876   0.37205   0.14195   0.00000  Uiso   1.00
H126   H     0.94457   0.44695   0.06674   0.00000  Uiso   1.00
H127   H     0.16539   0.48149   0.43900   0.00000  Uiso   1.00
H128   H     0.04694   0.31692   0.05170   0.00000  Uiso   1.00
H129   H     0.86940   0.47487   0.89310   0.00000  Uiso   1.00
O130   O     0.24220   0.50534   0.31988   0.00000  Uiso   1.00
O131   O     0.08681   0.28943   0.81174   0.00000  Uiso   1.00
O132   O     0.85388   0.49666   0.60366   0.00000  Uiso   1.00
N133   N     0.20825   0.48709   0.08626   0.00000  Uiso   1.00
N134   N     0.09752   0.33323   0.72417   0.00000  Uiso   1.00
N135   N     0.93153   0.48090   0.57588   0.00000  Uiso   1.00
N136   N     0.17197   0.48058   0.31890   0.00000  Uiso   1.00
N137   N     0.06124   0.32672   0.95681   0.00000  Uiso   1.00
N138   N     0.89525   0.47438   0.80852   0.00000  Uiso   1.00
C139   C     0.08230   0.93433   0.27498   0.00000  Uiso   1.00
C140   C     0.10814   0.94728   0.41762   0.00000  Uiso   1.00
C141   C     0.15008   0.96180   0.40796   0.00000  Uiso   1.00
C142   C     0.16805   0.97202   0.55234   0.00000  Uiso   1.00
C143   C     0.21171   0.99275   0.75122   0.00000  Uiso   1.00
C144   C     0.07763   0.90488   0.31784   0.00000  Uiso   1.00
C145   C     0.09392   0.88374   0.22427   0.00000  Uiso   1.00
C146   C     0.08619   0.85826   0.28465   0.00000  Uiso   1.00
C147   C     0.08246   0.81316   0.32856   0.00000  Uiso   1.00
C148   C     0.03189   0.94558   0.27698   0.00000  Uiso   1.00
C149   C     0.00971   0.95865   0.14904   0.00000  Uiso   1.00
C150   C     0.96347   0.96744   0.17500   0.00000  Uiso   1.00
C151   C     0.88871   0.98553   0.15547   0.00000  Uiso   1.00
C152   C     0.03962   0.92666   0.54856   0.00000  Uiso   1.00
C153   C     0.08496   0.94312   0.56622   0.00000  Uiso   1.00
C154   C     0.10287   0.95332   0.71065   0.00000  Uiso   1.00
C155   C     0.14483   0.96785   0.70121   0.00000  Uiso   1.00
C156   C     0.05445   0.90071   0.46643   0.00000  Uiso   1.00
C157   C     0.04670   0.87526   0.52696   0.00000  Uiso   1.00
C158   C     0.06297   0.85409   0.43352   0.00000  Uiso   1.00
C159   C     0.00871   0.94141   0.42558   0.00000  Uiso   1.00
C160   C     0.96249   0.95018   0.45174   0.00000  Uiso   1.00
C161   C     0.94025   0.96327   0.32387   0.00000  Uiso   1.00
H162   H     0.10035   0.93757   0.15929   0.00000  Uiso   1.00
H163   H     0.16801   0.96502   0.29294   0.00000  Uiso   1.00
H164   H     0.11185   0.88697   0.10928   0.00000  Uiso   1.00
H165   H     0.02765   0.96187   0.03407   0.00000  Uiso   1.00
H166   H     0.23282   0.99360   0.50666   0.00000  Uiso   1.00
H167   H     0.11438   0.82903   0.11936   0.00000  Uiso   1.00
H168   H     0.93684   0.98698   0.96076   0.00000  Uiso   1.00
H169   H     0.02158   0.92342   0.66426   0.00000  Uiso   1.00
H170   H     0.08492   0.95009   0.82563   0.00000  Uiso   1.00
H171   H     0.02876   0.87205   0.64195   0.00000  Uiso   1.00
H172   H     0.94457   0.94695   0.56674   0.00000  Uiso   1.00
H173   H     0.16539   0.98149   0.93900   0.00000  Uiso   1.00
H174   H     0.04694   0.81692   0.55170   0.00000  Uiso   1.00
H175   H     0.86940   0.97487   0.39310   0.00000  Uiso   1.00
O176   O     0.24220   0.00534   0.81988   0.00000  Uiso   1.00
O177   O     0.08681   0.78943   0.31174   0.00000  Uiso   1.00
O178   O     0.85388   0.99666   0.10366   0.00000  Uiso   1.00
N179   N     0.20825   0.98709   0.58626   0.00000  Uiso   1.00
N180   N     0.09752   0.83323   0.22417   0.00000  Uiso   1.00
N181   N     0.93153   0.98090   0.07588   0.00000  Uiso   1.00
N182   N     0.17197   0.98058   0.81890   0.00000  Uiso   1.00
N183   N     0.06124   0.82672   0.45681   0.00000  Uiso   1.00
N184   N     0.89525   0.97438   0.30852   0.00000  Uiso   1.00
C185   C     0.41770   0.56567   0.27498   0.00000  Uiso   1.00
C186   C     0.39186   0.55272   0.41762   0.00000  Uiso   1.00
C187   C     0.34992   0.53820   0.40796   0.00000  Uiso   1.00
C188   C     0.33195   0.52798   0.55234   0.00000  Uiso   1.00
C189   C     0.28829   0.50725   0.75122   0.00000  Uiso   1.00
C190   C     0.42237   0.59512   0.31784   0.00000  Uiso   1.00
C191   C     0.40608   0.61626   0.22427   0.00000  Uiso   1.00
C192   C     0.41381   0.64174   0.28465   0.00000  Uiso   1.00
C193   C     0.41754   0.68684   0.32856   0.00000  Uiso   1.00
C194   C     0.46811   0.55442   0.27698   0.00000  Uiso   1.00
C195   C     0.49029   0.54135   0.14904   0.00000  Uiso   1.00
C196   C     0.53653   0.53256   0.17500   0.00000  Uiso   1.00
C197   C     0.61129   0.51447   0.15547   0.00000  Uiso   1.00
C198   C     0.46038   0.57334   0.54856   0.00000  Uiso   1.00
C199   C     0.41504   0.55688   0.56622   0.00000  Uiso   1.00
C200   C     0.39713   0.54668   0.71065   0.00000  Uiso   1.00
C201   C     0.35517   0.53215   0.70121   0.00000  Uiso   1.00
C202   C     0.44555   0.59929   0.46643   0.00000  Uiso   1.00
C203   C     0.45330   0.62474   0.52696   0.00000  Uiso   1.00
C204   C     0.43703   0.64591   0.43352   0.00000  Uiso   1.00
C205   C     0.49129   0.55859   0.42558   0.00000  Uiso   1.00
C206   C     0.53751   0.54982   0.45174   0.00000  Uiso   1.00
C207   C     0.55975   0.53673   0.32387   0.00000  Uiso   1.00
H208   H     0.39965   0.56243   0.15929   0.00000  Uiso   1.00
H209   H     0.33199   0.53498   0.29294   0.00000  Uiso   1.00
H210   H     0.38815   0.61303   0.10928   0.00000  Uiso   1.00
H211   H     0.47235   0.53813   0.03407   0.00000  Uiso   1.00
H212   H     0.26718   0.50640   0.50666   0.00000  Uiso   1.00
H213   H     0.38562   0.67097   0.11936   0.00000  Uiso   1.00
H214   H     0.56316   0.51302   0.96076   0.00000  Uiso   1.00
H215   H     0.47842   0.57658   0.66426   0.00000  Uiso   1.00
H216   H     0.41508   0.54991   0.82563   0.00000  Uiso   1.00
H217   H     0.47124   0.62795   0.64195   0.00000  Uiso   1.00
H218   H     0.55543   0.55305   0.56674   0.00000  Uiso   1.00
H219   H     0.33461   0.51851   0.93900   0.00000  Uiso   1.00
H220   H     0.45306   0.68308   0.55170   0.00000  Uiso   1.00
H221   H     0.63060   0.52513   0.39310   0.00000  Uiso   1.00
O222   O     0.25780   0.49466   0.81988   0.00000  Uiso   1.00
O223   O     0.41319   0.71057   0.31174   0.00000  Uiso   1.00
O224   O     0.64612   0.50334   0.10366   0.00000  Uiso   1.00
N225   N     0.29175   0.51291   0.58626   0.00000  Uiso   1.00
N226   N     0.40248   0.66677   0.22417   0.00000  Uiso   1.00
N227   N     0.56847   0.51910   0.07588   0.00000  Uiso   1.00
N228   N     0.32803   0.51942   0.81890   0.00000  Uiso   1.00
N229   N     0.43876   0.67328   0.45681   0.00000  Uiso   1.00
N230   N     0.60475   0.52562   0.30852   0.00000  Uiso   1.00
C231   C     0.41770   0.06567   0.77498   0.00000  Uiso   1.00
C232   C     0.39186   0.05272   0.91762   0.00000  Uiso   1.00
C233   C     0.34992   0.03820   0.90796   0.00000  Uiso   1.00
C234   C     0.33195   0.02798   0.05234   0.00000  Uiso   1.00
C235   C     0.28829   0.00725   0.25122   0.00000  Uiso   1.00
C236   C     0.42237   0.09512   0.81784   0.00000  Uiso   1.00
C237   C     0.40608   0.11626   0.72427   0.00000  Uiso   1.00
C238   C     0.41381   0.14174   0.78465   0.00000  Uiso   1.00
C239   C     0.41754   0.18684   0.82856   0.00000  Uiso   1.00
C240   C     0.46811   0.05442   0.77698   0.00000  Uiso   1.00
C241   C     0.49029   0.04135   0.64904   0.00000  Uiso   1.00
C242   C     0.53653   0.03256   0.67500   0.00000  Uiso   1.00
C243   C     0.61129   0.01447   0.65547   0.00000  Uiso   1.00
C244   C     0.46038   0.07334   0.04856   0.00000  Uiso   1.00
C245   C     0.41504   0.05688   0.06622   0.00000  Uiso   1.00
C246   C     0.39713   0.04668   0.21065   0.00000  Uiso   1.00
C247   C     0.35517   0.03215   0.20121   0.00000  Uiso   1.00
C248   C     0.44555   0.09929   0.96643   0.00000  Uiso   1.00
C249   C     0.45330   0.12474   0.02696   0.00000  Uiso   1.00
C250   C     0.43703   0.14591   0.93352   0.00000  Uiso   1.00
C251   C     0.49129   0.05859   0.92558   0.00000  Uiso   1.00
C252   C     0.53751   0.04982   0.95174   0.00000  Uiso   1.00
C253   C     0.55975   0.03673   0.82387   0.00000  Uiso   1.00
H254   H     0.39965   0.06243   0.65929   0.00000  Uiso   1.00
H255   H     0.33199   0.03498   0.79294   0.00000  Uiso   1.00
H256   H     0.38815   0.11303   0.60928   0.00000  Uiso   1.00
H257   H     0.47235   0.03813   0.53407   0.00000  Uiso   1.00
H258   H     0.26718   0.00640   0.00666   0.00000  Uiso   1.00
H259   H     0.38562   0.17097   0.61936   0.00000  Uiso   1.00
H260   H     0.56316   0.01302   0.46076   0.00000  Uiso   1.00
H261   H     0.47842   0.07658   0.16426   0.00000  Uiso   1.00
H262   H     0.41508   0.04991   0.32563   0.00000  Uiso   1.00
H263   H     0.47124   0.12795   0.14195   0.00000  Uiso   1.00
H264   H     0.55543   0.05305   0.06674   0.00000  Uiso   1.00
H265   H     0.33461   0.01851   0.43900   0.00000  Uiso   1.00
H266   H     0.45306   0.18308   0.05170   0.00000  Uiso   1.00
H267   H     0.63060   0.02513   0.89310   0.00000  Uiso   1.00
O268   O     0.25780   0.99466   0.31988   0.00000  Uiso   1.00
O269   O     0.41319   0.21057   0.81174   0.00000  Uiso   1.00
O270   O     0.64612   0.00334   0.60366   0.00000  Uiso   1.00
N271   N     0.29175   0.01291   0.08626   0.00000  Uiso   1.00
N272   N     0.40248   0.16677   0.72417   0.00000  Uiso   1.00
N273   N     0.56847   0.01910   0.57588   0.00000  Uiso   1.00
N274   N     0.32803   0.01942   0.31890   0.00000  Uiso   1.00
N275   N     0.43876   0.17328   0.95681   0.00000  Uiso   1.00
N276   N     0.60475   0.02562   0.80852   0.00000  Uiso   1.00
C277   C     0.91770   0.56567   0.77498   0.00000  Uiso   1.00
C278   C     0.89186   0.55272   0.91762   0.00000  Uiso   1.00
C279   C     0.84992   0.53820   0.90796   0.00000  Uiso   1.00
C280   C     0.83195   0.52798   0.05234   0.00000  Uiso   1.00
C281   C     0.78829   0.50725   0.25122   0.00000  Uiso   1.00
C282   C     0.92237   0.59512   0.81784   0.00000  Uiso   1.00
C283   C     0.90608   0.61626   0.72427   0.00000  Uiso   1.00
C284   C     0.91381   0.64174   0.78465   0.00000  Uiso   1.00
C285   C     0.91754   0.68684   0.82856   0.00000  Uiso   1.00
C286   C     0.96811   0.55442   0.77698   0.00000  Uiso   1.00
C287   C     0.99029   0.54135   0.64904   0.00000  Uiso   1.00
C288   C     0.03653   0.53256   0.67500   0.00000  Uiso   1.00
C289   C     0.11129   0.51447   0.65547   0.00000  Uiso   1.00
C290   C     0.96038   0.57334   0.04856   0.00000  Uiso   1.00
C291   C     0.91504   0.55688   0.06622   0.00000  Uiso   1.00
C292   C     0.89713   0.54668   0.21065   0.00000  Uiso   1.00
C293   C     0.85517   0.53215   0.20121   0.00000  Uiso   1.00
C294   C     0.94555   0.59929   0.96643   0.00000  Uiso   1.00
C295   C     0.95330   0.62474   0.02696   0.00000  Uiso   1.00
C296   C     0.93703   0.64591   0.93352   0.00000  Uiso   1.00
C297   C     0.99129   0.55859   0.92558   0.00000  Uiso   1.00
C298   C     0.03751   0.54982   0.95174   0.00000  Uiso   1.00
C299   C     0.05975   0.53673   0.82387   0.00000  Uiso   1.00
H300   H     0.89965   0.56243   0.65929   0.00000  Uiso   1.00
H301   H     0.83199   0.53498   0.79294   0.00000  Uiso   1.00
H302   H     0.88815   0.61303   0.60928   0.00000  Uiso   1.00
H303   H     0.97235   0.53813   0.53407   0.00000  Uiso   1.00
H304   H     0.76718   0.50640   0.00666   0.00000  Uiso   1.00
H305   H     0.88562   0.67097   0.61936   0.00000  Uiso   1.00
H306   H     0.06316   0.51302   0.46076   0.00000  Uiso   1.00
H307   H     0.97842   0.57658   0.16426   0.00000  Uiso   1.00
H308   H     0.91508   0.54991   0.32563   0.00000  Uiso   1.00
H309   H     0.97124   0.62795   0.14195   0.00000  Uiso   1.00
H310   H     0.05543   0.55305   0.06674   0.00000  Uiso   1.00
H311   H     0.83461   0.51851   0.43900   0.00000  Uiso   1.00
H312   H     0.95306   0.68308   0.05170   0.00000  Uiso   1.00
H313   H     0.13060   0.52513   0.89310   0.00000  Uiso   1.00
O314   O     0.75780   0.49466   0.31988   0.00000  Uiso   1.00
O315   O     0.91319   0.71057   0.81174   0.00000  Uiso   1.00
O316   O     0.14612   0.50334   0.60366   0.00000  Uiso   1.00
N317   N     0.79175   0.51291   0.08626   0.00000  Uiso   1.00
N318   N     0.90248   0.66677   0.72417   0.00000  Uiso   1.00
N319   N     0.06847   0.51910   0.57588   0.00000  Uiso   1.00
N320   N     0.82803   0.51942   0.31890   0.00000  Uiso   1.00
N321   N     0.93876   0.67328   0.95681   0.00000  Uiso   1.00
N322   N     0.10475   0.52562   0.80852   0.00000  Uiso   1.00
C323   C     0.91770   0.06567   0.27498   0.00000  Uiso   1.00
C324   C     0.89186   0.05272   0.41762   0.00000  Uiso   1.00
C325   C     0.84992   0.03820   0.40796   0.00000  Uiso   1.00
C326   C     0.83195   0.02798   0.55234   0.00000  Uiso   1.00
C327   C     0.78829   0.00725   0.75122   0.00000  Uiso   1.00
C328   C     0.92237   0.09512   0.31784   0.00000  Uiso   1.00
C329   C     0.90608   0.11626   0.22427   0.00000  Uiso   1.00
C330   C     0.91381   0.14174   0.28465   0.00000  Uiso   1.00
C331   C     0.91754   0.18684   0.32856   0.00000  Uiso   1.00
C332   C     0.96811   0.05442   0.27698   0.00000  Uiso   1.00
C333   C     0.99029   0.04135   0.14904   0.00000  Uiso   1.00
C334   C     0.03653   0.03256   0.17500   0.00000  Uiso   1.00
C335   C     0.11129   0.01447   0.15547   0.00000  Uiso   1.00
C336   C     0.96038   0.07334   0.54856   0.00000  Uiso   1.00
C337   C     0.91504   0.05688   0.56622   0.00000  Uiso   1.00
C338   C     0.89713   0.04668   0.71065   0.00000  Uiso   1.00
C339   C     0.85517   0.03215   0.70121   0.00000  Uiso   1.00
C340   C     0.94555   0.09929   0.46643   0.00000  Uiso   1.00
C341   C     0.95330   0.12474   0.52696   0.00000  Uiso   1.00
C342   C     0.93703   0.14591   0.43352   0.00000  Uiso   1.00
C343   C     0.99129   0.05859   0.42558   0.00000  Uiso   1.00
C344   C     0.03751   0.04982   0.45174   0.00000  Uiso   1.00
C345   C     0.05975   0.03673   0.32387   0.00000  Uiso   1.00
H346   H     0.89965   0.06243   0.15929   0.00000  Uiso   1.00
H347   H     0.83199   0.03498   0.29294   0.00000  Uiso   1.00
H348   H     0.88815   0.11303   0.10928   0.00000  Uiso   1.00
H349   H     0.97235   0.03813   0.03407   0.00000  Uiso   1.00
H350   H     0.76718   0.00640   0.50666   0.00000  Uiso   1.00
H351   H     0.88562   0.17097   0.11936   0.00000  Uiso   1.00
H352   H     0.06316   0.01302   0.96076   0.00000  Uiso   1.00
H353   H     0.97842   0.07658   0.66426   0.00000  Uiso   1.00
H354   H     0.91508   0.04991   0.82563   0.00000  Uiso   1.00
H355   H     0.97124   0.12795   0.64195   0.00000  Uiso   1.00
H356   H     0.05543   0.05305   0.56674   0.00000  Uiso   1.00
H357   H     0.83461   0.01851   0.93900   0.00000  Uiso   1.00
H358   H     0.95306   0.18308   0.55170   0.00000  Uiso   1.00
H359   H     0.13060   0.02513   0.39310   0.00000  Uiso   1.00
O360   O     0.75780   0.99466   0.81988   0.00000  Uiso   1.00
O361   O     0.91319   0.21057   0.31174   0.00000  Uiso   1.00
O362   O     0.14612   0.00334   0.10366   0.00000  Uiso   1.00
N363   N     0.79175   0.01291   0.58626   0.00000  Uiso   1.00
N364   N     0.90248   0.16677   0.22417   0.00000  Uiso   1.00
N365   N     0.06847   0.01910   0.07588   0.00000  Uiso   1.00
N366   N     0.82803   0.01942   0.81890   0.00000  Uiso   1.00
N367   N     0.93876   0.17328   0.45681   0.00000  Uiso   1.00
N368   N     0.10475   0.02562   0.30852   0.00000  Uiso   1.00
C369   C     0.83230   0.81567   0.52498   0.00000  Uiso   1.00
C370   C     0.85814   0.80272   0.66762   0.00000  Uiso   1.00
C371   C     0.90008   0.78820   0.65796   0.00000  Uiso   1.00
C372   C     0.91805   0.77798   0.80234   0.00000  Uiso   1.00
C373   C     0.96171   0.75725   0.00122   0.00000  Uiso   1.00
C374   C     0.82763   0.84512   0.56784   0.00000  Uiso   1.00
C375   C     0.84392   0.86626   0.47427   0.00000  Uiso   1.00
C376   C     0.83619   0.89174   0.53465   0.00000  Uiso   1.00
C377   C     0.83246   0.93684   0.57856   0.00000  Uiso   1.00
C378   C     0.78189   0.80442   0.52698   0.00000  Uiso   1.00
C379   C     0.75971   0.79135   0.39904   0.00000  Uiso   1.00
C380   C     0.71347   0.78256   0.42500   0.00000  Uiso   1.00
C381   C     0.63871   0.76447   0.40547   0.00000  Uiso   1.00
C382   C     0.78962   0.82334   0.79856   0.00000  Uiso   1.00
C383   C     0.83496   0.80688   0.81622   0.00000  Uiso   1.00
C384   C     0.85287   0.79668   0.96065   0.00000  Uiso   1.00
C385   C     0.89483   0.78215   0.95121   0.00000  Uiso   1.00
C386   C     0.80445   0.84929   0.71643   0.00000  Uiso   1.00
C387   C     0.79670   0.87474   0.77696   0.00000  Uiso   1.00
C388   C     0.81297   0.89591   0.68352   0.00000  Uiso   1.00
C389   C     0.75871   0.80859   0.67558   0.00000  Uiso   1.00
C390   C     0.71249   0.79982   0.70174   0.00000  Uiso   1.00
C391   C     0.69025   0.78673   0.57387   0.00000  Uiso   1.00
H392   H     0.85035   0.81243   0.40929   0.00000  Uiso   1.00
H393   H     0.91801   0.78498   0.54294   0.00000  Uiso   1.00
H394   H     0.86185   0.86303   0.35928   0.00000  Uiso   1.00
H395   H     0.77765   0.78813   0.28407   0.00000  Uiso   1.00
H396   H     0.98282   0.75640   0.75666   0.00000  Uiso   1.00
H397   H     0.86438   0.92097   0.36936   0.00000  Uiso   1.00
H398   H     0.68684   0.76302   0.21076   0.00000  Uiso   1.00
H399   H     0.77158   0.82658   0.91426   0.00000  Uiso   1.00
H400   H     0.83492   0.79991   0.07563   0.00000  Uiso   1.00
H401   H     0.77876   0.87795   0.89195   0.00000  Uiso   1.00
H402   H     0.69457   0.80305   0.81674   0.00000  Uiso   1.00
H403   H     0.91539   0.76851   0.18900   0.00000  Uiso   1.00
H404   H     0.79694   0.93308   0.80170   0.00000  Uiso   1.00
H405   H     0.61940   0.77513   0.64310   0.00000  Uiso   1.00
O406   O     0.99220   0.74466   0.06988   0.00000  Uiso   1.00
O407   O     0.83681   0.96057   0.56174   0.00000  Uiso   1.00
O408   O     0.60388   0.75334   0.35366   0.00000  Uiso   1.00
N409   N     0.95825   0.76291   0.83626   0.00000  Uiso   1.00
N410   N     0.84752   0.91677   0.47417   0.00000  Uiso   1.00
N411   N     0.68153   0.76910   0.32588   0.00000  Uiso   1.00
N412   N     0.92197   0.76942   0.06890   0.00000  Uiso   1.00
N413   N     0.81124   0.92328   0.70681   0.00000  Uiso   1.00
N414   N     0.64525   0.77562   0.55852   0.00000  Uiso   1.00
C415   C     0.83230   0.31567   0.02498   0.00000  Uiso   1.00
C416   C     0.85814   0.30272   0.16762   0.00000  Uiso   1.00
C417   C     0.90008   0.28820   0.15796   0.00000  Uiso   1.00
C418   C     0.91805   0.27798   0.30234   0.00000  Uiso   1.00
C419   C     0.96171   0.25725   0.50122   0.00000  Uiso   1.00
C420   C     0.82763   0.34512   0.06784   0.00000  Uiso   1.00
C421   C     0.84392   0.36626   0.97427   0.00000  Uiso   1.00
C422   C     0.83619   0.39174   0.03465   0.00000  Uiso   1.00
C423   C     0.83246   0.43684   0.07856   0.00000  Uiso   1.00
C424   C     0.78189   0.30442   0.02698   0.00000  Uiso   1.00
C425   C     0.75971   0.29135   0.89904   0.00000  Uiso   1.00
C426   C     0.71347   0.28256   0.92500   0.00000  Uiso   1.00
C427   C     0.63871   0.26447   0.90547   0.00000  Uiso   1.00
C428   C     0.78962   0.32334   0.29856   0.00000  Uiso   1.00
C429   C     0.83496   0.30688   0.31622   0.00000  Uiso   1.00
C430   C     0.85287   0.29668   0.46065   0.00000  Uiso   1.00
C431   C     0.89483   0.28215   0.45121   0.00000  Uiso   1.00
C432   C     0.80445   0.34929   0.21643   0.00000  Uiso   1.00
C433   C     0.79670   0.37474   0.27696   0.00000  Uiso   1.00
C434   C     0.81297   0.39591   0.18352   0.00000  Uiso   1.00
C435   C     0.75871   0.30859   0.17558   0.00000  Uiso   1.00
C436   C     0.71249   0.29982   0.20174   0.00000  Uiso   1.00
C437   C     0.69025   0.28673   0.07387   0.00000  Uiso   1.00
H438   H     0.85035   0.31243   0.90929   0.00000  Uiso   1.00
H439   H     0.91801   0.28498   0.04294   0.00000  Uiso   1.00
H440   H     0.86185   0.36303   0.85928   0.00000  Uiso   1.00
H441   H     0.77765   0.28813   0.78407   0.00000  Uiso   1.00
H442   H     0.98282   0.25640   0.25666   0.00000  Uiso   1.00
H443   H     0.86438   0.42097   0.86936   0.00000  Uiso   1.00
H444   H     0.68684   0.26302   0.71076   0.00000  Uiso   1.00
H445   H     0.77158   0.32658   0.41426   0.00000  Uiso   1.00
H446   H     0.83492   0.29991   0.57563   0.00000  Uiso   1.00
H447   H     0.77876   0.37795   0.39195   0.00000  Uiso   1.00
H448   H     0.69457   0.30305   0.31674   0.00000  Uiso   1.00
H449   H     0.91539   0.26851   0.68900   0.00000  Uiso   1.00
H450   H     0.79694   0.43308   0.30170   0.00000  Uiso   1.00
H451   H     0.61940   0.27513   0.14310   0.00000  Uiso   1.00
O452   O     0.99220   0.24466   0.56988   0.00000  Uiso   1.00
O453   O     0.83681   0.46057   0.06174   0.00000  Uiso   1.00
O454   O     0.60388   0.25334   0.85366   0.00000  Uiso   1.00
N455   N     0.95825   0.26291   0.33626   0.00000  Uiso   1.00
N456   N     0.84752   0.41677   0.97417   0.00000  Uiso   1.00
N457   N     0.68153   0.26910   0.82588   0.00000  Uiso   1.00
N458   N     0.92197   0.26942   0.56890   0.00000  Uiso   1.00
N459   N     0.81124   0.42328   0.20681   0.00000  Uiso   1.00
N460   N     0.64525   0.27562   0.05852   0.00000  Uiso   1.00
C461   C     0.33230   0.81567   0.02498   0.00000  Uiso   1.00
C462   C     0.35814   0.80272   0.16762   0.00000  Uiso   1.00
C463   C     0.40008   0.78820   0.15796   0.00000  Uiso   1.00
C464   C     0.41805   0.77798   0.30234   0.00000  Uiso   1.00
C465   C     0.46171   0.75725   0.50122   0.00000  Uiso   1.00
C466   C     0.32763   0.84512   0.06784   0.00000  Uiso   1.00
C467   C     0.34392   0.86626   0.97427   0.00000  Uiso   1.00
C468   C     0.33619   0.89174   0.03465   0.00000  Uiso   1.00
C469   C     0.33246   0.93684   0.07856   0.00000  Uiso   1.00
C470   C     0.28189   0.80442   0.02698   0.00000  Uiso   1.00
C471   C     0.25971   0.79135   0.89904   0.00000  Uiso   1.00
C472   C     0.21347   0.78256   0.92500   0.00000  Uiso   1.00
C473   C     0.13871   0.76447   0.90547   0.00000  Uiso   1.00
C474   C     0.28962   0.82334   0.29856   0.00000  Uiso   1.00
C475   C     0.33496   0.80688   0.31622   0.00000  Uiso   1.00
C476   C     0.35287   0.79668   0.46065   0.00000  Uiso   1.00
C477   C     0.39483   0.78215   0.45121   0.00000  Uiso   1.00
C478   C     0.30445   0.84929   0.21643   0.00000  Uiso   1.00
C479   C     0.29670   0.87474   0.27696   0.00000  Uiso   1.00
C480   C     0.31297   0.89591   0.18352   0.00000  Uiso   1.00
C481   C     0.25871   0.80859   0.17558   0.00000  Uiso   1.00
C482   C     0.21249   0.79982   0.20174   0.00000  Uiso   1.00
C483   C     0.19025   0.78673   0.07387   0.00000  Uiso   1.00
H484   H     0.35035   0.81243   0.90929   0.00000  Uiso   1.00
H485   H     0.41801   0.78498   0.04294   0.00000  Uiso   1.00
H486   H     0.36185   0.86303   0.85928   0.00000  Uiso   1.00
H487   H     0.27765   0.78813   0.78407   0.00000  Uiso   1.00
H488   H     0.48282   0.75640   0.25666   0.00000  Uiso   1.00
H489   H     0.36438   0.92097   0.86936   0.00000  Uiso   1.00
H490   H     0.18684   0.76302   0.71076   0.00000  Uiso   1.00
H491   H     0.27158   0.82658   0.41426   0.00000  Uiso   1.00
H492   H     0.33492   0.79991   0.57563   0.00000  Uiso   1.00
H493   H     0.27876   0.87795   0.39195   0.00000  Uiso   1.00
H494   H     0.19457   0.80305   0.31674   0.00000  Uiso   1.00
H495   H     0.41539   0.76851   0.68900   0.00000  Uiso   1.00
H496   H     0.29694   0.93308   0.30170   0.00000  Uiso   1.00
H497   H     0.11940   0.77513   0.14310   0.00000  Uiso   1.00
O498   O     0.49220   0.74466   0.56988   0.00000  Uiso   1.00
O499   O     0.33681   0.96057   0.06174   0.00000  Uiso   1.00
O500   O     0.10388   0.75334   0.85366   0.00000  Uiso   1.00
N501   N     0.45825   0.76291   0.33626   0.00000  Uiso   1.00
N502   N     0.34752   0.91677   0.97417   0.00000  Uiso   1.00
N503   N     0.18153   0.76910   0.82588   0.00000  Uiso   1.00
N504   N     0.42197   0.76942   0.56890   0.00000  Uiso   1.00
N505   N     0.31124   0.92328   0.20681   0.00000  Uiso   1.00
N506   N     0.14525   0.77562   0.05852   0.00000  Uiso   1.00
C507   C     0.33230   0.31567   0.52498   0.00000  Uiso   1.00
C508   C     0.35814   0.30272   0.66762   0.00000  Uiso   1.00
C509   C     0.40008   0.28820   0.65796   0.00000  Uiso   1.00
C510   C     0.41805   0.27798   0.80234   0.00000  Uiso   1.00
C511   C     0.46171   0.25725   0.00122   0.00000  Uiso   1.00
C512   C     0.32763   0.34512   0.56784   0.00000  Uiso   1.00
C513   C     0.34392   0.36626   0.47427   0.00000  Uiso   1.00
C514   C     0.33619   0.39174   0.53465   0.00000  Uiso   1.00
C515   C     0.33246   0.43684   0.57856   0.00000  Uiso   1.00
C516   C     0.28189   0.30442   0.52698   0.00000  Uiso   1.00
C517   C     0.25971   0.29135   0.39904   0.00000  Uiso   1.00
C518   C     0.21347   0.28256   0.42500   0.00000  Uiso   1.00
C519   C     0.13871   0.26447   0.40547   0.00000  Uiso   1.00
C520   C     0.28962   0.32334   0.79856   0.00000  Uiso   1.00
C521   C     0.33496   0.30688   0.81622   0.00000  Uiso   1.00
C522   C     0.35287   0.29668   0.96065   0.00000  Uiso   1.00
C523   C     0.39483   0.28215   0.95121   0.00000  Uiso   1.00
C524   C     0.30445   0.34929   0.71643   0.00000  Uiso   1.00
C525   C     0.29670   0.37474   0.77696   0.00000  Uiso   1.00
C526   C     0.31297   0.39591   0.68352   0.00000  Uiso   1.00
C527   C     0.25871   0.30859   0.67558   0.00000  Uiso   1.00
C528   C     0.21249   0.29982   0.70174   0.00000  Uiso   1.00
C529   C     0.19025   0.28673   0.57387   0.00000  Uiso   1.00
H530   H     0.35035   0.31243   0.40929   0.00000  Uiso   1.00
H531   H     0.41801   0.28498   0.54294   0.00000  Uiso   1.00
H532   H     0.36185   0.36303   0.35928   0.00000  Uiso   1.00
H533   H     0.27765   0.28813   0.28407   0.00000  Uiso   1.00
H534   H     0.48282   0.25640   0.75666   0.00000  Uiso   1.00
H535   H     0.36438   0.42097   0.36936   0.00000  Uiso   1.00
H536   H     0.18684   0.26302   0.21076   0.00000  Uiso   1.00
H537   H     0.27158   0.32658   0.91426   0.00000  Uiso   1.00
H538   H     0.33492   0.29991   0.07563   0.00000  Uiso   1.00
H539   H     0.27876   0.37795   0.89195   0.00000  Uiso   1.00
H540   H     0.19457   0.30305   0.81674   0.00000  Uiso   1.00
H541   H     0.41539   0.26851   0.18900   0.00000  Uiso   1.00
H542   H     0.29694   0.43308   0.80170   0.00000  Uiso   1.00
H543   H     0.11940   0.27513   0.64310   0.00000  Uiso   1.00
O544   O     0.49220   0.24466   0.06988   0.00000  Uiso   1.00
O545   O     0.33681   0.46057   0.56174   0.00000  Uiso   1.00
O546   O     0.10388   0.25334   0.35366   0.00000  Uiso   1.00
N547   N     0.45825   0.26291   0.83626   0.00000  Uiso   1.00
N548   N     0.34752   0.41677   0.47417   0.00000  Uiso   1.00
N549   N     0.18153   0.26910   0.32588   0.00000  Uiso   1.00
N550   N     0.42197   0.26942   0.06890   0.00000  Uiso   1.00
N551   N     0.31124   0.42328   0.70681   0.00000  Uiso   1.00
N552   N     0.14525   0.27562   0.55852   0.00000  Uiso   1.00
C553   C     0.66770   0.68433   0.52498   0.00000  Uiso   1.00
C554   C     0.64186   0.69728   0.66762   0.00000  Uiso   1.00
C555   C     0.59992   0.71180   0.65796   0.00000  Uiso   1.00
C556   C     0.58195   0.72202   0.80234   0.00000  Uiso   1.00
C557   C     0.53829   0.74275   0.00122   0.00000  Uiso   1.00
C558   C     0.67237   0.65488   0.56784   0.00000  Uiso   1.00
C559   C     0.65608   0.63374   0.47427   0.00000  Uiso   1.00
C560   C     0.66381   0.60826   0.53465   0.00000  Uiso   1.00
C561   C     0.66754   0.56316   0.57856   0.00000  Uiso   1.00
C562   C     0.71811   0.69558   0.52698   0.00000  Uiso   1.00
C563   C     0.74029   0.70865   0.39904   0.00000  Uiso   1.00
C564   C     0.78653   0.71744   0.42500   0.00000  Uiso   1.00
C565   C     0.86129   0.73553   0.40547   0.00000  Uiso   1.00
C566   C     0.71038   0.67666   0.79856   0.00000  Uiso   1.00
C567   C     0.66504   0.69312   0.81622   0.00000  Uiso   1.00
C568   C     0.64713   0.70332   0.96065   0.00000  Uiso   1.00
C569   C     0.60517   0.71785   0.95121   0.00000  Uiso   1.00
C570   C     0.69555   0.65071   0.71643   0.00000  Uiso   1.00
C571   C     0.70330   0.62526   0.77696   0.00000  Uiso   1.00
C572   C     0.68703   0.60409   0.68352   0.00000  Uiso   1.00
C573   C     0.74129   0.69141   0.67558   0.00000  Uiso   1.00
C574   C     0.78751   0.70018   0.70174   0.00000  Uiso   1.00
C575   C     0.80975   0.71327   0.57387   0.00000  Uiso   1.00
H576   H     0.64965   0.68757   0.40929   0.00000  Uiso   1.00
H577   H     0.58199   0.71502   0.54294   0.00000  Uiso   1.00
H578   H     0.63815   0.63697   0.35928   0.00000  Uiso   1.00
H579   H     0.72235   0.71187   0.28407   0.00000  Uiso   1.00
H580   H     0.51718   0.74360   0.75666   0.00000  Uiso   1.00
H581   H     0.63562   0.57903   0.36936   0.00000  Uiso   1.00
H582   H     0.81316   0.73698   0.21076   0.00000  Uiso   1.00
H583   H     0.72842   0.67342   0.91426   0.00000  Uiso   1.00
H584   H     0.66508   0.70009   0.07563   0.00000  Uiso   1.00
H585   H     0.72124   0.62205   0.89195   0.00000  Uiso   1.00
H586   H     0.80543   0.69695   0.81674   0.00000  Uiso   1.00
H587   H     0.58461   0.73149   0.18900   0.00000  Uiso   1.00
H588   H     0.70306   0.56692   0.80170   0.00000  Uiso   1.00
H589   H     0.88060   0.72487   0.64310   0.00000  Uiso   1.00
O590   O     0.50780   0.75534   0.06988   0.00000  Uiso   1.00
O591   O     0.66319   0.53943   0.56174   0.00000  Uiso   1.00
O592   O     0.89612   0.74666   0.35366   0.00000  Uiso   1.00
N593   N     0.54175   0.73709   0.83626   0.00000  Uiso   1.00
N594   N     0.65248   0.58323   0.47417   0.00000  Uiso   1.00
N595   N     0.81847   0.73090   0.32588   0.00000  Uiso   1.00
N596   N     0.57803   0.73058   0.06890   0.00000  Uiso   1.00
N597   N     0.68876   0.57672   0.70681   0.00000  Uiso   1.00
N598   N     0.85475   0.72438   0.55852   0.00000  Uiso   1.00
C599   C     0.66770   0.18433   0.02498   0.00000  Uiso   1.00
C600   C     0.64186   0.19728   0.16762   0.00000  Uiso   1.00
C601   C     0.59992   0.21180   0.15796   0.00000  Uiso   1.00
C602   C     0.58195   0.22202   0.30234   0.00000  Uiso   1.00
C603   C     0.53829   0.24275   0.50122   0.00000  Uiso   1.00
C604   C     0.67237   0.15488   0.06784   0.00000  Uiso   1.00
C605   C     0.65608   0.13374   0.97427   0.00000  Uiso   1.00
C606   C     0.66381   0.10826   0.03465   0.00000  Uiso   1.00
C607   C     0.66754   0.06316   0.07856   0.00000  Uiso   1.00
C608   C     0.71811   0.19558   0.02698   0.00000  Uiso   1.00
C609   C     0.74029   0.20865   0.89904   0.00000  Uiso   1.00
C610   C     0.78653   0.21744   0.92500   0.00000  Uiso   1.00
C611   C     0.86129   0.23553   0.90547   0.00000  Uiso   1.00
C612   C     0.71038   0.17666   0.29856   0.00000  Uiso   1.00
C613   C     0.66504   0.19312   0.31622   0.00000  Uiso   1.00
C614   C     0.64713   0.20332   0.46065   0.00000  Uiso   1.00
C615   C     0.60517   0.21785   0.45121   0.00000  Uiso   1.00
C616   C     0.69555   0.15071   0.21643   0.00000  Uiso   1.00
C617   C     0.70330   0.12526   0.27696   0.00000  Uiso   1.00
C618   C     0.68703   0.10409   0.18352   0.00000  Uiso   1.00
C619   C     0.74129   0.19141   0.17558   0.00000  Uiso   1.00
C620   C     0.78751   0.20018   0.20174   0.00000  Uiso   1.00
C621   C     0.80975   0.21327   0.07387   0.00000  Uiso   1.00
H622   H     0.64965   0.18757   0.90929   0.00000  Uiso   1.00
H623   H     0.58199   0.21502   0.04294   0.00000  Uiso   1.00
H624   H     0.63815   0.13697   0.85928   0.00000  Uiso   1.00
H625   H     0.72235   0.21187   0.78407   0.00000  Uiso   1.00
H626   H     0.51718   0.24360   0.25666   0.00000  Uiso   1.00
H627   H     0.63562   0.07903   0.86936   0.00000  Uiso   1.00
H628   H     0.81316   0.23698   0.71076   0.00000  Uiso   1.00
H629   H     0.72842   0.17342   0.41426   0.00000  Uiso   1.00
H630   H     0.66508   0.20009   0.57563   0.00000  Uiso   1.00
H631   H     0.72124   0.12205   0.39195   0.00000  Uiso   1.00
H632   H     0.80543   0.19695   0.31674   0.00000  Uiso   1.00
H633   H     0.58461   0.23149   0.68900   0.00000  Uiso   1.00
H634   H     0.70306   0.06692   0.30170   0.00000  Uiso   1.00
H635   H     0.88060   0.22487   0.14310   0.00000  Uiso   1.00
O636   O     0.50780   0.25534   0.56988   0.00000  Uiso   1.00
O637   O     0.66319   0.03943   0.06174   0.00000  Uiso   1.00
O638   O     0.89612   0.24666   0.85366   0.00000  Uiso   1.00
N639   N     0.54175   0.23709   0.33626   0.00000  Uiso   1.00
N640   N     0.65248   0.08323   0.97417   0.00000  Uiso   1.00
N641   N     0.81847   0.23090   0.82588   0.00000  Uiso   1.00
N642   N     0.57803   0.23058   0.56890   0.00000  Uiso   1.00
N643   N     0.68876   0.07672   0.20681   0.00000  Uiso   1.00
N644   N     0.85475   0.22438   0.05852   0.00000  Uiso   1.00
C645   C     0.16770   0.68433   0.02498   0.00000  Uiso   1.00
C646   C     0.14186   0.69728   0.16762   0.00000  Uiso   1.00
C647   C     0.09992   0.71180   0.15796   0.00000  Uiso   1.00
C648   C     0.08195   0.72202   0.30234   0.00000  Uiso   1.00
C649   C     0.03829   0.74275   0.50122   0.00000  Uiso   1.00
C650   C     0.17237   0.65488   0.06784   0.00000  Uiso   1.00
C651   C     0.15608   0.63374   0.97427   0.00000  Uiso   1.00
C652   C     0.16381   0.60826   0.03465   0.00000  Uiso   1.00
C653   C     0.16754   0.56316   0.07856   0.00000  Uiso   1.00
C654   C     0.21811   0.69558   0.02698   0.00000  Uiso   1.00
C655   C     0.24029   0.70865   0.89904   0.00000  Uiso   1.00
C656   C     0.28653   0.71744   0.92500   0.00000  Uiso   1.00
C657   C     0.36129   0.73553   0.90547   0.00000  Uiso   1.00
C658   C     0.21038   0.67666   0.29856   0.00000  Uiso   1.00
C659   C     0.16504   0.69312   0.31622   0.00000  Uiso   1.00
C660   C     0.14713   0.70332   0.46065   0.00000  Uiso   1.00
C661   C     0.10517   0.71785   0.45121   0.00000  Uiso   1.00
C662   C     0.19555   0.65071   0.21643   0.00000  Uiso   1.00
C663   C     0.20330   0.62526   0.27696   0.00000  Uiso   1.00
C664   C     0.18703   0.60409   0.18352   0.00000  Uiso   1.00
C665   C     0.24129   0.69141   0.17558   0.00000  Uiso   1.00
C666   C     0.28751   0.70018   0.20174   0.00000  Uiso   1.00
C667   C     0.30975   0.71327   0.07387   0.00000  Uiso   1.00
H668   H     0.14965   0.68757   0.90929   0.00000  Uiso   1.00
H669   H     0.08199   0.71502   0.04294   0.00000  Uiso   1.00
H670   H     0.13815   0.63697   0.85928   0.00000  Uiso   1.00
H671   H     0.22235   0.71187   0.78407   0.00000  Uiso   1.00
H672   H     0.01718   0.74360   0.25666   0.00000  Uiso   1.00
H673   H     0.13562   0.57903   0.86936   0.00000  Uiso   1.00
H674   H     0.31316   0.73698   0.71076   0.00000  Uiso   1.00
H675   H     0.22842   0.67342   0.41426   0.00000  Uiso   1.00
H676   H     0.16508   0.70009   0.57563   0.00000  Uiso   1.00
H677   H     0.22124   0.62205   0.39195   0.00000  Uiso   1.00
H678   H     0.30543   0.69695   0.31674   0.00000  Uiso   1.00
H679   H     0.08461   0.73149   0.68900   0.00000  Uiso   1.00
H680   H     0.20306   0.56692   0.30170   0.00000  Uiso   1.00
H681   H     0.38060   0.72487   0.14310   0.00000  Uiso   1.00
O682   O     0.00780   0.75534   0.56988   0.00000  Uiso   1.00
O683   O     0.16319   0.53943   0.06174   0.00000  Uiso   1.00
O684   O     0.39612   0.74666   0.85366   0.00000  Uiso   1.00
N685   N     0.04175   0.73709   0.33626   0.00000  Uiso   1.00
N686   N     0.15248   0.58323   0.97417   0.00000  Uiso   1.00
N687   N     0.31847   0.73090   0.82588   0.00000  Uiso   1.00
N688   N     0.07803   0.73058   0.56890   0.00000  Uiso   1.00
N689   N     0.18876   0.57672   0.20681   0.00000  Uiso   1.00
N690   N     0.35475   0.72438   0.05852   0.00000  Uiso   1.00
C691   C     0.16770   0.18433   0.52498   0.00000  Uiso   1.00
C692   C     0.14186   0.19728   0.66762   0.00000  Uiso   1.00
C693   C     0.09992   0.21180   0.65796   0.00000  Uiso   1.00
C694   C     0.08195   0.22202   0.80234   0.00000  Uiso   1.00
C695   C     0.03829   0.24275   0.00122   0.00000  Uiso   1.00
C696   C     0.17237   0.15488   0.56784   0.00000  Uiso   1.00
C697   C     0.15608   0.13374   0.47427   0.00000  Uiso   1.00
C698   C     0.16381   0.10826   0.53465   0.00000  Uiso   1.00
C699   C     0.16754   0.06316   0.57856   0.00000  Uiso   1.00
C700   C     0.21811   0.19558   0.52698   0.00000  Uiso   1.00
C701   C     0.24029   0.20865   0.39904   0.00000  Uiso   1.00
C702   C     0.28653   0.21744   0.42500   0.00000  Uiso   1.00
C703   C     0.36129   0.23553   0.40547   0.00000  Uiso   1.00
C704   C     0.21038   0.17666   0.79856   0.00000  Uiso   1.00
C705   C     0.16504   0.19312   0.81622   0.00000  Uiso   1.00
C706   C     0.14713   0.20332   0.96065   0.00000  Uiso   1.00
C707   C     0.10517   0.21785   0.95121   0.00000  Uiso   1.00
C708   C     0.19555   0.15071   0.71643   0.00000  Uiso   1.00
C709   C     0.20330   0.12526   0.77696   0.00000  Uiso   1.00
C710   C     0.18703   0.10409   0.68352   0.00000  Uiso   1.00
C711   C     0.24129   0.19141   0.67558   0.00000  Uiso   1.00
C712   C     0.28751   0.20018   0.70174   0.00000  Uiso   1.00
C713   C     0.30975   0.21327   0.57387   0.00000  Uiso   1.00
H714   H     0.14965   0.18757   0.40929   0.00000  Uiso   1.00
H715   H     0.08199   0.21502   0.54294   0.00000  Uiso   1.00
H716   H     0.13815   0.13697   0.35928   0.00000  Uiso   1.00
H717   H     0.22235   0.21187   0.28407   0.00000  Uiso   1.00
H718   H     0.01718   0.24360   0.75666   0.00000  Uiso   1.00
H719   H     0.13562   0.07903   0.36936   0.00000  Uiso   1.00
H720   H     0.31316   0.23698   0.21076   0.00000  Uiso   1.00
H721   H     0.22842   0.17342   0.91426   0.00000  Uiso   1.00
H722   H     0.16508   0.20009   0.07563   0.00000  Uiso   1.00
H723   H     0.22124   0.12205   0.89195   0.00000  Uiso   1.00
H724   H     0.30543   0.19695   0.81674   0.00000  Uiso   1.00
H725   H     0.08461   0.23149   0.18900   0.00000  Uiso   1.00
H726   H     0.20306   0.06692   0.80170   0.00000  Uiso   1.00
H727   H     0.38060   0.22487   0.64310   0.00000  Uiso   1.00
O728   O     0.00780   0.25534   0.06988   0.00000  Uiso   1.00
O729   O     0.16319   0.03943   0.56174   0.00000  Uiso   1.00
O730   O     0.39612   0.24666   0.35366   0.00000  Uiso   1.00
N731   N     0.04175   0.23709   0.83626   0.00000  Uiso   1.00
N732   N     0.15248   0.08323   0.47417   0.00000  Uiso   1.00
N733   N     0.31847   0.23090   0.32588   0.00000  Uiso   1.00
N734   N     0.07803   0.23058   0.06890   0.00000  Uiso   1.00
N735   N     0.18876   0.07672   0.70681   0.00000  Uiso   1.00
N736   N     0.35475   0.22438   0.55852   0.00000  Uiso   1.00
