data_job_05745
_audit_creation_date              2018-12-19
_audit_creation_method            'Materials Studio'
_symmetry_space_group_name_H-M    'P1'
_symmetry_Int_Tables_number       1
_symmetry_cell_setting            triclinic
loop_
_symmetry_equiv_pos_as_xyz
  x,y,z
_cell_length_a                    21.9545
_cell_length_b                    42.4298
_cell_length_c                    12.5913
_cell_angle_alpha                 90.0000
_cell_angle_beta                  90.0000
_cell_angle_gamma                 90.0000
loop_
_atom_site_label
_atom_site_type_symbol
_atom_site_fract_x
_atom_site_fract_y
_atom_site_fract_z
_atom_site_U_iso_or_equiv
_atom_site_adp_type
_atom_site_occupancy
C1     C     0.66720   0.77667   0.50831   0.00000  Uiso   1.00
C2     C     0.65267   0.80356   0.43205   0.00000  Uiso   1.00
C3     C     0.68583   0.81140   0.34202   0.00000  Uiso   1.00
C4     C     0.66509   0.83681   0.28269   0.00000  Uiso   1.00
C5     C     0.65046   0.87600   0.15978   0.00000  Uiso   1.00
C6     C     0.67310   0.79164   0.61794   0.00000  Uiso   1.00
C7     C     0.72344   0.78945   0.68420   0.00000  Uiso   1.00
C8     C     0.71991   0.80482   0.78135   0.00000  Uiso   1.00
C9     C     0.73698   0.82548   0.94707   0.00000  Uiso   1.00
C10    C     0.61019   0.75618   0.51245   0.00000  Uiso   1.00
C11    C     0.60762   0.72418   0.49005   0.00000  Uiso   1.00
C12    C     0.55112   0.70970   0.49842   0.00000  Uiso   1.00
C13    C     0.47051   0.67531   0.50037   0.00000  Uiso   1.00
C14    C     0.57141   0.80785   0.56304   0.00000  Uiso   1.00
C15    C     0.60064   0.82049   0.46178   0.00000  Uiso   1.00
C16    C     0.57984   0.84589   0.40257   0.00000  Uiso   1.00
C17    C     0.61297   0.85377   0.31246   0.00000  Uiso   1.00
C18    C     0.62107   0.80857   0.64766   0.00000  Uiso   1.00
C19    C     0.61746   0.82394   0.74474   0.00000  Uiso   1.00
C20    C     0.66778   0.82178   0.81113   0.00000  Uiso   1.00
C21    C     0.55815   0.77311   0.54218   0.00000  Uiso   1.00
C22    C     0.50164   0.75868   0.55060   0.00000  Uiso   1.00
C23    C     0.49899   0.72666   0.52821   0.00000  Uiso   1.00
H24    H     0.70771   0.76349   0.48517   0.00000  Uiso   1.00
H25    H     0.72610   0.79829   0.31904   0.00000  Uiso   1.00
H26    H     0.76370   0.77634   0.66117   0.00000  Uiso   1.00
H27    H     0.64790   0.71109   0.46705   0.00000  Uiso   1.00
H28    H     0.72355   0.84436   0.14799   0.00000  Uiso   1.00
H29    H     0.80283   0.79806   0.86940   0.00000  Uiso   1.00
H30    H     0.55864   0.66046   0.46007   0.00000  Uiso   1.00
H31    H     0.53090   0.82103   0.58618   0.00000  Uiso   1.00
H32    H     0.53958   0.85899   0.42559   0.00000  Uiso   1.00
H33    H     0.57719   0.83704   0.76772   0.00000  Uiso   1.00
H34    H     0.46138   0.77179   0.57360   0.00000  Uiso   1.00
H35    H     0.57216   0.89363   0.23447   0.00000  Uiso   1.00
H36    H     0.65145   0.84733   0.95589   0.00000  Uiso   1.00
H37    H     0.40726   0.70973   0.54655   0.00000  Uiso   1.00
O38    O     0.65677   0.89294   0.08379   0.00000  Uiso   1.00
O39    O     0.76078   0.83219   0.03026   0.00000  Uiso   1.00
O40    O     0.44041   0.65166   0.49321   0.00000  Uiso   1.00
N41    N     0.68672   0.85074   0.19037   0.00000  Uiso   1.00
N42    N     0.76085   0.80746   0.86484   0.00000  Uiso   1.00
N43    N     0.53256   0.67881   0.48217   0.00000  Uiso   1.00
N44    N     0.60526   0.87725   0.23690   0.00000  Uiso   1.00
N45    N     0.67939   0.83397   0.91138   0.00000  Uiso   1.00
N46    N     0.45110   0.70532   0.52871   0.00000  Uiso   1.00
C47    C     0.66720   0.27667   0.00831   0.00000  Uiso   1.00
C48    C     0.65267   0.30356   0.93205   0.00000  Uiso   1.00
C49    C     0.68583   0.31140   0.84202   0.00000  Uiso   1.00
C50    C     0.66509   0.33681   0.78269   0.00000  Uiso   1.00
C51    C     0.65046   0.37600   0.65978   0.00000  Uiso   1.00
C52    C     0.67310   0.29164   0.11794   0.00000  Uiso   1.00
C53    C     0.72344   0.28945   0.18420   0.00000  Uiso   1.00
C54    C     0.71991   0.30482   0.28135   0.00000  Uiso   1.00
C55    C     0.73698   0.32548   0.44707   0.00000  Uiso   1.00
C56    C     0.61019   0.25618   0.01245   0.00000  Uiso   1.00
C57    C     0.60762   0.22418   0.99005   0.00000  Uiso   1.00
C58    C     0.55112   0.20970   0.99842   0.00000  Uiso   1.00
C59    C     0.47051   0.17531   0.00037   0.00000  Uiso   1.00
C60    C     0.57141   0.30785   0.06304   0.00000  Uiso   1.00
C61    C     0.60064   0.32049   0.96178   0.00000  Uiso   1.00
C62    C     0.57984   0.34589   0.90257   0.00000  Uiso   1.00
C63    C     0.61297   0.35377   0.81246   0.00000  Uiso   1.00
C64    C     0.62107   0.30857   0.14766   0.00000  Uiso   1.00
C65    C     0.61746   0.32394   0.24474   0.00000  Uiso   1.00
C66    C     0.66778   0.32178   0.31113   0.00000  Uiso   1.00
C67    C     0.55815   0.27311   0.04218   0.00000  Uiso   1.00
C68    C     0.50164   0.25868   0.05060   0.00000  Uiso   1.00
C69    C     0.49899   0.22666   0.02821   0.00000  Uiso   1.00
H70    H     0.70771   0.26349   0.98517   0.00000  Uiso   1.00
H71    H     0.72610   0.29829   0.81904   0.00000  Uiso   1.00
H72    H     0.76370   0.27634   0.16117   0.00000  Uiso   1.00
H73    H     0.64790   0.21109   0.96705   0.00000  Uiso   1.00
H74    H     0.72355   0.34436   0.64799   0.00000  Uiso   1.00
H75    H     0.80283   0.29806   0.36940   0.00000  Uiso   1.00
H76    H     0.55864   0.16046   0.96007   0.00000  Uiso   1.00
H77    H     0.53090   0.32103   0.08618   0.00000  Uiso   1.00
H78    H     0.53958   0.35899   0.92559   0.00000  Uiso   1.00
H79    H     0.57719   0.33704   0.26772   0.00000  Uiso   1.00
H80    H     0.46138   0.27179   0.07360   0.00000  Uiso   1.00
H81    H     0.57216   0.39363   0.73447   0.00000  Uiso   1.00
H82    H     0.65145   0.34733   0.45589   0.00000  Uiso   1.00
H83    H     0.40726   0.20973   0.04655   0.00000  Uiso   1.00
O84    O     0.65677   0.39294   0.58379   0.00000  Uiso   1.00
O85    O     0.76078   0.33219   0.53026   0.00000  Uiso   1.00
O86    O     0.44041   0.15166   0.99321   0.00000  Uiso   1.00
N87    N     0.68672   0.35074   0.69037   0.00000  Uiso   1.00
N88    N     0.76085   0.30746   0.36484   0.00000  Uiso   1.00
N89    N     0.53256   0.17881   0.98217   0.00000  Uiso   1.00
N90    N     0.60526   0.37725   0.73690   0.00000  Uiso   1.00
N91    N     0.67939   0.33397   0.41138   0.00000  Uiso   1.00
N92    N     0.45110   0.20532   0.02871   0.00000  Uiso   1.00
C93    C     0.16720   0.77667   0.00831   0.00000  Uiso   1.00
C94    C     0.15267   0.80356   0.93205   0.00000  Uiso   1.00
C95    C     0.18583   0.81140   0.84202   0.00000  Uiso   1.00
C96    C     0.16509   0.83681   0.78269   0.00000  Uiso   1.00
C97    C     0.15046   0.87600   0.65978   0.00000  Uiso   1.00
C98    C     0.17310   0.79164   0.11794   0.00000  Uiso   1.00
C99    C     0.22344   0.78945   0.18420   0.00000  Uiso   1.00
C100   C     0.21991   0.80482   0.28135   0.00000  Uiso   1.00
C101   C     0.23698   0.82548   0.44707   0.00000  Uiso   1.00
C102   C     0.11019   0.75618   0.01245   0.00000  Uiso   1.00
C103   C     0.10762   0.72418   0.99005   0.00000  Uiso   1.00
C104   C     0.05112   0.70970   0.99842   0.00000  Uiso   1.00
C105   C     0.97051   0.67531   0.00037   0.00000  Uiso   1.00
C106   C     0.07141   0.80785   0.06304   0.00000  Uiso   1.00
C107   C     0.10064   0.82049   0.96178   0.00000  Uiso   1.00
C108   C     0.07984   0.84589   0.90257   0.00000  Uiso   1.00
C109   C     0.11297   0.85377   0.81246   0.00000  Uiso   1.00
C110   C     0.12107   0.80857   0.14766   0.00000  Uiso   1.00
C111   C     0.11746   0.82394   0.24474   0.00000  Uiso   1.00
C112   C     0.16778   0.82178   0.31113   0.00000  Uiso   1.00
C113   C     0.05815   0.77311   0.04218   0.00000  Uiso   1.00
C114   C     0.00164   0.75868   0.05060   0.00000  Uiso   1.00
C115   C     0.99899   0.72666   0.02821   0.00000  Uiso   1.00
H116   H     0.20771   0.76349   0.98517   0.00000  Uiso   1.00
H117   H     0.22610   0.79829   0.81904   0.00000  Uiso   1.00
H118   H     0.26370   0.77634   0.16117   0.00000  Uiso   1.00
H119   H     0.14790   0.71109   0.96705   0.00000  Uiso   1.00
H120   H     0.22355   0.84436   0.64799   0.00000  Uiso   1.00
H121   H     0.30283   0.79806   0.36940   0.00000  Uiso   1.00
H122   H     0.05864   0.66046   0.96007   0.00000  Uiso   1.00
H123   H     0.03090   0.82103   0.08618   0.00000  Uiso   1.00
H124   H     0.03958   0.85899   0.92559   0.00000  Uiso   1.00
H125   H     0.07719   0.83704   0.26772   0.00000  Uiso   1.00
H126   H     0.96138   0.77179   0.07360   0.00000  Uiso   1.00
H127   H     0.07216   0.89363   0.73447   0.00000  Uiso   1.00
H128   H     0.15145   0.84733   0.45589   0.00000  Uiso   1.00
H129   H     0.90726   0.70973   0.04655   0.00000  Uiso   1.00
O130   O     0.15677   0.89294   0.58379   0.00000  Uiso   1.00
O131   O     0.26078   0.83219   0.53026   0.00000  Uiso   1.00
O132   O     0.94041   0.65166   0.99321   0.00000  Uiso   1.00
N133   N     0.18672   0.85074   0.69037   0.00000  Uiso   1.00
N134   N     0.26085   0.80746   0.36484   0.00000  Uiso   1.00
N135   N     0.03256   0.67881   0.98217   0.00000  Uiso   1.00
N136   N     0.10526   0.87725   0.73690   0.00000  Uiso   1.00
N137   N     0.17939   0.83397   0.41138   0.00000  Uiso   1.00
N138   N     0.95110   0.70532   0.02871   0.00000  Uiso   1.00
C139   C     0.16720   0.27667   0.50831   0.00000  Uiso   1.00
C140   C     0.15267   0.30356   0.43205   0.00000  Uiso   1.00
C141   C     0.18583   0.31140   0.34202   0.00000  Uiso   1.00
C142   C     0.16509   0.33681   0.28269   0.00000  Uiso   1.00
C143   C     0.15046   0.37600   0.15978   0.00000  Uiso   1.00
C144   C     0.17310   0.29164   0.61794   0.00000  Uiso   1.00
C145   C     0.22344   0.28945   0.68420   0.00000  Uiso   1.00
C146   C     0.21991   0.30482   0.78135   0.00000  Uiso   1.00
C147   C     0.23698   0.32548   0.94707   0.00000  Uiso   1.00
C148   C     0.11019   0.25618   0.51245   0.00000  Uiso   1.00
C149   C     0.10762   0.22418   0.49005   0.00000  Uiso   1.00
C150   C     0.05112   0.20970   0.49842   0.00000  Uiso   1.00
C151   C     0.97051   0.17531   0.50037   0.00000  Uiso   1.00
C152   C     0.07141   0.30785   0.56304   0.00000  Uiso   1.00
C153   C     0.10064   0.32049   0.46178   0.00000  Uiso   1.00
C154   C     0.07984   0.34589   0.40257   0.00000  Uiso   1.00
C155   C     0.11297   0.35377   0.31246   0.00000  Uiso   1.00
C156   C     0.12107   0.30857   0.64766   0.00000  Uiso   1.00
C157   C     0.11746   0.32394   0.74474   0.00000  Uiso   1.00
C158   C     0.16778   0.32178   0.81113   0.00000  Uiso   1.00
C159   C     0.05815   0.27311   0.54218   0.00000  Uiso   1.00
C160   C     0.00164   0.25868   0.55060   0.00000  Uiso   1.00
C161   C     0.99899   0.22666   0.52821   0.00000  Uiso   1.00
H162   H     0.20771   0.26349   0.48517   0.00000  Uiso   1.00
H163   H     0.22610   0.29829   0.31904   0.00000  Uiso   1.00
H164   H     0.26370   0.27634   0.66117   0.00000  Uiso   1.00
H165   H     0.14790   0.21109   0.46705   0.00000  Uiso   1.00
H166   H     0.22355   0.34436   0.14799   0.00000  Uiso   1.00
H167   H     0.30283   0.29806   0.86940   0.00000  Uiso   1.00
H168   H     0.05864   0.16046   0.46007   0.00000  Uiso   1.00
H169   H     0.03090   0.32103   0.58618   0.00000  Uiso   1.00
H170   H     0.03958   0.35899   0.42559   0.00000  Uiso   1.00
H171   H     0.07719   0.33704   0.76772   0.00000  Uiso   1.00
H172   H     0.96138   0.27179   0.57360   0.00000  Uiso   1.00
H173   H     0.07216   0.39363   0.23447   0.00000  Uiso   1.00
H174   H     0.15145   0.34733   0.95589   0.00000  Uiso   1.00
H175   H     0.90726   0.20973   0.54655   0.00000  Uiso   1.00
O176   O     0.15677   0.39294   0.08379   0.00000  Uiso   1.00
O177   O     0.26078   0.33219   0.03026   0.00000  Uiso   1.00
O178   O     0.94041   0.15166   0.49321   0.00000  Uiso   1.00
N179   N     0.18672   0.35074   0.19037   0.00000  Uiso   1.00
N180   N     0.26085   0.30746   0.86484   0.00000  Uiso   1.00
N181   N     0.03256   0.17881   0.48217   0.00000  Uiso   1.00
N182   N     0.10526   0.37725   0.23690   0.00000  Uiso   1.00
N183   N     0.17939   0.33397   0.91138   0.00000  Uiso   1.00
N184   N     0.95110   0.20532   0.52871   0.00000  Uiso   1.00
C185   C     0.33280   0.22333   0.50831   0.00000  Uiso   1.00
C186   C     0.34733   0.19644   0.43205   0.00000  Uiso   1.00
C187   C     0.31417   0.18860   0.34202   0.00000  Uiso   1.00
C188   C     0.33491   0.16319   0.28269   0.00000  Uiso   1.00
C189   C     0.34954   0.12400   0.15978   0.00000  Uiso   1.00
C190   C     0.32690   0.20836   0.61794   0.00000  Uiso   1.00
C191   C     0.27656   0.21055   0.68420   0.00000  Uiso   1.00
C192   C     0.28009   0.19518   0.78135   0.00000  Uiso   1.00
C193   C     0.26302   0.17452   0.94707   0.00000  Uiso   1.00
C194   C     0.38981   0.24382   0.51245   0.00000  Uiso   1.00
C195   C     0.39238   0.27582   0.49005   0.00000  Uiso   1.00
C196   C     0.44888   0.29030   0.49842   0.00000  Uiso   1.00
C197   C     0.52949   0.32469   0.50037   0.00000  Uiso   1.00
C198   C     0.42859   0.19215   0.56304   0.00000  Uiso   1.00
C199   C     0.39936   0.17951   0.46178   0.00000  Uiso   1.00
C200   C     0.42016   0.15411   0.40257   0.00000  Uiso   1.00
C201   C     0.38703   0.14623   0.31246   0.00000  Uiso   1.00
C202   C     0.37893   0.19143   0.64766   0.00000  Uiso   1.00
C203   C     0.38254   0.17606   0.74474   0.00000  Uiso   1.00
C204   C     0.33222   0.17822   0.81113   0.00000  Uiso   1.00
C205   C     0.44185   0.22689   0.54218   0.00000  Uiso   1.00
C206   C     0.49836   0.24132   0.55060   0.00000  Uiso   1.00
C207   C     0.50101   0.27334   0.52821   0.00000  Uiso   1.00
H208   H     0.29229   0.23651   0.48517   0.00000  Uiso   1.00
H209   H     0.27390   0.20171   0.31904   0.00000  Uiso   1.00
H210   H     0.23630   0.22366   0.66117   0.00000  Uiso   1.00
H211   H     0.35210   0.28891   0.46705   0.00000  Uiso   1.00
H212   H     0.27645   0.15564   0.14799   0.00000  Uiso   1.00
H213   H     0.19717   0.20194   0.86940   0.00000  Uiso   1.00
H214   H     0.44136   0.33954   0.46007   0.00000  Uiso   1.00
H215   H     0.46910   0.17897   0.58618   0.00000  Uiso   1.00
H216   H     0.46042   0.14101   0.42559   0.00000  Uiso   1.00
H217   H     0.42281   0.16296   0.76772   0.00000  Uiso   1.00
H218   H     0.53862   0.22821   0.57360   0.00000  Uiso   1.00
H219   H     0.42784   0.10637   0.23447   0.00000  Uiso   1.00
H220   H     0.34855   0.15267   0.95589   0.00000  Uiso   1.00
H221   H     0.59274   0.29027   0.54655   0.00000  Uiso   1.00
O222   O     0.34323   0.10706   0.08379   0.00000  Uiso   1.00
O223   O     0.23922   0.16781   0.03026   0.00000  Uiso   1.00
O224   O     0.55959   0.34834   0.49321   0.00000  Uiso   1.00
N225   N     0.31328   0.14926   0.19037   0.00000  Uiso   1.00
N226   N     0.23915   0.19254   0.86484   0.00000  Uiso   1.00
N227   N     0.46744   0.32119   0.48217   0.00000  Uiso   1.00
N228   N     0.39474   0.12275   0.23690   0.00000  Uiso   1.00
N229   N     0.32061   0.16603   0.91138   0.00000  Uiso   1.00
N230   N     0.54890   0.29468   0.52871   0.00000  Uiso   1.00
C231   C     0.33280   0.72333   0.00831   0.00000  Uiso   1.00
C232   C     0.34733   0.69644   0.93205   0.00000  Uiso   1.00
C233   C     0.31417   0.68860   0.84202   0.00000  Uiso   1.00
C234   C     0.33491   0.66319   0.78269   0.00000  Uiso   1.00
C235   C     0.34954   0.62400   0.65978   0.00000  Uiso   1.00
C236   C     0.32690   0.70836   0.11794   0.00000  Uiso   1.00
C237   C     0.27656   0.71055   0.18420   0.00000  Uiso   1.00
C238   C     0.28009   0.69518   0.28135   0.00000  Uiso   1.00
C239   C     0.26302   0.67452   0.44707   0.00000  Uiso   1.00
C240   C     0.38981   0.74382   0.01245   0.00000  Uiso   1.00
C241   C     0.39238   0.77582   0.99005   0.00000  Uiso   1.00
C242   C     0.44888   0.79030   0.99842   0.00000  Uiso   1.00
C243   C     0.52949   0.82469   0.00037   0.00000  Uiso   1.00
C244   C     0.42859   0.69215   0.06304   0.00000  Uiso   1.00
C245   C     0.39936   0.67951   0.96178   0.00000  Uiso   1.00
C246   C     0.42016   0.65411   0.90257   0.00000  Uiso   1.00
C247   C     0.38703   0.64623   0.81246   0.00000  Uiso   1.00
C248   C     0.37893   0.69143   0.14766   0.00000  Uiso   1.00
C249   C     0.38254   0.67606   0.24474   0.00000  Uiso   1.00
C250   C     0.33222   0.67822   0.31113   0.00000  Uiso   1.00
C251   C     0.44185   0.72689   0.04218   0.00000  Uiso   1.00
C252   C     0.49836   0.74132   0.05060   0.00000  Uiso   1.00
C253   C     0.50101   0.77334   0.02821   0.00000  Uiso   1.00
H254   H     0.29229   0.73651   0.98517   0.00000  Uiso   1.00
H255   H     0.27390   0.70171   0.81904   0.00000  Uiso   1.00
H256   H     0.23630   0.72366   0.16117   0.00000  Uiso   1.00
H257   H     0.35210   0.78891   0.96705   0.00000  Uiso   1.00
H258   H     0.27645   0.65564   0.64799   0.00000  Uiso   1.00
H259   H     0.19717   0.70194   0.36940   0.00000  Uiso   1.00
H260   H     0.44136   0.83954   0.96007   0.00000  Uiso   1.00
H261   H     0.46910   0.67897   0.08618   0.00000  Uiso   1.00
H262   H     0.46042   0.64101   0.92559   0.00000  Uiso   1.00
H263   H     0.42281   0.66296   0.26772   0.00000  Uiso   1.00
H264   H     0.53862   0.72821   0.07360   0.00000  Uiso   1.00
H265   H     0.42784   0.60637   0.73447   0.00000  Uiso   1.00
H266   H     0.34855   0.65267   0.45589   0.00000  Uiso   1.00
H267   H     0.59274   0.79027   0.04655   0.00000  Uiso   1.00
O268   O     0.34323   0.60706   0.58379   0.00000  Uiso   1.00
O269   O     0.23922   0.66781   0.53026   0.00000  Uiso   1.00
O270   O     0.55959   0.84834   0.99321   0.00000  Uiso   1.00
N271   N     0.31328   0.64926   0.69037   0.00000  Uiso   1.00
N272   N     0.23915   0.69254   0.36484   0.00000  Uiso   1.00
N273   N     0.46744   0.82119   0.98217   0.00000  Uiso   1.00
N274   N     0.39474   0.62275   0.73690   0.00000  Uiso   1.00
N275   N     0.32061   0.66603   0.41138   0.00000  Uiso   1.00
N276   N     0.54890   0.79468   0.02871   0.00000  Uiso   1.00
C277   C     0.83280   0.22333   0.00831   0.00000  Uiso   1.00
C278   C     0.84733   0.19644   0.93205   0.00000  Uiso   1.00
C279   C     0.81417   0.18860   0.84202   0.00000  Uiso   1.00
C280   C     0.83491   0.16319   0.78269   0.00000  Uiso   1.00
C281   C     0.84954   0.12400   0.65978   0.00000  Uiso   1.00
C282   C     0.82690   0.20836   0.11794   0.00000  Uiso   1.00
C283   C     0.77656   0.21055   0.18420   0.00000  Uiso   1.00
C284   C     0.78009   0.19518   0.28135   0.00000  Uiso   1.00
C285   C     0.76302   0.17452   0.44707   0.00000  Uiso   1.00
C286   C     0.88981   0.24382   0.01245   0.00000  Uiso   1.00
C287   C     0.89238   0.27582   0.99005   0.00000  Uiso   1.00
C288   C     0.94888   0.29030   0.99842   0.00000  Uiso   1.00
C289   C     0.02949   0.32469   0.00037   0.00000  Uiso   1.00
C290   C     0.92859   0.19215   0.06304   0.00000  Uiso   1.00
C291   C     0.89936   0.17951   0.96178   0.00000  Uiso   1.00
C292   C     0.92016   0.15411   0.90257   0.00000  Uiso   1.00
C293   C     0.88703   0.14623   0.81246   0.00000  Uiso   1.00
C294   C     0.87893   0.19143   0.14766   0.00000  Uiso   1.00
C295   C     0.88254   0.17606   0.24474   0.00000  Uiso   1.00
C296   C     0.83222   0.17822   0.31113   0.00000  Uiso   1.00
C297   C     0.94185   0.22689   0.04218   0.00000  Uiso   1.00
C298   C     0.99836   0.24132   0.05060   0.00000  Uiso   1.00
C299   C     0.00101   0.27334   0.02821   0.00000  Uiso   1.00
H300   H     0.79229   0.23651   0.98517   0.00000  Uiso   1.00
H301   H     0.77390   0.20171   0.81904   0.00000  Uiso   1.00
H302   H     0.73630   0.22366   0.16117   0.00000  Uiso   1.00
H303   H     0.85210   0.28891   0.96705   0.00000  Uiso   1.00
H304   H     0.77645   0.15564   0.64799   0.00000  Uiso   1.00
H305   H     0.69717   0.20194   0.36940   0.00000  Uiso   1.00
H306   H     0.94136   0.33954   0.96007   0.00000  Uiso   1.00
H307   H     0.96910   0.17897   0.08618   0.00000  Uiso   1.00
H308   H     0.96042   0.14101   0.92559   0.00000  Uiso   1.00
H309   H     0.92281   0.16296   0.26772   0.00000  Uiso   1.00
H310   H     0.03862   0.22821   0.07360   0.00000  Uiso   1.00
H311   H     0.92784   0.10637   0.73447   0.00000  Uiso   1.00
H312   H     0.84855   0.15267   0.45589   0.00000  Uiso   1.00
H313   H     0.09274   0.29027   0.04655   0.00000  Uiso   1.00
O314   O     0.84323   0.10706   0.58379   0.00000  Uiso   1.00
O315   O     0.73922   0.16781   0.53026   0.00000  Uiso   1.00
O316   O     0.05959   0.34834   0.99321   0.00000  Uiso   1.00
N317   N     0.81328   0.14926   0.69037   0.00000  Uiso   1.00
N318   N     0.73915   0.19254   0.36484   0.00000  Uiso   1.00
N319   N     0.96744   0.32119   0.98217   0.00000  Uiso   1.00
N320   N     0.89474   0.12275   0.73690   0.00000  Uiso   1.00
N321   N     0.82061   0.16603   0.41138   0.00000  Uiso   1.00
N322   N     0.04890   0.29468   0.02871   0.00000  Uiso   1.00
C323   C     0.83280   0.72333   0.50831   0.00000  Uiso   1.00
C324   C     0.84733   0.69644   0.43205   0.00000  Uiso   1.00
C325   C     0.81417   0.68860   0.34202   0.00000  Uiso   1.00
C326   C     0.83491   0.66319   0.28269   0.00000  Uiso   1.00
C327   C     0.84954   0.62400   0.15978   0.00000  Uiso   1.00
C328   C     0.82690   0.70836   0.61794   0.00000  Uiso   1.00
C329   C     0.77656   0.71055   0.68420   0.00000  Uiso   1.00
C330   C     0.78009   0.69518   0.78135   0.00000  Uiso   1.00
C331   C     0.76302   0.67452   0.94707   0.00000  Uiso   1.00
C332   C     0.88981   0.74382   0.51245   0.00000  Uiso   1.00
C333   C     0.89238   0.77582   0.49005   0.00000  Uiso   1.00
C334   C     0.94888   0.79030   0.49842   0.00000  Uiso   1.00
C335   C     0.02949   0.82469   0.50037   0.00000  Uiso   1.00
C336   C     0.92859   0.69215   0.56304   0.00000  Uiso   1.00
C337   C     0.89936   0.67951   0.46178   0.00000  Uiso   1.00
C338   C     0.92016   0.65411   0.40257   0.00000  Uiso   1.00
C339   C     0.88703   0.64623   0.31246   0.00000  Uiso   1.00
C340   C     0.87893   0.69143   0.64766   0.00000  Uiso   1.00
C341   C     0.88254   0.67606   0.74474   0.00000  Uiso   1.00
C342   C     0.83222   0.67822   0.81113   0.00000  Uiso   1.00
C343   C     0.94185   0.72689   0.54218   0.00000  Uiso   1.00
C344   C     0.99836   0.74132   0.55060   0.00000  Uiso   1.00
C345   C     0.00101   0.77334   0.52821   0.00000  Uiso   1.00
H346   H     0.79229   0.73651   0.48517   0.00000  Uiso   1.00
H347   H     0.77390   0.70171   0.31904   0.00000  Uiso   1.00
H348   H     0.73630   0.72366   0.66117   0.00000  Uiso   1.00
H349   H     0.85210   0.78891   0.46705   0.00000  Uiso   1.00
H350   H     0.77645   0.65564   0.14799   0.00000  Uiso   1.00
H351   H     0.69717   0.70194   0.86940   0.00000  Uiso   1.00
H352   H     0.94136   0.83954   0.46007   0.00000  Uiso   1.00
H353   H     0.96910   0.67897   0.58618   0.00000  Uiso   1.00
H354   H     0.96042   0.64101   0.42559   0.00000  Uiso   1.00
H355   H     0.92281   0.66296   0.76772   0.00000  Uiso   1.00
H356   H     0.03862   0.72821   0.57360   0.00000  Uiso   1.00
H357   H     0.92784   0.60637   0.23447   0.00000  Uiso   1.00
H358   H     0.84855   0.65267   0.95589   0.00000  Uiso   1.00
H359   H     0.09274   0.79027   0.54655   0.00000  Uiso   1.00
O360   O     0.84323   0.60706   0.08379   0.00000  Uiso   1.00
O361   O     0.73922   0.66781   0.03026   0.00000  Uiso   1.00
O362   O     0.05959   0.84834   0.49321   0.00000  Uiso   1.00
N363   N     0.81328   0.64926   0.19037   0.00000  Uiso   1.00
N364   N     0.73915   0.69254   0.86484   0.00000  Uiso   1.00
N365   N     0.96744   0.82119   0.48217   0.00000  Uiso   1.00
N366   N     0.89474   0.62275   0.23690   0.00000  Uiso   1.00
N367   N     0.82061   0.66603   0.91138   0.00000  Uiso   1.00
N368   N     0.04890   0.79468   0.52871   0.00000  Uiso   1.00
C369   C     0.91720   0.47333   0.75831   0.00000  Uiso   1.00
C370   C     0.90267   0.44644   0.68205   0.00000  Uiso   1.00
C371   C     0.93583   0.43860   0.59202   0.00000  Uiso   1.00
C372   C     0.91509   0.41319   0.53269   0.00000  Uiso   1.00
C373   C     0.90046   0.37400   0.40978   0.00000  Uiso   1.00
C374   C     0.92310   0.45836   0.86794   0.00000  Uiso   1.00
C375   C     0.97344   0.46055   0.93420   0.00000  Uiso   1.00
C376   C     0.96991   0.44518   0.03135   0.00000  Uiso   1.00
C377   C     0.98698   0.42452   0.19707   0.00000  Uiso   1.00
C378   C     0.86019   0.49382   0.76245   0.00000  Uiso   1.00
C379   C     0.85762   0.52582   0.74005   0.00000  Uiso   1.00
C380   C     0.80112   0.54030   0.74842   0.00000  Uiso   1.00
C381   C     0.72051   0.57469   0.75037   0.00000  Uiso   1.00
C382   C     0.82141   0.44215   0.81304   0.00000  Uiso   1.00
C383   C     0.85064   0.42951   0.71178   0.00000  Uiso   1.00
C384   C     0.82984   0.40411   0.65257   0.00000  Uiso   1.00
C385   C     0.86297   0.39623   0.56246   0.00000  Uiso   1.00
C386   C     0.87107   0.44143   0.89766   0.00000  Uiso   1.00
C387   C     0.86746   0.42606   0.99474   0.00000  Uiso   1.00
C388   C     0.91778   0.42822   0.06113   0.00000  Uiso   1.00
C389   C     0.80815   0.47689   0.79218   0.00000  Uiso   1.00
C390   C     0.75164   0.49132   0.80060   0.00000  Uiso   1.00
C391   C     0.74899   0.52334   0.77821   0.00000  Uiso   1.00
H392   H     0.95771   0.48651   0.73517   0.00000  Uiso   1.00
H393   H     0.97610   0.45171   0.56904   0.00000  Uiso   1.00
H394   H     0.01370   0.47366   0.91117   0.00000  Uiso   1.00
H395   H     0.89790   0.53891   0.71705   0.00000  Uiso   1.00
H396   H     0.97355   0.40564   0.39799   0.00000  Uiso   1.00
H397   H     0.05283   0.45194   0.11940   0.00000  Uiso   1.00
H398   H     0.80864   0.58954   0.71007   0.00000  Uiso   1.00
H399   H     0.78090   0.42897   0.83618   0.00000  Uiso   1.00
H400   H     0.78958   0.39101   0.67559   0.00000  Uiso   1.00
H401   H     0.82719   0.41296   0.01772   0.00000  Uiso   1.00
H402   H     0.71138   0.47821   0.82360   0.00000  Uiso   1.00
H403   H     0.82216   0.35637   0.48447   0.00000  Uiso   1.00
H404   H     0.90145   0.40267   0.20589   0.00000  Uiso   1.00
H405   H     0.65726   0.54027   0.79655   0.00000  Uiso   1.00
O406   O     0.90677   0.35706   0.33379   0.00000  Uiso   1.00
O407   O     0.01078   0.41781   0.28026   0.00000  Uiso   1.00
O408   O     0.69041   0.59834   0.74321   0.00000  Uiso   1.00
N409   N     0.93672   0.39926   0.44037   0.00000  Uiso   1.00
N410   N     0.01085   0.44254   0.11484   0.00000  Uiso   1.00
N411   N     0.78256   0.57119   0.73217   0.00000  Uiso   1.00
N412   N     0.85526   0.37275   0.48690   0.00000  Uiso   1.00
N413   N     0.92939   0.41603   0.16138   0.00000  Uiso   1.00
N414   N     0.70110   0.54468   0.77871   0.00000  Uiso   1.00
C415   C     0.91720   0.97333   0.25831   0.00000  Uiso   1.00
C416   C     0.90267   0.94644   0.18205   0.00000  Uiso   1.00
C417   C     0.93583   0.93860   0.09202   0.00000  Uiso   1.00
C418   C     0.91509   0.91319   0.03269   0.00000  Uiso   1.00
C419   C     0.90046   0.87400   0.90978   0.00000  Uiso   1.00
C420   C     0.92310   0.95836   0.36794   0.00000  Uiso   1.00
C421   C     0.97344   0.96055   0.43420   0.00000  Uiso   1.00
C422   C     0.96991   0.94518   0.53135   0.00000  Uiso   1.00
C423   C     0.98698   0.92452   0.69707   0.00000  Uiso   1.00
C424   C     0.86019   0.99382   0.26245   0.00000  Uiso   1.00
C425   C     0.85762   0.02582   0.24005   0.00000  Uiso   1.00
C426   C     0.80112   0.04030   0.24842   0.00000  Uiso   1.00
C427   C     0.72051   0.07469   0.25037   0.00000  Uiso   1.00
C428   C     0.82141   0.94215   0.31304   0.00000  Uiso   1.00
C429   C     0.85064   0.92951   0.21178   0.00000  Uiso   1.00
C430   C     0.82984   0.90411   0.15257   0.00000  Uiso   1.00
C431   C     0.86297   0.89623   0.06246   0.00000  Uiso   1.00
C432   C     0.87107   0.94143   0.39766   0.00000  Uiso   1.00
C433   C     0.86746   0.92606   0.49474   0.00000  Uiso   1.00
C434   C     0.91778   0.92822   0.56113   0.00000  Uiso   1.00
C435   C     0.80815   0.97689   0.29218   0.00000  Uiso   1.00
C436   C     0.75164   0.99132   0.30060   0.00000  Uiso   1.00
C437   C     0.74899   0.02334   0.27821   0.00000  Uiso   1.00
H438   H     0.95771   0.98651   0.23517   0.00000  Uiso   1.00
H439   H     0.97610   0.95171   0.06904   0.00000  Uiso   1.00
H440   H     0.01370   0.97366   0.41117   0.00000  Uiso   1.00
H441   H     0.89790   0.03891   0.21705   0.00000  Uiso   1.00
H442   H     0.97355   0.90564   0.89799   0.00000  Uiso   1.00
H443   H     0.05283   0.95194   0.61940   0.00000  Uiso   1.00
H444   H     0.80864   0.08954   0.21007   0.00000  Uiso   1.00
H445   H     0.78090   0.92897   0.33618   0.00000  Uiso   1.00
H446   H     0.78958   0.89101   0.17559   0.00000  Uiso   1.00
H447   H     0.82719   0.91296   0.51772   0.00000  Uiso   1.00
H448   H     0.71138   0.97821   0.32360   0.00000  Uiso   1.00
H449   H     0.82216   0.85637   0.98447   0.00000  Uiso   1.00
H450   H     0.90145   0.90267   0.70589   0.00000  Uiso   1.00
H451   H     0.65726   0.04027   0.29655   0.00000  Uiso   1.00
O452   O     0.90677   0.85706   0.83379   0.00000  Uiso   1.00
O453   O     0.01078   0.91781   0.78026   0.00000  Uiso   1.00
O454   O     0.69041   0.09834   0.24321   0.00000  Uiso   1.00
N455   N     0.93672   0.89926   0.94037   0.00000  Uiso   1.00
N456   N     0.01085   0.94254   0.61484   0.00000  Uiso   1.00
N457   N     0.78256   0.07119   0.23217   0.00000  Uiso   1.00
N458   N     0.85526   0.87275   0.98690   0.00000  Uiso   1.00
N459   N     0.92939   0.91603   0.66138   0.00000  Uiso   1.00
N460   N     0.70110   0.04468   0.27871   0.00000  Uiso   1.00
C461   C     0.41720   0.47333   0.25831   0.00000  Uiso   1.00
C462   C     0.40267   0.44644   0.18205   0.00000  Uiso   1.00
C463   C     0.43583   0.43860   0.09202   0.00000  Uiso   1.00
C464   C     0.41509   0.41319   0.03269   0.00000  Uiso   1.00
C465   C     0.40046   0.37400   0.90978   0.00000  Uiso   1.00
C466   C     0.42310   0.45836   0.36794   0.00000  Uiso   1.00
C467   C     0.47344   0.46055   0.43420   0.00000  Uiso   1.00
C468   C     0.46991   0.44518   0.53135   0.00000  Uiso   1.00
C469   C     0.48698   0.42452   0.69707   0.00000  Uiso   1.00
C470   C     0.36019   0.49382   0.26245   0.00000  Uiso   1.00
C471   C     0.35762   0.52582   0.24005   0.00000  Uiso   1.00
C472   C     0.30112   0.54030   0.24842   0.00000  Uiso   1.00
C473   C     0.22051   0.57469   0.25037   0.00000  Uiso   1.00
C474   C     0.32141   0.44215   0.31304   0.00000  Uiso   1.00
C475   C     0.35064   0.42951   0.21178   0.00000  Uiso   1.00
C476   C     0.32984   0.40411   0.15257   0.00000  Uiso   1.00
C477   C     0.36297   0.39623   0.06246   0.00000  Uiso   1.00
C478   C     0.37107   0.44143   0.39766   0.00000  Uiso   1.00
C479   C     0.36746   0.42606   0.49474   0.00000  Uiso   1.00
C480   C     0.41778   0.42822   0.56113   0.00000  Uiso   1.00
C481   C     0.30815   0.47689   0.29218   0.00000  Uiso   1.00
C482   C     0.25164   0.49132   0.30060   0.00000  Uiso   1.00
C483   C     0.24899   0.52334   0.27821   0.00000  Uiso   1.00
H484   H     0.45771   0.48651   0.23517   0.00000  Uiso   1.00
H485   H     0.47610   0.45171   0.06904   0.00000  Uiso   1.00
H486   H     0.51370   0.47366   0.41117   0.00000  Uiso   1.00
H487   H     0.39790   0.53891   0.21705   0.00000  Uiso   1.00
H488   H     0.47355   0.40564   0.89799   0.00000  Uiso   1.00
H489   H     0.55283   0.45194   0.61940   0.00000  Uiso   1.00
H490   H     0.30864   0.58954   0.21007   0.00000  Uiso   1.00
H491   H     0.28090   0.42897   0.33618   0.00000  Uiso   1.00
H492   H     0.28958   0.39101   0.17559   0.00000  Uiso   1.00
H493   H     0.32719   0.41296   0.51772   0.00000  Uiso   1.00
H494   H     0.21138   0.47821   0.32360   0.00000  Uiso   1.00
H495   H     0.32216   0.35637   0.98447   0.00000  Uiso   1.00
H496   H     0.40145   0.40267   0.70589   0.00000  Uiso   1.00
H497   H     0.15726   0.54027   0.29655   0.00000  Uiso   1.00
O498   O     0.40677   0.35706   0.83379   0.00000  Uiso   1.00
O499   O     0.51078   0.41781   0.78026   0.00000  Uiso   1.00
O500   O     0.19041   0.59834   0.24321   0.00000  Uiso   1.00
N501   N     0.43672   0.39926   0.94037   0.00000  Uiso   1.00
N502   N     0.51085   0.44254   0.61484   0.00000  Uiso   1.00
N503   N     0.28256   0.57119   0.23217   0.00000  Uiso   1.00
N504   N     0.35526   0.37275   0.98690   0.00000  Uiso   1.00
N505   N     0.42939   0.41603   0.66138   0.00000  Uiso   1.00
N506   N     0.20110   0.54468   0.27871   0.00000  Uiso   1.00
C507   C     0.41720   0.97333   0.75831   0.00000  Uiso   1.00
C508   C     0.40267   0.94644   0.68205   0.00000  Uiso   1.00
C509   C     0.43583   0.93860   0.59202   0.00000  Uiso   1.00
C510   C     0.41509   0.91319   0.53269   0.00000  Uiso   1.00
C511   C     0.40046   0.87400   0.40978   0.00000  Uiso   1.00
C512   C     0.42310   0.95836   0.86794   0.00000  Uiso   1.00
C513   C     0.47344   0.96055   0.93420   0.00000  Uiso   1.00
C514   C     0.46991   0.94518   0.03135   0.00000  Uiso   1.00
C515   C     0.48698   0.92452   0.19707   0.00000  Uiso   1.00
C516   C     0.36019   0.99382   0.76245   0.00000  Uiso   1.00
C517   C     0.35762   0.02582   0.74005   0.00000  Uiso   1.00
C518   C     0.30112   0.04030   0.74842   0.00000  Uiso   1.00
C519   C     0.22051   0.07469   0.75037   0.00000  Uiso   1.00
C520   C     0.32141   0.94215   0.81304   0.00000  Uiso   1.00
C521   C     0.35064   0.92951   0.71178   0.00000  Uiso   1.00
C522   C     0.32984   0.90411   0.65257   0.00000  Uiso   1.00
C523   C     0.36297   0.89623   0.56246   0.00000  Uiso   1.00
C524   C     0.37107   0.94143   0.89766   0.00000  Uiso   1.00
C525   C     0.36746   0.92606   0.99474   0.00000  Uiso   1.00
C526   C     0.41778   0.92822   0.06113   0.00000  Uiso   1.00
C527   C     0.30815   0.97689   0.79218   0.00000  Uiso   1.00
C528   C     0.25164   0.99132   0.80060   0.00000  Uiso   1.00
C529   C     0.24899   0.02334   0.77821   0.00000  Uiso   1.00
H530   H     0.45771   0.98651   0.73517   0.00000  Uiso   1.00
H531   H     0.47610   0.95171   0.56904   0.00000  Uiso   1.00
H532   H     0.51370   0.97366   0.91117   0.00000  Uiso   1.00
H533   H     0.39790   0.03891   0.71705   0.00000  Uiso   1.00
H534   H     0.47355   0.90564   0.39799   0.00000  Uiso   1.00
H535   H     0.55283   0.95194   0.11940   0.00000  Uiso   1.00
H536   H     0.30864   0.08954   0.71007   0.00000  Uiso   1.00
H537   H     0.28090   0.92897   0.83618   0.00000  Uiso   1.00
H538   H     0.28958   0.89101   0.67559   0.00000  Uiso   1.00
H539   H     0.32719   0.91296   0.01772   0.00000  Uiso   1.00
H540   H     0.21138   0.97821   0.82360   0.00000  Uiso   1.00
H541   H     0.32216   0.85637   0.48447   0.00000  Uiso   1.00
H542   H     0.40145   0.90267   0.20589   0.00000  Uiso   1.00
H543   H     0.15726   0.04027   0.79655   0.00000  Uiso   1.00
O544   O     0.40677   0.85706   0.33379   0.00000  Uiso   1.00
O545   O     0.51078   0.91781   0.28026   0.00000  Uiso   1.00
O546   O     0.19041   0.09834   0.74321   0.00000  Uiso   1.00
N547   N     0.43672   0.89926   0.44037   0.00000  Uiso   1.00
N548   N     0.51085   0.94254   0.11484   0.00000  Uiso   1.00
N549   N     0.28256   0.07119   0.73217   0.00000  Uiso   1.00
N550   N     0.35526   0.87275   0.48690   0.00000  Uiso   1.00
N551   N     0.42939   0.91603   0.16138   0.00000  Uiso   1.00
N552   N     0.20110   0.04468   0.77871   0.00000  Uiso   1.00
C553   C     0.58280   0.02667   0.75831   0.00000  Uiso   1.00
C554   C     0.59733   0.05356   0.68205   0.00000  Uiso   1.00
C555   C     0.56417   0.06140   0.59202   0.00000  Uiso   1.00
C556   C     0.58491   0.08681   0.53269   0.00000  Uiso   1.00
C557   C     0.59954   0.12600   0.40978   0.00000  Uiso   1.00
C558   C     0.57690   0.04164   0.86794   0.00000  Uiso   1.00
C559   C     0.52656   0.03945   0.93420   0.00000  Uiso   1.00
C560   C     0.53009   0.05482   0.03135   0.00000  Uiso   1.00
C561   C     0.51302   0.07548   0.19707   0.00000  Uiso   1.00
C562   C     0.63981   0.00618   0.76245   0.00000  Uiso   1.00
C563   C     0.64238   0.97418   0.74005   0.00000  Uiso   1.00
C564   C     0.69888   0.95970   0.74842   0.00000  Uiso   1.00
C565   C     0.77949   0.92531   0.75037   0.00000  Uiso   1.00
C566   C     0.67859   0.05785   0.81304   0.00000  Uiso   1.00
C567   C     0.64936   0.07049   0.71178   0.00000  Uiso   1.00
C568   C     0.67016   0.09589   0.65257   0.00000  Uiso   1.00
C569   C     0.63703   0.10377   0.56246   0.00000  Uiso   1.00
C570   C     0.62893   0.05857   0.89766   0.00000  Uiso   1.00
C571   C     0.63254   0.07394   0.99474   0.00000  Uiso   1.00
C572   C     0.58222   0.07178   0.06113   0.00000  Uiso   1.00
C573   C     0.69185   0.02311   0.79218   0.00000  Uiso   1.00
C574   C     0.74836   0.00868   0.80060   0.00000  Uiso   1.00
C575   C     0.75101   0.97666   0.77821   0.00000  Uiso   1.00
H576   H     0.54229   0.01349   0.73517   0.00000  Uiso   1.00
H577   H     0.52390   0.04829   0.56904   0.00000  Uiso   1.00
H578   H     0.48630   0.02634   0.91117   0.00000  Uiso   1.00
H579   H     0.60210   0.96109   0.71705   0.00000  Uiso   1.00
H580   H     0.52645   0.09436   0.39799   0.00000  Uiso   1.00
H581   H     0.44717   0.04806   0.11940   0.00000  Uiso   1.00
H582   H     0.69136   0.91046   0.71007   0.00000  Uiso   1.00
H583   H     0.71910   0.07103   0.83618   0.00000  Uiso   1.00
H584   H     0.71042   0.10899   0.67559   0.00000  Uiso   1.00
H585   H     0.67281   0.08704   0.01772   0.00000  Uiso   1.00
H586   H     0.78862   0.02179   0.82360   0.00000  Uiso   1.00
H587   H     0.67784   0.14363   0.48447   0.00000  Uiso   1.00
H588   H     0.59855   0.09733   0.20589   0.00000  Uiso   1.00
H589   H     0.84274   0.95973   0.79655   0.00000  Uiso   1.00
O590   O     0.59323   0.14294   0.33379   0.00000  Uiso   1.00
O591   O     0.48922   0.08219   0.28026   0.00000  Uiso   1.00
O592   O     0.80959   0.90166   0.74321   0.00000  Uiso   1.00
N593   N     0.56328   0.10074   0.44037   0.00000  Uiso   1.00
N594   N     0.48915   0.05746   0.11484   0.00000  Uiso   1.00
N595   N     0.71744   0.92881   0.73217   0.00000  Uiso   1.00
N596   N     0.64474   0.12725   0.48690   0.00000  Uiso   1.00
N597   N     0.57061   0.08397   0.16138   0.00000  Uiso   1.00
N598   N     0.79890   0.95532   0.77871   0.00000  Uiso   1.00
C599   C     0.58280   0.52667   0.25831   0.00000  Uiso   1.00
C600   C     0.59733   0.55356   0.18205   0.00000  Uiso   1.00
C601   C     0.56417   0.56140   0.09202   0.00000  Uiso   1.00
C602   C     0.58491   0.58681   0.03269   0.00000  Uiso   1.00
C603   C     0.59954   0.62600   0.90978   0.00000  Uiso   1.00
C604   C     0.57690   0.54164   0.36794   0.00000  Uiso   1.00
C605   C     0.52656   0.53945   0.43420   0.00000  Uiso   1.00
C606   C     0.53009   0.55482   0.53135   0.00000  Uiso   1.00
C607   C     0.51302   0.57548   0.69707   0.00000  Uiso   1.00
C608   C     0.63981   0.50618   0.26245   0.00000  Uiso   1.00
C609   C     0.64238   0.47418   0.24005   0.00000  Uiso   1.00
C610   C     0.69888   0.45970   0.24842   0.00000  Uiso   1.00
C611   C     0.77949   0.42531   0.25037   0.00000  Uiso   1.00
C612   C     0.67859   0.55785   0.31304   0.00000  Uiso   1.00
C613   C     0.64936   0.57049   0.21178   0.00000  Uiso   1.00
C614   C     0.67016   0.59589   0.15257   0.00000  Uiso   1.00
C615   C     0.63703   0.60377   0.06246   0.00000  Uiso   1.00
C616   C     0.62893   0.55857   0.39766   0.00000  Uiso   1.00
C617   C     0.63254   0.57394   0.49474   0.00000  Uiso   1.00
C618   C     0.58222   0.57178   0.56113   0.00000  Uiso   1.00
C619   C     0.69185   0.52311   0.29218   0.00000  Uiso   1.00
C620   C     0.74836   0.50868   0.30060   0.00000  Uiso   1.00
C621   C     0.75101   0.47666   0.27821   0.00000  Uiso   1.00
H622   H     0.54229   0.51349   0.23517   0.00000  Uiso   1.00
H623   H     0.52390   0.54829   0.06904   0.00000  Uiso   1.00
H624   H     0.48630   0.52634   0.41117   0.00000  Uiso   1.00
H625   H     0.60210   0.46109   0.21705   0.00000  Uiso   1.00
H626   H     0.52645   0.59436   0.89799   0.00000  Uiso   1.00
H627   H     0.44717   0.54806   0.61940   0.00000  Uiso   1.00
H628   H     0.69136   0.41046   0.21007   0.00000  Uiso   1.00
H629   H     0.71910   0.57103   0.33618   0.00000  Uiso   1.00
H630   H     0.71042   0.60899   0.17559   0.00000  Uiso   1.00
H631   H     0.67281   0.58704   0.51772   0.00000  Uiso   1.00
H632   H     0.78862   0.52179   0.32360   0.00000  Uiso   1.00
H633   H     0.67784   0.64363   0.98447   0.00000  Uiso   1.00
H634   H     0.59855   0.59733   0.70589   0.00000  Uiso   1.00
H635   H     0.84274   0.45973   0.29655   0.00000  Uiso   1.00
O636   O     0.59323   0.64294   0.83379   0.00000  Uiso   1.00
O637   O     0.48922   0.58219   0.78026   0.00000  Uiso   1.00
O638   O     0.80959   0.40166   0.24321   0.00000  Uiso   1.00
N639   N     0.56328   0.60074   0.94037   0.00000  Uiso   1.00
N640   N     0.48915   0.55746   0.61484   0.00000  Uiso   1.00
N641   N     0.71744   0.42881   0.23217   0.00000  Uiso   1.00
N642   N     0.64474   0.62725   0.98690   0.00000  Uiso   1.00
N643   N     0.57061   0.58397   0.66138   0.00000  Uiso   1.00
N644   N     0.79890   0.45532   0.27871   0.00000  Uiso   1.00
C645   C     0.08280   0.02667   0.25831   0.00000  Uiso   1.00
C646   C     0.09733   0.05356   0.18205   0.00000  Uiso   1.00
C647   C     0.06417   0.06140   0.09202   0.00000  Uiso   1.00
C648   C     0.08491   0.08681   0.03269   0.00000  Uiso   1.00
C649   C     0.09954   0.12600   0.90978   0.00000  Uiso   1.00
C650   C     0.07690   0.04164   0.36794   0.00000  Uiso   1.00
C651   C     0.02656   0.03945   0.43420   0.00000  Uiso   1.00
C652   C     0.03009   0.05482   0.53135   0.00000  Uiso   1.00
C653   C     0.01302   0.07548   0.69707   0.00000  Uiso   1.00
C654   C     0.13981   0.00618   0.26245   0.00000  Uiso   1.00
C655   C     0.14238   0.97418   0.24005   0.00000  Uiso   1.00
C656   C     0.19888   0.95970   0.24842   0.00000  Uiso   1.00
C657   C     0.27949   0.92531   0.25037   0.00000  Uiso   1.00
C658   C     0.17859   0.05785   0.31304   0.00000  Uiso   1.00
C659   C     0.14936   0.07049   0.21178   0.00000  Uiso   1.00
C660   C     0.17016   0.09589   0.15257   0.00000  Uiso   1.00
C661   C     0.13703   0.10377   0.06246   0.00000  Uiso   1.00
C662   C     0.12893   0.05857   0.39766   0.00000  Uiso   1.00
C663   C     0.13254   0.07394   0.49474   0.00000  Uiso   1.00
C664   C     0.08222   0.07178   0.56113   0.00000  Uiso   1.00
C665   C     0.19185   0.02311   0.29218   0.00000  Uiso   1.00
C666   C     0.24836   0.00868   0.30060   0.00000  Uiso   1.00
C667   C     0.25101   0.97666   0.27821   0.00000  Uiso   1.00
H668   H     0.04229   0.01349   0.23517   0.00000  Uiso   1.00
H669   H     0.02390   0.04829   0.06904   0.00000  Uiso   1.00
H670   H     0.98630   0.02634   0.41117   0.00000  Uiso   1.00
H671   H     0.10210   0.96109   0.21705   0.00000  Uiso   1.00
H672   H     0.02645   0.09436   0.89799   0.00000  Uiso   1.00
H673   H     0.94717   0.04806   0.61940   0.00000  Uiso   1.00
H674   H     0.19136   0.91046   0.21007   0.00000  Uiso   1.00
H675   H     0.21910   0.07103   0.33618   0.00000  Uiso   1.00
H676   H     0.21042   0.10899   0.17559   0.00000  Uiso   1.00
H677   H     0.17281   0.08704   0.51772   0.00000  Uiso   1.00
H678   H     0.28862   0.02179   0.32360   0.00000  Uiso   1.00
H679   H     0.17784   0.14363   0.98447   0.00000  Uiso   1.00
H680   H     0.09855   0.09733   0.70589   0.00000  Uiso   1.00
H681   H     0.34274   0.95973   0.29655   0.00000  Uiso   1.00
O682   O     0.09323   0.14294   0.83379   0.00000  Uiso   1.00
O683   O     0.98922   0.08219   0.78026   0.00000  Uiso   1.00
O684   O     0.30959   0.90166   0.24321   0.00000  Uiso   1.00
N685   N     0.06328   0.10074   0.94037   0.00000  Uiso   1.00
N686   N     0.98915   0.05746   0.61484   0.00000  Uiso   1.00
N687   N     0.21744   0.92881   0.23217   0.00000  Uiso   1.00
N688   N     0.14474   0.12725   0.98690   0.00000  Uiso   1.00
N689   N     0.07061   0.08397   0.66138   0.00000  Uiso   1.00
N690   N     0.29890   0.95532   0.27871   0.00000  Uiso   1.00
C691   C     0.08280   0.52667   0.75831   0.00000  Uiso   1.00
C692   C     0.09733   0.55356   0.68205   0.00000  Uiso   1.00
C693   C     0.06417   0.56140   0.59202   0.00000  Uiso   1.00
C694   C     0.08491   0.58681   0.53269   0.00000  Uiso   1.00
C695   C     0.09954   0.62600   0.40978   0.00000  Uiso   1.00
C696   C     0.07690   0.54164   0.86794   0.00000  Uiso   1.00
C697   C     0.02656   0.53945   0.93420   0.00000  Uiso   1.00
C698   C     0.03009   0.55482   0.03135   0.00000  Uiso   1.00
C699   C     0.01302   0.57548   0.19707   0.00000  Uiso   1.00
C700   C     0.13981   0.50618   0.76245   0.00000  Uiso   1.00
C701   C     0.14238   0.47418   0.74005   0.00000  Uiso   1.00
C702   C     0.19888   0.45970   0.74842   0.00000  Uiso   1.00
C703   C     0.27949   0.42531   0.75037   0.00000  Uiso   1.00
C704   C     0.17859   0.55785   0.81304   0.00000  Uiso   1.00
C705   C     0.14936   0.57049   0.71178   0.00000  Uiso   1.00
C706   C     0.17016   0.59589   0.65257   0.00000  Uiso   1.00
C707   C     0.13703   0.60377   0.56246   0.00000  Uiso   1.00
C708   C     0.12893   0.55857   0.89766   0.00000  Uiso   1.00
C709   C     0.13254   0.57394   0.99474   0.00000  Uiso   1.00
C710   C     0.08222   0.57178   0.06113   0.00000  Uiso   1.00
C711   C     0.19185   0.52311   0.79218   0.00000  Uiso   1.00
C712   C     0.24836   0.50868   0.80060   0.00000  Uiso   1.00
C713   C     0.25101   0.47666   0.77821   0.00000  Uiso   1.00
H714   H     0.04229   0.51349   0.73517   0.00000  Uiso   1.00
H715   H     0.02390   0.54829   0.56904   0.00000  Uiso   1.00
H716   H     0.98630   0.52634   0.91117   0.00000  Uiso   1.00
H717   H     0.10210   0.46109   0.71705   0.00000  Uiso   1.00
H718   H     0.02645   0.59436   0.39799   0.00000  Uiso   1.00
H719   H     0.94717   0.54806   0.11940   0.00000  Uiso   1.00
H720   H     0.19136   0.41046   0.71007   0.00000  Uiso   1.00
H721   H     0.21910   0.57103   0.83618   0.00000  Uiso   1.00
H722   H     0.21042   0.60899   0.67559   0.00000  Uiso   1.00
H723   H     0.17281   0.58704   0.01772   0.00000  Uiso   1.00
H724   H     0.28862   0.52179   0.82360   0.00000  Uiso   1.00
H725   H     0.17784   0.64363   0.48447   0.00000  Uiso   1.00
H726   H     0.09855   0.59733   0.20589   0.00000  Uiso   1.00
H727   H     0.34274   0.45973   0.79655   0.00000  Uiso   1.00
O728   O     0.09323   0.64294   0.33379   0.00000  Uiso   1.00
O729   O     0.98922   0.58219   0.28026   0.00000  Uiso   1.00
O730   O     0.30959   0.40166   0.74321   0.00000  Uiso   1.00
N731   N     0.06328   0.60074   0.44037   0.00000  Uiso   1.00
N732   N     0.98915   0.55746   0.11484   0.00000  Uiso   1.00
N733   N     0.21744   0.42881   0.73217   0.00000  Uiso   1.00
N734   N     0.14474   0.62725   0.48690   0.00000  Uiso   1.00
N735   N     0.07061   0.58397   0.16138   0.00000  Uiso   1.00
N736   N     0.29890   0.45532   0.77871   0.00000  Uiso   1.00
