data_job_05378
_audit_creation_date              2018-12-19
_audit_creation_method            'Materials Studio'
_symmetry_space_group_name_H-M    'P1'
_symmetry_Int_Tables_number       1
_symmetry_cell_setting            triclinic
loop_
_symmetry_equiv_pos_as_xyz
  x,y,z
_cell_length_a                    47.1662
_cell_length_b                    7.0705
_cell_length_c                    47.6518
_cell_angle_alpha                 90.0000
_cell_angle_beta                  90.0000
_cell_angle_gamma                 90.0000
loop_
_atom_site_label
_atom_site_type_symbol
_atom_site_fract_x
_atom_site_fract_y
_atom_site_fract_z
_atom_site_U_iso_or_equiv
_atom_site_adp_type
_atom_site_occupancy
C1     C     0.38914   0.66236   0.37419   0.00000  Uiso   1.00
C2     C     0.40605   0.72926   0.34879   0.00000  Uiso   1.00
C3     C     0.41581   0.61538   0.32713   0.00000  Uiso   1.00
C4     C     0.43090   0.70358   0.30580   0.00000  Uiso   1.00
C5     C     0.45640   0.77776   0.26632   0.00000  Uiso   1.00
C6     C     0.40590   0.72522   0.39991   0.00000  Uiso   1.00
C7     C     0.41553   0.60793   0.42123   0.00000  Uiso   1.00
C8     C     0.43049   0.69275   0.44295   0.00000  Uiso   1.00
C9     C     0.45574   0.76067   0.48284   0.00000  Uiso   1.00
C10    C     0.36192   0.77874   0.37432   0.00000  Uiso   1.00
C11    C     0.33456   0.70646   0.37413   0.00000  Uiso   1.00
C12    C     0.31248   0.83635   0.37430   0.00000  Uiso   1.00
C13    C     0.26944   0.98737   0.37445   0.00000  Uiso   1.00
C14    C     0.39857   0.02153   0.37484   0.00000  Uiso   1.00
C15    C     0.41118   0.92434   0.34915   0.00000  Uiso   1.00
C16    C     0.42625   0.01275   0.32785   0.00000  Uiso   1.00
C17    C     0.43603   0.89902   0.30616   0.00000  Uiso   1.00
C18    C     0.41103   0.92029   0.40027   0.00000  Uiso   1.00
C19    C     0.42597   0.00530   0.42196   0.00000  Uiso   1.00
C20    C     0.43562   0.88818   0.44330   0.00000  Uiso   1.00
C21    C     0.36704   0.97382   0.37467   0.00000  Uiso   1.00
C22    C     0.34500   0.10384   0.37485   0.00000  Uiso   1.00
C23    C     0.31761   0.03178   0.37465   0.00000  Uiso   1.00
H24    H     0.38515   0.51048   0.37392   0.00000  Uiso   1.00
H25    H     0.41184   0.46440   0.32686   0.00000  Uiso   1.00
H26    H     0.41156   0.45698   0.42095   0.00000  Uiso   1.00
H27    H     0.33060   0.55549   0.37385   0.00000  Uiso   1.00
H28    H     0.44371   0.49934   0.27485   0.00000  Uiso   1.00
H29    H     0.44311   0.48368   0.47326   0.00000  Uiso   1.00
H30    H     0.27239   0.69142   0.37394   0.00000  Uiso   1.00
H31    H     0.40256   0.17341   0.37512   0.00000  Uiso   1.00
H32    H     0.43021   0.16372   0.32813   0.00000  Uiso   1.00
H33    H     0.42993   0.15628   0.42222   0.00000  Uiso   1.00
H34    H     0.34897   0.25479   0.37512   0.00000  Uiso   1.00
H35    H     0.45862   0.06693   0.27588   0.00000  Uiso   1.00
H36    H     0.45802   0.05126   0.47429   0.00000  Uiso   1.00
H37    H     0.28730   0.25900   0.37497   0.00000  Uiso   1.00
O38    O     0.46905   0.76479   0.24444   0.00000  Uiso   1.00
O39    O     0.46826   0.74424   0.50474   0.00000  Uiso   1.00
O40    O     0.24428   0.01679   0.37443   0.00000  Uiso   1.00
N41    N     0.44342   0.63426   0.28154   0.00000  Uiso   1.00
N42    N     0.44286   0.61961   0.46704   0.00000  Uiso   1.00
N43    N     0.28325   0.81383   0.37419   0.00000  Uiso   1.00
N44    N     0.45144   0.93967   0.28210   0.00000  Uiso   1.00
N45    N     0.45088   0.92502   0.46759   0.00000  Uiso   1.00
N46    N     0.29128   0.11924   0.37474   0.00000  Uiso   1.00
C47    C     0.88914   0.16236   0.37419   0.00000  Uiso   1.00
C48    C     0.90605   0.22926   0.34879   0.00000  Uiso   1.00
C49    C     0.91581   0.11538   0.32713   0.00000  Uiso   1.00
C50    C     0.93090   0.20358   0.30580   0.00000  Uiso   1.00
C51    C     0.95640   0.27776   0.26632   0.00000  Uiso   1.00
C52    C     0.90590   0.22522   0.39991   0.00000  Uiso   1.00
C53    C     0.91553   0.10793   0.42123   0.00000  Uiso   1.00
C54    C     0.93049   0.19275   0.44295   0.00000  Uiso   1.00
C55    C     0.95574   0.26067   0.48284   0.00000  Uiso   1.00
C56    C     0.86192   0.27874   0.37432   0.00000  Uiso   1.00
C57    C     0.83456   0.20646   0.37413   0.00000  Uiso   1.00
C58    C     0.81248   0.33635   0.37430   0.00000  Uiso   1.00
C59    C     0.76944   0.48737   0.37445   0.00000  Uiso   1.00
C60    C     0.89857   0.52153   0.37484   0.00000  Uiso   1.00
C61    C     0.91118   0.42434   0.34915   0.00000  Uiso   1.00
C62    C     0.92625   0.51275   0.32785   0.00000  Uiso   1.00
C63    C     0.93603   0.39902   0.30616   0.00000  Uiso   1.00
C64    C     0.91103   0.42029   0.40027   0.00000  Uiso   1.00
C65    C     0.92597   0.50530   0.42196   0.00000  Uiso   1.00
C66    C     0.93562   0.38818   0.44330   0.00000  Uiso   1.00
C67    C     0.86704   0.47382   0.37467   0.00000  Uiso   1.00
C68    C     0.84500   0.60384   0.37485   0.00000  Uiso   1.00
C69    C     0.81761   0.53178   0.37465   0.00000  Uiso   1.00
H70    H     0.88515   0.01048   0.37392   0.00000  Uiso   1.00
H71    H     0.91184   0.96440   0.32686   0.00000  Uiso   1.00
H72    H     0.91156   0.95698   0.42095   0.00000  Uiso   1.00
H73    H     0.83060   0.05549   0.37385   0.00000  Uiso   1.00
H74    H     0.94371   0.99934   0.27485   0.00000  Uiso   1.00
H75    H     0.94311   0.98368   0.47326   0.00000  Uiso   1.00
H76    H     0.77239   0.19142   0.37394   0.00000  Uiso   1.00
H77    H     0.90256   0.67341   0.37512   0.00000  Uiso   1.00
H78    H     0.93021   0.66372   0.32813   0.00000  Uiso   1.00
H79    H     0.92993   0.65628   0.42222   0.00000  Uiso   1.00
H80    H     0.84897   0.75479   0.37512   0.00000  Uiso   1.00
H81    H     0.95862   0.56693   0.27588   0.00000  Uiso   1.00
H82    H     0.95802   0.55126   0.47429   0.00000  Uiso   1.00
H83    H     0.78730   0.75900   0.37497   0.00000  Uiso   1.00
O84    O     0.96905   0.26479   0.24444   0.00000  Uiso   1.00
O85    O     0.96826   0.24424   0.50474   0.00000  Uiso   1.00
O86    O     0.74428   0.51679   0.37443   0.00000  Uiso   1.00
N87    N     0.94342   0.13426   0.28154   0.00000  Uiso   1.00
N88    N     0.94286   0.11961   0.46704   0.00000  Uiso   1.00
N89    N     0.78325   0.31383   0.37419   0.00000  Uiso   1.00
N90    N     0.95144   0.43967   0.28210   0.00000  Uiso   1.00
N91    N     0.95088   0.42502   0.46759   0.00000  Uiso   1.00
N92    N     0.79128   0.61924   0.37474   0.00000  Uiso   1.00
C93    C     0.11086   0.83764   0.37419   0.00000  Uiso   1.00
C94    C     0.09395   0.77074   0.34879   0.00000  Uiso   1.00
C95    C     0.08419   0.88462   0.32713   0.00000  Uiso   1.00
C96    C     0.06910   0.79642   0.30580   0.00000  Uiso   1.00
C97    C     0.04360   0.72224   0.26632   0.00000  Uiso   1.00
C98    C     0.09410   0.77478   0.39991   0.00000  Uiso   1.00
C99    C     0.08447   0.89207   0.42123   0.00000  Uiso   1.00
C100   C     0.06951   0.80725   0.44295   0.00000  Uiso   1.00
C101   C     0.04426   0.73933   0.48284   0.00000  Uiso   1.00
C102   C     0.13808   0.72126   0.37432   0.00000  Uiso   1.00
C103   C     0.16544   0.79354   0.37413   0.00000  Uiso   1.00
C104   C     0.18752   0.66365   0.37430   0.00000  Uiso   1.00
C105   C     0.23056   0.51263   0.37445   0.00000  Uiso   1.00
C106   C     0.10143   0.47847   0.37484   0.00000  Uiso   1.00
C107   C     0.08882   0.57566   0.34915   0.00000  Uiso   1.00
C108   C     0.07375   0.48725   0.32785   0.00000  Uiso   1.00
C109   C     0.06397   0.60098   0.30616   0.00000  Uiso   1.00
C110   C     0.08897   0.57971   0.40027   0.00000  Uiso   1.00
C111   C     0.07403   0.49470   0.42196   0.00000  Uiso   1.00
C112   C     0.06438   0.61182   0.44330   0.00000  Uiso   1.00
C113   C     0.13296   0.52618   0.37467   0.00000  Uiso   1.00
C114   C     0.15500   0.39616   0.37485   0.00000  Uiso   1.00
C115   C     0.18239   0.46822   0.37465   0.00000  Uiso   1.00
H116   H     0.11485   0.98952   0.37392   0.00000  Uiso   1.00
H117   H     0.08816   0.03560   0.32686   0.00000  Uiso   1.00
H118   H     0.08844   0.04302   0.42095   0.00000  Uiso   1.00
H119   H     0.16940   0.94451   0.37385   0.00000  Uiso   1.00
H120   H     0.05629   0.00066   0.27485   0.00000  Uiso   1.00
H121   H     0.05689   0.01632   0.47326   0.00000  Uiso   1.00
H122   H     0.22761   0.80858   0.37394   0.00000  Uiso   1.00
H123   H     0.09744   0.32659   0.37512   0.00000  Uiso   1.00
H124   H     0.06979   0.33628   0.32813   0.00000  Uiso   1.00
H125   H     0.07007   0.34372   0.42222   0.00000  Uiso   1.00
H126   H     0.15103   0.24521   0.37512   0.00000  Uiso   1.00
H127   H     0.04138   0.43307   0.27588   0.00000  Uiso   1.00
H128   H     0.04198   0.44874   0.47429   0.00000  Uiso   1.00
H129   H     0.21270   0.24100   0.37497   0.00000  Uiso   1.00
O130   O     0.03095   0.73521   0.24444   0.00000  Uiso   1.00
O131   O     0.03174   0.75576   0.50474   0.00000  Uiso   1.00
O132   O     0.25572   0.48321   0.37443   0.00000  Uiso   1.00
N133   N     0.05658   0.86574   0.28154   0.00000  Uiso   1.00
N134   N     0.05714   0.88039   0.46704   0.00000  Uiso   1.00
N135   N     0.21675   0.68617   0.37419   0.00000  Uiso   1.00
N136   N     0.04856   0.56033   0.28210   0.00000  Uiso   1.00
N137   N     0.04912   0.57498   0.46759   0.00000  Uiso   1.00
N138   N     0.20872   0.38076   0.37474   0.00000  Uiso   1.00
C139   C     0.61086   0.33764   0.37419   0.00000  Uiso   1.00
C140   C     0.59395   0.27074   0.34879   0.00000  Uiso   1.00
C141   C     0.58419   0.38462   0.32713   0.00000  Uiso   1.00
C142   C     0.56910   0.29642   0.30580   0.00000  Uiso   1.00
C143   C     0.54360   0.22224   0.26632   0.00000  Uiso   1.00
C144   C     0.59410   0.27478   0.39991   0.00000  Uiso   1.00
C145   C     0.58447   0.39207   0.42123   0.00000  Uiso   1.00
C146   C     0.56951   0.30725   0.44295   0.00000  Uiso   1.00
C147   C     0.54426   0.23933   0.48284   0.00000  Uiso   1.00
C148   C     0.63808   0.22126   0.37432   0.00000  Uiso   1.00
C149   C     0.66544   0.29354   0.37413   0.00000  Uiso   1.00
C150   C     0.68752   0.16365   0.37430   0.00000  Uiso   1.00
C151   C     0.73056   0.01263   0.37445   0.00000  Uiso   1.00
C152   C     0.60143   0.97847   0.37484   0.00000  Uiso   1.00
C153   C     0.58882   0.07566   0.34915   0.00000  Uiso   1.00
C154   C     0.57375   0.98725   0.32785   0.00000  Uiso   1.00
C155   C     0.56397   0.10098   0.30616   0.00000  Uiso   1.00
C156   C     0.58897   0.07971   0.40027   0.00000  Uiso   1.00
C157   C     0.57403   0.99470   0.42196   0.00000  Uiso   1.00
C158   C     0.56438   0.11182   0.44330   0.00000  Uiso   1.00
C159   C     0.63296   0.02618   0.37467   0.00000  Uiso   1.00
C160   C     0.65500   0.89616   0.37485   0.00000  Uiso   1.00
C161   C     0.68239   0.96822   0.37465   0.00000  Uiso   1.00
H162   H     0.61485   0.48952   0.37392   0.00000  Uiso   1.00
H163   H     0.58816   0.53560   0.32686   0.00000  Uiso   1.00
H164   H     0.58844   0.54302   0.42095   0.00000  Uiso   1.00
H165   H     0.66940   0.44451   0.37385   0.00000  Uiso   1.00
H166   H     0.55629   0.50066   0.27485   0.00000  Uiso   1.00
H167   H     0.55689   0.51632   0.47326   0.00000  Uiso   1.00
H168   H     0.72761   0.30858   0.37394   0.00000  Uiso   1.00
H169   H     0.59744   0.82659   0.37512   0.00000  Uiso   1.00
H170   H     0.56979   0.83628   0.32813   0.00000  Uiso   1.00
H171   H     0.57007   0.84372   0.42222   0.00000  Uiso   1.00
H172   H     0.65103   0.74521   0.37512   0.00000  Uiso   1.00
H173   H     0.54138   0.93307   0.27588   0.00000  Uiso   1.00
H174   H     0.54198   0.94874   0.47429   0.00000  Uiso   1.00
H175   H     0.71270   0.74100   0.37497   0.00000  Uiso   1.00
O176   O     0.53095   0.23521   0.24444   0.00000  Uiso   1.00
O177   O     0.53174   0.25576   0.50474   0.00000  Uiso   1.00
O178   O     0.75572   0.98321   0.37443   0.00000  Uiso   1.00
N179   N     0.55658   0.36574   0.28154   0.00000  Uiso   1.00
N180   N     0.55714   0.38039   0.46704   0.00000  Uiso   1.00
N181   N     0.71675   0.18617   0.37419   0.00000  Uiso   1.00
N182   N     0.54856   0.06033   0.28210   0.00000  Uiso   1.00
N183   N     0.54912   0.07498   0.46759   0.00000  Uiso   1.00
N184   N     0.70872   0.88076   0.37474   0.00000  Uiso   1.00
C185   C     0.61086   0.66236   0.62581   0.00000  Uiso   1.00
C186   C     0.59395   0.72926   0.65121   0.00000  Uiso   1.00
C187   C     0.58419   0.61538   0.67287   0.00000  Uiso   1.00
C188   C     0.56910   0.70358   0.69420   0.00000  Uiso   1.00
C189   C     0.54360   0.77776   0.73368   0.00000  Uiso   1.00
C190   C     0.59410   0.72522   0.60009   0.00000  Uiso   1.00
C191   C     0.58447   0.60793   0.57877   0.00000  Uiso   1.00
C192   C     0.56951   0.69275   0.55705   0.00000  Uiso   1.00
C193   C     0.54426   0.76067   0.51716   0.00000  Uiso   1.00
C194   C     0.63808   0.77874   0.62568   0.00000  Uiso   1.00
C195   C     0.66544   0.70646   0.62587   0.00000  Uiso   1.00
C196   C     0.68752   0.83635   0.62570   0.00000  Uiso   1.00
C197   C     0.73056   0.98737   0.62555   0.00000  Uiso   1.00
C198   C     0.60143   0.02153   0.62516   0.00000  Uiso   1.00
C199   C     0.58882   0.92434   0.65085   0.00000  Uiso   1.00
C200   C     0.57375   0.01275   0.67215   0.00000  Uiso   1.00
C201   C     0.56397   0.89902   0.69384   0.00000  Uiso   1.00
C202   C     0.58897   0.92029   0.59973   0.00000  Uiso   1.00
C203   C     0.57403   0.00530   0.57804   0.00000  Uiso   1.00
C204   C     0.56438   0.88818   0.55670   0.00000  Uiso   1.00
C205   C     0.63296   0.97382   0.62533   0.00000  Uiso   1.00
C206   C     0.65500   0.10384   0.62515   0.00000  Uiso   1.00
C207   C     0.68239   0.03178   0.62535   0.00000  Uiso   1.00
H208   H     0.61485   0.51048   0.62608   0.00000  Uiso   1.00
H209   H     0.58816   0.46440   0.67314   0.00000  Uiso   1.00
H210   H     0.58844   0.45698   0.57905   0.00000  Uiso   1.00
H211   H     0.66940   0.55549   0.62615   0.00000  Uiso   1.00
H212   H     0.55629   0.49934   0.72515   0.00000  Uiso   1.00
H213   H     0.55689   0.48368   0.52674   0.00000  Uiso   1.00
H214   H     0.72761   0.69142   0.62606   0.00000  Uiso   1.00
H215   H     0.59744   0.17341   0.62488   0.00000  Uiso   1.00
H216   H     0.56979   0.16372   0.67187   0.00000  Uiso   1.00
H217   H     0.57007   0.15628   0.57778   0.00000  Uiso   1.00
H218   H     0.65103   0.25479   0.62488   0.00000  Uiso   1.00
H219   H     0.54138   0.06693   0.72412   0.00000  Uiso   1.00
H220   H     0.54198   0.05126   0.52571   0.00000  Uiso   1.00
H221   H     0.71270   0.25900   0.62503   0.00000  Uiso   1.00
O222   O     0.53095   0.76479   0.75556   0.00000  Uiso   1.00
O223   O     0.53174   0.74424   0.49526   0.00000  Uiso   1.00
O224   O     0.75572   0.01679   0.62557   0.00000  Uiso   1.00
N225   N     0.55658   0.63426   0.71846   0.00000  Uiso   1.00
N226   N     0.55714   0.61961   0.53296   0.00000  Uiso   1.00
N227   N     0.71675   0.81383   0.62581   0.00000  Uiso   1.00
N228   N     0.54856   0.93967   0.71790   0.00000  Uiso   1.00
N229   N     0.54912   0.92502   0.53241   0.00000  Uiso   1.00
N230   N     0.70872   0.11924   0.62526   0.00000  Uiso   1.00
C231   C     0.11086   0.16236   0.62581   0.00000  Uiso   1.00
C232   C     0.09395   0.22926   0.65121   0.00000  Uiso   1.00
C233   C     0.08419   0.11538   0.67287   0.00000  Uiso   1.00
C234   C     0.06910   0.20358   0.69420   0.00000  Uiso   1.00
C235   C     0.04360   0.27776   0.73368   0.00000  Uiso   1.00
C236   C     0.09410   0.22522   0.60009   0.00000  Uiso   1.00
C237   C     0.08447   0.10793   0.57877   0.00000  Uiso   1.00
C238   C     0.06951   0.19275   0.55705   0.00000  Uiso   1.00
C239   C     0.04426   0.26067   0.51716   0.00000  Uiso   1.00
C240   C     0.13808   0.27874   0.62568   0.00000  Uiso   1.00
C241   C     0.16544   0.20646   0.62587   0.00000  Uiso   1.00
C242   C     0.18752   0.33635   0.62570   0.00000  Uiso   1.00
C243   C     0.23056   0.48737   0.62555   0.00000  Uiso   1.00
C244   C     0.10143   0.52153   0.62516   0.00000  Uiso   1.00
C245   C     0.08882   0.42434   0.65085   0.00000  Uiso   1.00
C246   C     0.07375   0.51275   0.67215   0.00000  Uiso   1.00
C247   C     0.06397   0.39902   0.69384   0.00000  Uiso   1.00
C248   C     0.08897   0.42029   0.59973   0.00000  Uiso   1.00
C249   C     0.07403   0.50530   0.57804   0.00000  Uiso   1.00
C250   C     0.06438   0.38818   0.55670   0.00000  Uiso   1.00
C251   C     0.13296   0.47382   0.62533   0.00000  Uiso   1.00
C252   C     0.15500   0.60384   0.62515   0.00000  Uiso   1.00
C253   C     0.18239   0.53178   0.62535   0.00000  Uiso   1.00
H254   H     0.11485   0.01048   0.62608   0.00000  Uiso   1.00
H255   H     0.08816   0.96440   0.67314   0.00000  Uiso   1.00
H256   H     0.08844   0.95698   0.57905   0.00000  Uiso   1.00
H257   H     0.16940   0.05549   0.62615   0.00000  Uiso   1.00
H258   H     0.05629   0.99934   0.72515   0.00000  Uiso   1.00
H259   H     0.05689   0.98368   0.52674   0.00000  Uiso   1.00
H260   H     0.22761   0.19142   0.62606   0.00000  Uiso   1.00
H261   H     0.09744   0.67341   0.62488   0.00000  Uiso   1.00
H262   H     0.06979   0.66372   0.67187   0.00000  Uiso   1.00
H263   H     0.07007   0.65628   0.57778   0.00000  Uiso   1.00
H264   H     0.15103   0.75479   0.62488   0.00000  Uiso   1.00
H265   H     0.04138   0.56693   0.72412   0.00000  Uiso   1.00
H266   H     0.04198   0.55126   0.52571   0.00000  Uiso   1.00
H267   H     0.21270   0.75900   0.62503   0.00000  Uiso   1.00
O268   O     0.03095   0.26479   0.75556   0.00000  Uiso   1.00
O269   O     0.03174   0.24424   0.49526   0.00000  Uiso   1.00
O270   O     0.25572   0.51679   0.62557   0.00000  Uiso   1.00
N271   N     0.05658   0.13426   0.71846   0.00000  Uiso   1.00
N272   N     0.05714   0.11961   0.53296   0.00000  Uiso   1.00
N273   N     0.21675   0.31383   0.62581   0.00000  Uiso   1.00
N274   N     0.04856   0.43967   0.71790   0.00000  Uiso   1.00
N275   N     0.04912   0.42502   0.53241   0.00000  Uiso   1.00
N276   N     0.20872   0.61924   0.62526   0.00000  Uiso   1.00
C277   C     0.88914   0.83764   0.62581   0.00000  Uiso   1.00
C278   C     0.90605   0.77074   0.65121   0.00000  Uiso   1.00
C279   C     0.91581   0.88462   0.67287   0.00000  Uiso   1.00
C280   C     0.93090   0.79642   0.69420   0.00000  Uiso   1.00
C281   C     0.95640   0.72224   0.73368   0.00000  Uiso   1.00
C282   C     0.90590   0.77478   0.60009   0.00000  Uiso   1.00
C283   C     0.91553   0.89207   0.57877   0.00000  Uiso   1.00
C284   C     0.93049   0.80725   0.55705   0.00000  Uiso   1.00
C285   C     0.95574   0.73933   0.51716   0.00000  Uiso   1.00
C286   C     0.86192   0.72126   0.62568   0.00000  Uiso   1.00
C287   C     0.83456   0.79354   0.62587   0.00000  Uiso   1.00
C288   C     0.81248   0.66365   0.62570   0.00000  Uiso   1.00
C289   C     0.76944   0.51263   0.62555   0.00000  Uiso   1.00
C290   C     0.89857   0.47847   0.62516   0.00000  Uiso   1.00
C291   C     0.91118   0.57566   0.65085   0.00000  Uiso   1.00
C292   C     0.92625   0.48725   0.67215   0.00000  Uiso   1.00
C293   C     0.93603   0.60098   0.69384   0.00000  Uiso   1.00
C294   C     0.91103   0.57971   0.59973   0.00000  Uiso   1.00
C295   C     0.92597   0.49470   0.57804   0.00000  Uiso   1.00
C296   C     0.93562   0.61182   0.55670   0.00000  Uiso   1.00
C297   C     0.86704   0.52618   0.62533   0.00000  Uiso   1.00
C298   C     0.84500   0.39616   0.62515   0.00000  Uiso   1.00
C299   C     0.81761   0.46822   0.62535   0.00000  Uiso   1.00
H300   H     0.88515   0.98952   0.62608   0.00000  Uiso   1.00
H301   H     0.91184   0.03560   0.67314   0.00000  Uiso   1.00
H302   H     0.91156   0.04302   0.57905   0.00000  Uiso   1.00
H303   H     0.83060   0.94451   0.62615   0.00000  Uiso   1.00
H304   H     0.94371   0.00066   0.72515   0.00000  Uiso   1.00
H305   H     0.94311   0.01632   0.52674   0.00000  Uiso   1.00
H306   H     0.77239   0.80858   0.62606   0.00000  Uiso   1.00
H307   H     0.90256   0.32659   0.62488   0.00000  Uiso   1.00
H308   H     0.93021   0.33628   0.67187   0.00000  Uiso   1.00
H309   H     0.92993   0.34372   0.57778   0.00000  Uiso   1.00
H310   H     0.84897   0.24521   0.62488   0.00000  Uiso   1.00
H311   H     0.95862   0.43307   0.72412   0.00000  Uiso   1.00
H312   H     0.95802   0.44874   0.52571   0.00000  Uiso   1.00
H313   H     0.78730   0.24100   0.62503   0.00000  Uiso   1.00
O314   O     0.96905   0.73521   0.75556   0.00000  Uiso   1.00
O315   O     0.96826   0.75576   0.49526   0.00000  Uiso   1.00
O316   O     0.74428   0.48321   0.62557   0.00000  Uiso   1.00
N317   N     0.94342   0.86574   0.71846   0.00000  Uiso   1.00
N318   N     0.94286   0.88039   0.53296   0.00000  Uiso   1.00
N319   N     0.78325   0.68617   0.62581   0.00000  Uiso   1.00
N320   N     0.95144   0.56033   0.71790   0.00000  Uiso   1.00
N321   N     0.95088   0.57498   0.53241   0.00000  Uiso   1.00
N322   N     0.79128   0.38076   0.62526   0.00000  Uiso   1.00
C323   C     0.38914   0.33764   0.62581   0.00000  Uiso   1.00
C324   C     0.40605   0.27074   0.65121   0.00000  Uiso   1.00
C325   C     0.41581   0.38462   0.67287   0.00000  Uiso   1.00
C326   C     0.43090   0.29642   0.69420   0.00000  Uiso   1.00
C327   C     0.45640   0.22224   0.73368   0.00000  Uiso   1.00
C328   C     0.40590   0.27478   0.60009   0.00000  Uiso   1.00
C329   C     0.41553   0.39207   0.57877   0.00000  Uiso   1.00
C330   C     0.43049   0.30725   0.55705   0.00000  Uiso   1.00
C331   C     0.45574   0.23933   0.51716   0.00000  Uiso   1.00
C332   C     0.36192   0.22126   0.62568   0.00000  Uiso   1.00
C333   C     0.33456   0.29354   0.62587   0.00000  Uiso   1.00
C334   C     0.31248   0.16365   0.62570   0.00000  Uiso   1.00
C335   C     0.26944   0.01263   0.62555   0.00000  Uiso   1.00
C336   C     0.39857   0.97847   0.62516   0.00000  Uiso   1.00
C337   C     0.41118   0.07566   0.65085   0.00000  Uiso   1.00
C338   C     0.42625   0.98725   0.67215   0.00000  Uiso   1.00
C339   C     0.43603   0.10098   0.69384   0.00000  Uiso   1.00
C340   C     0.41103   0.07971   0.59973   0.00000  Uiso   1.00
C341   C     0.42597   0.99470   0.57804   0.00000  Uiso   1.00
C342   C     0.43562   0.11182   0.55670   0.00000  Uiso   1.00
C343   C     0.36704   0.02618   0.62533   0.00000  Uiso   1.00
C344   C     0.34500   0.89616   0.62515   0.00000  Uiso   1.00
C345   C     0.31761   0.96822   0.62535   0.00000  Uiso   1.00
H346   H     0.38515   0.48952   0.62608   0.00000  Uiso   1.00
H347   H     0.41184   0.53560   0.67314   0.00000  Uiso   1.00
H348   H     0.41156   0.54302   0.57905   0.00000  Uiso   1.00
H349   H     0.33060   0.44451   0.62615   0.00000  Uiso   1.00
H350   H     0.44371   0.50066   0.72515   0.00000  Uiso   1.00
H351   H     0.44311   0.51632   0.52674   0.00000  Uiso   1.00
H352   H     0.27239   0.30858   0.62606   0.00000  Uiso   1.00
H353   H     0.40256   0.82659   0.62488   0.00000  Uiso   1.00
H354   H     0.43021   0.83628   0.67187   0.00000  Uiso   1.00
H355   H     0.42993   0.84372   0.57778   0.00000  Uiso   1.00
H356   H     0.34897   0.74521   0.62488   0.00000  Uiso   1.00
H357   H     0.45862   0.93307   0.72412   0.00000  Uiso   1.00
H358   H     0.45802   0.94874   0.52571   0.00000  Uiso   1.00
H359   H     0.28730   0.74100   0.62503   0.00000  Uiso   1.00
O360   O     0.46905   0.23521   0.75556   0.00000  Uiso   1.00
O361   O     0.46826   0.25576   0.49526   0.00000  Uiso   1.00
O362   O     0.24428   0.98321   0.62557   0.00000  Uiso   1.00
N363   N     0.44342   0.36574   0.71846   0.00000  Uiso   1.00
N364   N     0.44286   0.38039   0.53296   0.00000  Uiso   1.00
N365   N     0.28325   0.18617   0.62581   0.00000  Uiso   1.00
N366   N     0.45144   0.06033   0.71790   0.00000  Uiso   1.00
N367   N     0.45088   0.07498   0.53241   0.00000  Uiso   1.00
N368   N     0.29128   0.88076   0.62526   0.00000  Uiso   1.00
C369   C     0.61086   0.83764   0.12581   0.00000  Uiso   1.00
C370   C     0.59395   0.77074   0.15121   0.00000  Uiso   1.00
C371   C     0.58419   0.88462   0.17287   0.00000  Uiso   1.00
C372   C     0.56910   0.79642   0.19420   0.00000  Uiso   1.00
C373   C     0.54360   0.72224   0.23368   0.00000  Uiso   1.00
C374   C     0.59410   0.77478   0.10009   0.00000  Uiso   1.00
C375   C     0.58447   0.89207   0.07877   0.00000  Uiso   1.00
C376   C     0.56951   0.80725   0.05705   0.00000  Uiso   1.00
C377   C     0.54426   0.73933   0.01716   0.00000  Uiso   1.00
C378   C     0.63808   0.72126   0.12568   0.00000  Uiso   1.00
C379   C     0.66544   0.79354   0.12587   0.00000  Uiso   1.00
C380   C     0.68752   0.66365   0.12570   0.00000  Uiso   1.00
C381   C     0.73056   0.51263   0.12555   0.00000  Uiso   1.00
C382   C     0.60143   0.47847   0.12516   0.00000  Uiso   1.00
C383   C     0.58882   0.57566   0.15085   0.00000  Uiso   1.00
C384   C     0.57375   0.48725   0.17215   0.00000  Uiso   1.00
C385   C     0.56397   0.60098   0.19384   0.00000  Uiso   1.00
C386   C     0.58897   0.57971   0.09973   0.00000  Uiso   1.00
C387   C     0.57403   0.49470   0.07804   0.00000  Uiso   1.00
C388   C     0.56438   0.61182   0.05670   0.00000  Uiso   1.00
C389   C     0.63296   0.52618   0.12533   0.00000  Uiso   1.00
C390   C     0.65500   0.39616   0.12515   0.00000  Uiso   1.00
C391   C     0.68239   0.46822   0.12535   0.00000  Uiso   1.00
H392   H     0.61485   0.98952   0.12608   0.00000  Uiso   1.00
H393   H     0.58816   0.03560   0.17314   0.00000  Uiso   1.00
H394   H     0.58844   0.04302   0.07905   0.00000  Uiso   1.00
H395   H     0.66940   0.94451   0.12615   0.00000  Uiso   1.00
H396   H     0.55629   0.00066   0.22515   0.00000  Uiso   1.00
H397   H     0.55689   0.01632   0.02674   0.00000  Uiso   1.00
H398   H     0.72761   0.80858   0.12606   0.00000  Uiso   1.00
H399   H     0.59744   0.32659   0.12488   0.00000  Uiso   1.00
H400   H     0.56979   0.33628   0.17187   0.00000  Uiso   1.00
H401   H     0.57007   0.34372   0.07778   0.00000  Uiso   1.00
H402   H     0.65103   0.24521   0.12488   0.00000  Uiso   1.00
H403   H     0.54138   0.43307   0.22412   0.00000  Uiso   1.00
H404   H     0.54198   0.44874   0.02571   0.00000  Uiso   1.00
H405   H     0.71270   0.24100   0.12503   0.00000  Uiso   1.00
O406   O     0.53095   0.73521   0.25556   0.00000  Uiso   1.00
O407   O     0.53174   0.75576   0.99526   0.00000  Uiso   1.00
O408   O     0.75572   0.48321   0.12557   0.00000  Uiso   1.00
N409   N     0.55658   0.86574   0.21846   0.00000  Uiso   1.00
N410   N     0.55714   0.88039   0.03296   0.00000  Uiso   1.00
N411   N     0.71675   0.68617   0.12581   0.00000  Uiso   1.00
N412   N     0.54856   0.56033   0.21790   0.00000  Uiso   1.00
N413   N     0.54912   0.57498   0.03241   0.00000  Uiso   1.00
N414   N     0.70872   0.38076   0.12526   0.00000  Uiso   1.00
C415   C     0.11086   0.33764   0.12581   0.00000  Uiso   1.00
C416   C     0.09395   0.27074   0.15121   0.00000  Uiso   1.00
C417   C     0.08419   0.38462   0.17287   0.00000  Uiso   1.00
C418   C     0.06910   0.29642   0.19420   0.00000  Uiso   1.00
C419   C     0.04360   0.22224   0.23368   0.00000  Uiso   1.00
C420   C     0.09410   0.27478   0.10009   0.00000  Uiso   1.00
C421   C     0.08447   0.39207   0.07877   0.00000  Uiso   1.00
C422   C     0.06951   0.30725   0.05705   0.00000  Uiso   1.00
C423   C     0.04426   0.23933   0.01716   0.00000  Uiso   1.00
C424   C     0.13808   0.22126   0.12568   0.00000  Uiso   1.00
C425   C     0.16544   0.29354   0.12587   0.00000  Uiso   1.00
C426   C     0.18752   0.16365   0.12570   0.00000  Uiso   1.00
C427   C     0.23056   0.01263   0.12555   0.00000  Uiso   1.00
C428   C     0.10143   0.97847   0.12516   0.00000  Uiso   1.00
C429   C     0.08882   0.07566   0.15085   0.00000  Uiso   1.00
C430   C     0.07375   0.98725   0.17215   0.00000  Uiso   1.00
C431   C     0.06397   0.10098   0.19384   0.00000  Uiso   1.00
C432   C     0.08897   0.07971   0.09973   0.00000  Uiso   1.00
C433   C     0.07403   0.99470   0.07804   0.00000  Uiso   1.00
C434   C     0.06438   0.11182   0.05670   0.00000  Uiso   1.00
C435   C     0.13296   0.02618   0.12533   0.00000  Uiso   1.00
C436   C     0.15500   0.89616   0.12515   0.00000  Uiso   1.00
C437   C     0.18239   0.96822   0.12535   0.00000  Uiso   1.00
H438   H     0.11485   0.48952   0.12608   0.00000  Uiso   1.00
H439   H     0.08816   0.53560   0.17314   0.00000  Uiso   1.00
H440   H     0.08844   0.54302   0.07905   0.00000  Uiso   1.00
H441   H     0.16940   0.44451   0.12615   0.00000  Uiso   1.00
H442   H     0.05629   0.50066   0.22515   0.00000  Uiso   1.00
H443   H     0.05689   0.51632   0.02674   0.00000  Uiso   1.00
H444   H     0.22761   0.30858   0.12606   0.00000  Uiso   1.00
H445   H     0.09744   0.82659   0.12488   0.00000  Uiso   1.00
H446   H     0.06979   0.83628   0.17187   0.00000  Uiso   1.00
H447   H     0.07007   0.84372   0.07778   0.00000  Uiso   1.00
H448   H     0.15103   0.74521   0.12488   0.00000  Uiso   1.00
H449   H     0.04138   0.93307   0.22412   0.00000  Uiso   1.00
H450   H     0.04198   0.94874   0.02571   0.00000  Uiso   1.00
H451   H     0.21270   0.74100   0.12503   0.00000  Uiso   1.00
O452   O     0.03095   0.23521   0.25556   0.00000  Uiso   1.00
O453   O     0.03174   0.25576   0.99526   0.00000  Uiso   1.00
O454   O     0.25572   0.98321   0.12557   0.00000  Uiso   1.00
N455   N     0.05658   0.36574   0.21846   0.00000  Uiso   1.00
N456   N     0.05714   0.38039   0.03296   0.00000  Uiso   1.00
N457   N     0.21675   0.18617   0.12581   0.00000  Uiso   1.00
N458   N     0.04856   0.06033   0.21790   0.00000  Uiso   1.00
N459   N     0.04912   0.07498   0.03241   0.00000  Uiso   1.00
N460   N     0.20872   0.88076   0.12526   0.00000  Uiso   1.00
C461   C     0.88914   0.66236   0.12581   0.00000  Uiso   1.00
C462   C     0.90605   0.72926   0.15121   0.00000  Uiso   1.00
C463   C     0.91581   0.61538   0.17287   0.00000  Uiso   1.00
C464   C     0.93090   0.70358   0.19420   0.00000  Uiso   1.00
C465   C     0.95640   0.77776   0.23368   0.00000  Uiso   1.00
C466   C     0.90590   0.72522   0.10009   0.00000  Uiso   1.00
C467   C     0.91553   0.60793   0.07877   0.00000  Uiso   1.00
C468   C     0.93049   0.69275   0.05705   0.00000  Uiso   1.00
C469   C     0.95574   0.76067   0.01716   0.00000  Uiso   1.00
C470   C     0.86192   0.77874   0.12568   0.00000  Uiso   1.00
C471   C     0.83456   0.70646   0.12587   0.00000  Uiso   1.00
C472   C     0.81248   0.83635   0.12570   0.00000  Uiso   1.00
C473   C     0.76944   0.98737   0.12555   0.00000  Uiso   1.00
C474   C     0.89857   0.02153   0.12516   0.00000  Uiso   1.00
C475   C     0.91118   0.92434   0.15085   0.00000  Uiso   1.00
C476   C     0.92625   0.01275   0.17215   0.00000  Uiso   1.00
C477   C     0.93603   0.89902   0.19384   0.00000  Uiso   1.00
C478   C     0.91103   0.92029   0.09973   0.00000  Uiso   1.00
C479   C     0.92597   0.00530   0.07804   0.00000  Uiso   1.00
C480   C     0.93562   0.88818   0.05670   0.00000  Uiso   1.00
C481   C     0.86704   0.97382   0.12533   0.00000  Uiso   1.00
C482   C     0.84500   0.10384   0.12515   0.00000  Uiso   1.00
C483   C     0.81761   0.03178   0.12535   0.00000  Uiso   1.00
H484   H     0.88515   0.51048   0.12608   0.00000  Uiso   1.00
H485   H     0.91184   0.46440   0.17314   0.00000  Uiso   1.00
H486   H     0.91156   0.45698   0.07905   0.00000  Uiso   1.00
H487   H     0.83060   0.55549   0.12615   0.00000  Uiso   1.00
H488   H     0.94371   0.49934   0.22515   0.00000  Uiso   1.00
H489   H     0.94311   0.48368   0.02674   0.00000  Uiso   1.00
H490   H     0.77239   0.69142   0.12606   0.00000  Uiso   1.00
H491   H     0.90256   0.17341   0.12488   0.00000  Uiso   1.00
H492   H     0.93021   0.16372   0.17187   0.00000  Uiso   1.00
H493   H     0.92993   0.15628   0.07778   0.00000  Uiso   1.00
H494   H     0.84897   0.25479   0.12488   0.00000  Uiso   1.00
H495   H     0.95862   0.06693   0.22412   0.00000  Uiso   1.00
H496   H     0.95802   0.05126   0.02571   0.00000  Uiso   1.00
H497   H     0.78730   0.25900   0.12503   0.00000  Uiso   1.00
O498   O     0.96905   0.76479   0.25556   0.00000  Uiso   1.00
O499   O     0.96826   0.74424   0.99526   0.00000  Uiso   1.00
O500   O     0.74428   0.01679   0.12557   0.00000  Uiso   1.00
N501   N     0.94342   0.63426   0.21846   0.00000  Uiso   1.00
N502   N     0.94286   0.61961   0.03296   0.00000  Uiso   1.00
N503   N     0.78325   0.81383   0.12581   0.00000  Uiso   1.00
N504   N     0.95144   0.93967   0.21790   0.00000  Uiso   1.00
N505   N     0.95088   0.92502   0.03241   0.00000  Uiso   1.00
N506   N     0.79128   0.11924   0.12526   0.00000  Uiso   1.00
C507   C     0.38914   0.16236   0.12581   0.00000  Uiso   1.00
C508   C     0.40605   0.22926   0.15121   0.00000  Uiso   1.00
C509   C     0.41581   0.11538   0.17287   0.00000  Uiso   1.00
C510   C     0.43090   0.20358   0.19420   0.00000  Uiso   1.00
C511   C     0.45640   0.27776   0.23368   0.00000  Uiso   1.00
C512   C     0.40590   0.22522   0.10009   0.00000  Uiso   1.00
C513   C     0.41553   0.10793   0.07877   0.00000  Uiso   1.00
C514   C     0.43049   0.19275   0.05705   0.00000  Uiso   1.00
C515   C     0.45574   0.26067   0.01716   0.00000  Uiso   1.00
C516   C     0.36192   0.27874   0.12568   0.00000  Uiso   1.00
C517   C     0.33456   0.20646   0.12587   0.00000  Uiso   1.00
C518   C     0.31248   0.33635   0.12570   0.00000  Uiso   1.00
C519   C     0.26944   0.48737   0.12555   0.00000  Uiso   1.00
C520   C     0.39857   0.52153   0.12516   0.00000  Uiso   1.00
C521   C     0.41118   0.42434   0.15085   0.00000  Uiso   1.00
C522   C     0.42625   0.51275   0.17215   0.00000  Uiso   1.00
C523   C     0.43603   0.39902   0.19384   0.00000  Uiso   1.00
C524   C     0.41103   0.42029   0.09973   0.00000  Uiso   1.00
C525   C     0.42597   0.50530   0.07804   0.00000  Uiso   1.00
C526   C     0.43562   0.38818   0.05670   0.00000  Uiso   1.00
C527   C     0.36704   0.47382   0.12533   0.00000  Uiso   1.00
C528   C     0.34500   0.60384   0.12515   0.00000  Uiso   1.00
C529   C     0.31761   0.53178   0.12535   0.00000  Uiso   1.00
H530   H     0.38515   0.01048   0.12608   0.00000  Uiso   1.00
H531   H     0.41184   0.96440   0.17314   0.00000  Uiso   1.00
H532   H     0.41156   0.95698   0.07905   0.00000  Uiso   1.00
H533   H     0.33060   0.05549   0.12615   0.00000  Uiso   1.00
H534   H     0.44371   0.99934   0.22515   0.00000  Uiso   1.00
H535   H     0.44311   0.98368   0.02674   0.00000  Uiso   1.00
H536   H     0.27239   0.19142   0.12606   0.00000  Uiso   1.00
H537   H     0.40256   0.67341   0.12488   0.00000  Uiso   1.00
H538   H     0.43021   0.66372   0.17187   0.00000  Uiso   1.00
H539   H     0.42993   0.65628   0.07778   0.00000  Uiso   1.00
H540   H     0.34897   0.75479   0.12488   0.00000  Uiso   1.00
H541   H     0.45862   0.56693   0.22412   0.00000  Uiso   1.00
H542   H     0.45802   0.55126   0.02571   0.00000  Uiso   1.00
H543   H     0.28730   0.75900   0.12503   0.00000  Uiso   1.00
O544   O     0.46905   0.26479   0.25556   0.00000  Uiso   1.00
O545   O     0.46826   0.24424   0.99526   0.00000  Uiso   1.00
O546   O     0.24428   0.51679   0.12557   0.00000  Uiso   1.00
N547   N     0.44342   0.13426   0.21846   0.00000  Uiso   1.00
N548   N     0.44286   0.11961   0.03296   0.00000  Uiso   1.00
N549   N     0.28325   0.31383   0.12581   0.00000  Uiso   1.00
N550   N     0.45144   0.43967   0.21790   0.00000  Uiso   1.00
N551   N     0.45088   0.42502   0.03241   0.00000  Uiso   1.00
N552   N     0.29128   0.61924   0.12526   0.00000  Uiso   1.00
C553   C     0.38914   0.83764   0.87419   0.00000  Uiso   1.00
C554   C     0.40605   0.77074   0.84879   0.00000  Uiso   1.00
C555   C     0.41581   0.88462   0.82713   0.00000  Uiso   1.00
C556   C     0.43090   0.79642   0.80580   0.00000  Uiso   1.00
C557   C     0.45640   0.72224   0.76632   0.00000  Uiso   1.00
C558   C     0.40590   0.77478   0.89991   0.00000  Uiso   1.00
C559   C     0.41553   0.89207   0.92123   0.00000  Uiso   1.00
C560   C     0.43049   0.80725   0.94295   0.00000  Uiso   1.00
C561   C     0.45574   0.73933   0.98284   0.00000  Uiso   1.00
C562   C     0.36192   0.72126   0.87432   0.00000  Uiso   1.00
C563   C     0.33456   0.79354   0.87413   0.00000  Uiso   1.00
C564   C     0.31248   0.66365   0.87430   0.00000  Uiso   1.00
C565   C     0.26944   0.51263   0.87445   0.00000  Uiso   1.00
C566   C     0.39857   0.47847   0.87484   0.00000  Uiso   1.00
C567   C     0.41118   0.57566   0.84915   0.00000  Uiso   1.00
C568   C     0.42625   0.48725   0.82785   0.00000  Uiso   1.00
C569   C     0.43603   0.60098   0.80616   0.00000  Uiso   1.00
C570   C     0.41103   0.57971   0.90027   0.00000  Uiso   1.00
C571   C     0.42597   0.49470   0.92196   0.00000  Uiso   1.00
C572   C     0.43562   0.61182   0.94330   0.00000  Uiso   1.00
C573   C     0.36704   0.52618   0.87467   0.00000  Uiso   1.00
C574   C     0.34500   0.39616   0.87485   0.00000  Uiso   1.00
C575   C     0.31761   0.46822   0.87465   0.00000  Uiso   1.00
H576   H     0.38515   0.98952   0.87392   0.00000  Uiso   1.00
H577   H     0.41184   0.03560   0.82686   0.00000  Uiso   1.00
H578   H     0.41156   0.04302   0.92095   0.00000  Uiso   1.00
H579   H     0.33060   0.94451   0.87385   0.00000  Uiso   1.00
H580   H     0.44371   0.00066   0.77485   0.00000  Uiso   1.00
H581   H     0.44311   0.01632   0.97326   0.00000  Uiso   1.00
H582   H     0.27239   0.80858   0.87394   0.00000  Uiso   1.00
H583   H     0.40256   0.32659   0.87512   0.00000  Uiso   1.00
H584   H     0.43021   0.33628   0.82813   0.00000  Uiso   1.00
H585   H     0.42993   0.34372   0.92222   0.00000  Uiso   1.00
H586   H     0.34897   0.24521   0.87512   0.00000  Uiso   1.00
H587   H     0.45862   0.43307   0.77588   0.00000  Uiso   1.00
H588   H     0.45802   0.44874   0.97429   0.00000  Uiso   1.00
H589   H     0.28730   0.24100   0.87497   0.00000  Uiso   1.00
O590   O     0.46905   0.73521   0.74444   0.00000  Uiso   1.00
O591   O     0.46826   0.75576   0.00474   0.00000  Uiso   1.00
O592   O     0.24428   0.48321   0.87443   0.00000  Uiso   1.00
N593   N     0.44342   0.86574   0.78154   0.00000  Uiso   1.00
N594   N     0.44286   0.88039   0.96704   0.00000  Uiso   1.00
N595   N     0.28325   0.68617   0.87419   0.00000  Uiso   1.00
N596   N     0.45144   0.56033   0.78210   0.00000  Uiso   1.00
N597   N     0.45088   0.57498   0.96759   0.00000  Uiso   1.00
N598   N     0.29128   0.38076   0.87474   0.00000  Uiso   1.00
C599   C     0.88914   0.33764   0.87419   0.00000  Uiso   1.00
C600   C     0.90605   0.27074   0.84879   0.00000  Uiso   1.00
C601   C     0.91581   0.38462   0.82713   0.00000  Uiso   1.00
C602   C     0.93090   0.29642   0.80580   0.00000  Uiso   1.00
C603   C     0.95640   0.22224   0.76632   0.00000  Uiso   1.00
C604   C     0.90590   0.27478   0.89991   0.00000  Uiso   1.00
C605   C     0.91553   0.39207   0.92123   0.00000  Uiso   1.00
C606   C     0.93049   0.30725   0.94295   0.00000  Uiso   1.00
C607   C     0.95574   0.23933   0.98284   0.00000  Uiso   1.00
C608   C     0.86192   0.22126   0.87432   0.00000  Uiso   1.00
C609   C     0.83456   0.29354   0.87413   0.00000  Uiso   1.00
C610   C     0.81248   0.16365   0.87430   0.00000  Uiso   1.00
C611   C     0.76944   0.01263   0.87445   0.00000  Uiso   1.00
C612   C     0.89857   0.97847   0.87484   0.00000  Uiso   1.00
C613   C     0.91118   0.07566   0.84915   0.00000  Uiso   1.00
C614   C     0.92625   0.98725   0.82785   0.00000  Uiso   1.00
C615   C     0.93603   0.10098   0.80616   0.00000  Uiso   1.00
C616   C     0.91103   0.07971   0.90027   0.00000  Uiso   1.00
C617   C     0.92597   0.99470   0.92196   0.00000  Uiso   1.00
C618   C     0.93562   0.11182   0.94330   0.00000  Uiso   1.00
C619   C     0.86704   0.02618   0.87467   0.00000  Uiso   1.00
C620   C     0.84500   0.89616   0.87485   0.00000  Uiso   1.00
C621   C     0.81761   0.96822   0.87465   0.00000  Uiso   1.00
H622   H     0.88515   0.48952   0.87392   0.00000  Uiso   1.00
H623   H     0.91184   0.53560   0.82686   0.00000  Uiso   1.00
H624   H     0.91156   0.54302   0.92095   0.00000  Uiso   1.00
H625   H     0.83060   0.44451   0.87385   0.00000  Uiso   1.00
H626   H     0.94371   0.50066   0.77485   0.00000  Uiso   1.00
H627   H     0.94311   0.51632   0.97326   0.00000  Uiso   1.00
H628   H     0.77239   0.30858   0.87394   0.00000  Uiso   1.00
H629   H     0.90256   0.82659   0.87512   0.00000  Uiso   1.00
H630   H     0.93021   0.83628   0.82813   0.00000  Uiso   1.00
H631   H     0.92993   0.84372   0.92222   0.00000  Uiso   1.00
H632   H     0.84897   0.74521   0.87512   0.00000  Uiso   1.00
H633   H     0.95862   0.93307   0.77588   0.00000  Uiso   1.00
H634   H     0.95802   0.94874   0.97429   0.00000  Uiso   1.00
H635   H     0.78730   0.74100   0.87497   0.00000  Uiso   1.00
O636   O     0.96905   0.23521   0.74444   0.00000  Uiso   1.00
O637   O     0.96826   0.25576   0.00474   0.00000  Uiso   1.00
O638   O     0.74428   0.98321   0.87443   0.00000  Uiso   1.00
N639   N     0.94342   0.36574   0.78154   0.00000  Uiso   1.00
N640   N     0.94286   0.38039   0.96704   0.00000  Uiso   1.00
N641   N     0.78325   0.18617   0.87419   0.00000  Uiso   1.00
N642   N     0.95144   0.06033   0.78210   0.00000  Uiso   1.00
N643   N     0.95088   0.07498   0.96759   0.00000  Uiso   1.00
N644   N     0.79128   0.88076   0.87474   0.00000  Uiso   1.00
C645   C     0.11086   0.66236   0.87419   0.00000  Uiso   1.00
C646   C     0.09395   0.72926   0.84879   0.00000  Uiso   1.00
C647   C     0.08419   0.61538   0.82713   0.00000  Uiso   1.00
C648   C     0.06910   0.70358   0.80580   0.00000  Uiso   1.00
C649   C     0.04360   0.77776   0.76632   0.00000  Uiso   1.00
C650   C     0.09410   0.72522   0.89991   0.00000  Uiso   1.00
C651   C     0.08447   0.60793   0.92123   0.00000  Uiso   1.00
C652   C     0.06951   0.69275   0.94295   0.00000  Uiso   1.00
C653   C     0.04426   0.76067   0.98284   0.00000  Uiso   1.00
C654   C     0.13808   0.77874   0.87432   0.00000  Uiso   1.00
C655   C     0.16544   0.70646   0.87413   0.00000  Uiso   1.00
C656   C     0.18752   0.83635   0.87430   0.00000  Uiso   1.00
C657   C     0.23056   0.98737   0.87445   0.00000  Uiso   1.00
C658   C     0.10143   0.02153   0.87484   0.00000  Uiso   1.00
C659   C     0.08882   0.92434   0.84915   0.00000  Uiso   1.00
C660   C     0.07375   0.01275   0.82785   0.00000  Uiso   1.00
C661   C     0.06397   0.89902   0.80616   0.00000  Uiso   1.00
C662   C     0.08897   0.92029   0.90027   0.00000  Uiso   1.00
C663   C     0.07403   0.00530   0.92196   0.00000  Uiso   1.00
C664   C     0.06438   0.88818   0.94330   0.00000  Uiso   1.00
C665   C     0.13296   0.97382   0.87467   0.00000  Uiso   1.00
C666   C     0.15500   0.10384   0.87485   0.00000  Uiso   1.00
C667   C     0.18239   0.03178   0.87465   0.00000  Uiso   1.00
H668   H     0.11485   0.51048   0.87392   0.00000  Uiso   1.00
H669   H     0.08816   0.46440   0.82686   0.00000  Uiso   1.00
H670   H     0.08844   0.45698   0.92095   0.00000  Uiso   1.00
H671   H     0.16940   0.55549   0.87385   0.00000  Uiso   1.00
H672   H     0.05629   0.49934   0.77485   0.00000  Uiso   1.00
H673   H     0.05689   0.48368   0.97326   0.00000  Uiso   1.00
H674   H     0.22761   0.69142   0.87394   0.00000  Uiso   1.00
H675   H     0.09744   0.17341   0.87512   0.00000  Uiso   1.00
H676   H     0.06979   0.16372   0.82813   0.00000  Uiso   1.00
H677   H     0.07007   0.15628   0.92222   0.00000  Uiso   1.00
H678   H     0.15103   0.25479   0.87512   0.00000  Uiso   1.00
H679   H     0.04138   0.06693   0.77588   0.00000  Uiso   1.00
H680   H     0.04198   0.05126   0.97429   0.00000  Uiso   1.00
H681   H     0.21270   0.25900   0.87497   0.00000  Uiso   1.00
O682   O     0.03095   0.76479   0.74444   0.00000  Uiso   1.00
O683   O     0.03174   0.74424   0.00474   0.00000  Uiso   1.00
O684   O     0.25572   0.01679   0.87443   0.00000  Uiso   1.00
N685   N     0.05658   0.63426   0.78154   0.00000  Uiso   1.00
N686   N     0.05714   0.61961   0.96704   0.00000  Uiso   1.00
N687   N     0.21675   0.81383   0.87419   0.00000  Uiso   1.00
N688   N     0.04856   0.93967   0.78210   0.00000  Uiso   1.00
N689   N     0.04912   0.92502   0.96759   0.00000  Uiso   1.00
N690   N     0.20872   0.11924   0.87474   0.00000  Uiso   1.00
C691   C     0.61086   0.16236   0.87419   0.00000  Uiso   1.00
C692   C     0.59395   0.22926   0.84879   0.00000  Uiso   1.00
C693   C     0.58419   0.11538   0.82713   0.00000  Uiso   1.00
C694   C     0.56910   0.20358   0.80580   0.00000  Uiso   1.00
C695   C     0.54360   0.27776   0.76632   0.00000  Uiso   1.00
C696   C     0.59410   0.22522   0.89991   0.00000  Uiso   1.00
C697   C     0.58447   0.10793   0.92123   0.00000  Uiso   1.00
C698   C     0.56951   0.19275   0.94295   0.00000  Uiso   1.00
C699   C     0.54426   0.26067   0.98284   0.00000  Uiso   1.00
C700   C     0.63808   0.27874   0.87432   0.00000  Uiso   1.00
C701   C     0.66544   0.20646   0.87413   0.00000  Uiso   1.00
C702   C     0.68752   0.33635   0.87430   0.00000  Uiso   1.00
C703   C     0.73056   0.48737   0.87445   0.00000  Uiso   1.00
C704   C     0.60143   0.52153   0.87484   0.00000  Uiso   1.00
C705   C     0.58882   0.42434   0.84915   0.00000  Uiso   1.00
C706   C     0.57375   0.51275   0.82785   0.00000  Uiso   1.00
C707   C     0.56397   0.39902   0.80616   0.00000  Uiso   1.00
C708   C     0.58897   0.42029   0.90027   0.00000  Uiso   1.00
C709   C     0.57403   0.50530   0.92196   0.00000  Uiso   1.00
C710   C     0.56438   0.38818   0.94330   0.00000  Uiso   1.00
C711   C     0.63296   0.47382   0.87467   0.00000  Uiso   1.00
C712   C     0.65500   0.60384   0.87485   0.00000  Uiso   1.00
C713   C     0.68239   0.53178   0.87465   0.00000  Uiso   1.00
H714   H     0.61485   0.01048   0.87392   0.00000  Uiso   1.00
H715   H     0.58816   0.96440   0.82686   0.00000  Uiso   1.00
H716   H     0.58844   0.95698   0.92095   0.00000  Uiso   1.00
H717   H     0.66940   0.05549   0.87385   0.00000  Uiso   1.00
H718   H     0.55629   0.99934   0.77485   0.00000  Uiso   1.00
H719   H     0.55689   0.98368   0.97326   0.00000  Uiso   1.00
H720   H     0.72761   0.19142   0.87394   0.00000  Uiso   1.00
H721   H     0.59744   0.67341   0.87512   0.00000  Uiso   1.00
H722   H     0.56979   0.66372   0.82813   0.00000  Uiso   1.00
H723   H     0.57007   0.65628   0.92222   0.00000  Uiso   1.00
H724   H     0.65103   0.75479   0.87512   0.00000  Uiso   1.00
H725   H     0.54138   0.56693   0.77588   0.00000  Uiso   1.00
H726   H     0.54198   0.55126   0.97429   0.00000  Uiso   1.00
H727   H     0.71270   0.75900   0.87497   0.00000  Uiso   1.00
O728   O     0.53095   0.26479   0.74444   0.00000  Uiso   1.00
O729   O     0.53174   0.24424   0.00474   0.00000  Uiso   1.00
O730   O     0.75572   0.51679   0.87443   0.00000  Uiso   1.00
N731   N     0.55658   0.13426   0.78154   0.00000  Uiso   1.00
N732   N     0.55714   0.11961   0.96704   0.00000  Uiso   1.00
N733   N     0.71675   0.31383   0.87419   0.00000  Uiso   1.00
N734   N     0.54856   0.43967   0.78210   0.00000  Uiso   1.00
N735   N     0.54912   0.42502   0.96759   0.00000  Uiso   1.00
N736   N     0.70872   0.61924   0.87474   0.00000  Uiso   1.00
