data_job_06832
_audit_creation_date              2018-12-19
_audit_creation_method            'Materials Studio'
_symmetry_space_group_name_H-M    'P1'
_symmetry_Int_Tables_number       1
_symmetry_cell_setting            triclinic
loop_
_symmetry_equiv_pos_as_xyz
  x,y,z
_cell_length_a                    39.8943
_cell_length_b                    21.2699
_cell_length_c                    56.3687
_cell_angle_alpha                 90.0000
_cell_angle_beta                  155.4047
_cell_angle_gamma                 90.0000
loop_
_atom_site_label
_atom_site_type_symbol
_atom_site_fract_x
_atom_site_fract_y
_atom_site_fract_z
_atom_site_U_iso_or_equiv
_atom_site_adp_type
_atom_site_occupancy
C1     C     0.31507   0.96871   0.59769   0.00000  Uiso   1.00
C2     C     0.36761   0.91635   0.62140   0.00000  Uiso   1.00
C3     C     0.41730   0.92127   0.63366   0.00000  Uiso   1.00
C4     C     0.46048   0.86802   0.65505   0.00000  Uiso   1.00
C5     C     0.04300   0.29526   0.69049   0.00000  Uiso   1.00
C6     C     0.22943   0.94284   0.54303   0.00000  Uiso   1.00
C7     C     0.16294   0.97003   0.48941   0.00000  Uiso   1.00
C8     C     0.08981   0.93907   0.44483   0.00000  Uiso   1.00
C9     C     0.95779   0.90744   0.35863   0.00000  Uiso   1.00
C10    C     0.34018   0.97613   0.63971   0.00000  Uiso   1.00
C11    C     0.36678   0.03131   0.66737   0.00000  Uiso   1.00
C12    C     0.38686   0.02838   0.70419   0.00000  Uiso   1.00
C13    C     0.42679   0.04845   0.76810   0.00000  Uiso   1.00
C14    C     0.30342   0.86539   0.61386   0.00000  Uiso   1.00
C15    C     0.36128   0.86023   0.63018   0.00000  Uiso   1.00
C16    C     0.40441   0.80696   0.65155   0.00000  Uiso   1.00
C17    C     0.45415   0.81180   0.66385   0.00000  Uiso   1.00
C18    C     0.22310   0.88672   0.55182   0.00000  Uiso   1.00
C19    C     0.15005   0.85571   0.50731   0.00000  Uiso   1.00
C20    C     0.08347   0.88285   0.45363   0.00000  Uiso   1.00
C21    C     0.33385   0.92001   0.64850   0.00000  Uiso   1.00
C22    C     0.35389   0.91700   0.68527   0.00000  Uiso   1.00
C23    C     0.38052   0.97216   0.71299   0.00000  Uiso   1.00
H24    H     0.31999   0.01240   0.59084   0.00000  Uiso   1.00
H25    H     0.42217   0.96471   0.62685   0.00000  Uiso   1.00
H26    H     0.16786   0.01346   0.48263   0.00000  Uiso   1.00
H27    H     0.37167   0.07473   0.66057   0.00000  Uiso   1.00
H28    H     0.53264   0.88709   0.67062   0.00000  Uiso   1.00
H29    H     0.99640   0.98988   0.36653   0.00000  Uiso   1.00
H30    H     0.42617   0.11909   0.74174   0.00000  Uiso   1.00
H31    H     0.29849   0.82169   0.62070   0.00000  Uiso   1.00
H32    H     0.39950   0.76354   0.65835   0.00000  Uiso   1.00
H33    H     0.14518   0.81229   0.51412   0.00000  Uiso   1.00
H34    H     0.34899   0.87356   0.69206   0.00000  Uiso   1.00
H35    H     0.01424   0.22380   0.69618   0.00000  Uiso   1.00
H36    H     0.97799   0.82661   0.39209   0.00000  Uiso   1.00
H37    H     0.40776   0.95581   0.76730   0.00000  Uiso   1.00
O38    O     0.09025   0.27062   0.70761   0.00000  Uiso   1.00
O39    O     0.88672   0.90550   0.30865   0.00000  Uiso   1.00
O40    O     0.45057   0.07501   0.80093   0.00000  Uiso   1.00
N41    N     0.51446   0.85664   0.67148   0.00000  Uiso   1.00
N42    N     0.01311   0.95275   0.38717   0.00000  Uiso   1.00
N43    N     0.41489   0.07355   0.73795   0.00000  Uiso   1.00
N44    N     0.50456   0.76878   0.68524   0.00000  Uiso   1.00
N45    N     0.00320   0.86489   0.40092   0.00000  Uiso   1.00
N46    N     0.40498   0.98569   0.75171   0.00000  Uiso   1.00
C47    C     0.02723   0.35665   0.58564   0.00000  Uiso   1.00
C48    C     0.56828   0.91256   0.60020   0.00000  Uiso   1.00
C49    C     0.59092   0.96794   0.62594   0.00000  Uiso   1.00
C50    C     0.62769   0.01344   0.63566   0.00000  Uiso   1.00
C51    C     0.18932   0.60172   0.66059   0.00000  Uiso   1.00
C52    C     0.94966   0.34534   0.52188   0.00000  Uiso   1.00
C53    C     0.37258   0.84420   0.48178   0.00000  Uiso   1.00
C54    C     0.30950   0.83311   0.42557   0.00000  Uiso   1.00
C55    C     0.18699   0.81699   0.32893   0.00000  Uiso   1.00
C56    C     0.08090   0.29994   0.61528   0.00000  Uiso   1.00
C57    C     0.11414   0.26061   0.65370   0.00000  Uiso   1.00
C58    C     0.16153   0.21129   0.67612   0.00000  Uiso   1.00
C59    C     0.24278   0.12468   0.72450   0.00000  Uiso   1.00
C60    C     0.05227   0.33897   0.55711   0.00000  Uiso   1.00
C61    C     0.08188   0.40295   0.58470   0.00000  Uiso   1.00
C62    C     0.11863   0.44838   0.59438   0.00000  Uiso   1.00
C63    C     0.14132   0.50382   0.62014   0.00000  Uiso   1.00
C64    C     0.96326   0.33574   0.50638   0.00000  Uiso   1.00
C65    C     0.90029   0.32464   0.45022   0.00000  Uiso   1.00
C66    C     0.82313   0.32349   0.41005   0.00000  Uiso   1.00
C67    C     0.09450   0.29034   0.59979   0.00000  Uiso   1.00
C68    C     0.14185   0.24106   0.62214   0.00000  Uiso   1.00
C69    C     0.17516   0.20167   0.66060   0.00000  Uiso   1.00
H70    H     0.51663   0.86413   0.59770   0.00000  Uiso   1.00
H71    H     0.58037   0.97536   0.63792   0.00000  Uiso   1.00
H72    H     0.36207   0.85163   0.49379   0.00000  Uiso   1.00
H73    H     0.10359   0.26806   0.66568   0.00000  Uiso   1.00
H74    H     0.15701   0.59445   0.67566   0.00000  Uiso   1.00
H75    H     0.19671   0.83354   0.37175   0.00000  Uiso   1.00
H76    H     0.20601   0.15732   0.73423   0.00000  Uiso   1.00
H77    H     0.06286   0.33149   0.54504   0.00000  Uiso   1.00
H78    H     0.12915   0.44094   0.58238   0.00000  Uiso   1.00
H79    H     0.91084   0.31721   0.43825   0.00000  Uiso   1.00
H80    H     0.15236   0.23364   0.61014   0.00000  Uiso   1.00
H81    H     0.19660   0.56652   0.63058   0.00000  Uiso   1.00
H82    H     0.73629   0.30560   0.32667   0.00000  Uiso   1.00
H83    H     0.24560   0.12938   0.68915   0.00000  Uiso   1.00
O84    O     0.21955   0.65308   0.67862   0.00000  Uiso   1.00
O85    O     0.11566   0.81076   0.27990   0.00000  Uiso   1.00
O86    O     0.28385   0.07957   0.75546   0.00000  Uiso   1.00
N87    N     0.15725   0.57285   0.65994   0.00000  Uiso   1.00
N88    N     0.22689   0.82893   0.37580   0.00000  Uiso   1.00
N89    N     0.20303   0.16416   0.71468   0.00000  Uiso   1.00
N90    N     0.17855   0.55782   0.63569   0.00000  Uiso   1.00
N91    N     0.74819   0.31390   0.35154   0.00000  Uiso   1.00
N92    N     0.22433   0.14913   0.69042   0.00000  Uiso   1.00
C93    C     0.05079   0.76638   0.61398   0.00000  Uiso   1.00
C94    C     0.03714   0.76983   0.63192   0.00000  Uiso   1.00
C95    C     0.04269   0.71981   0.65121   0.00000  Uiso   1.00
C96    C     0.02799   0.73263   0.66551   0.00000  Uiso   1.00
C97    C     0.00972   0.72875   0.69407   0.00000  Uiso   1.00
C98    C     0.97408   0.79160   0.55318   0.00000  Uiso   1.00
C99    C     0.92661   0.75989   0.50628   0.00000  Uiso   1.00
C100   C     0.85883   0.79105   0.45431   0.00000  Uiso   1.00
C101   C     0.74270   0.82099   0.36064   0.00000  Uiso   1.00
C102   C     0.11650   0.81426   0.65073   0.00000  Uiso   1.00
C103   C     0.18878   0.80161   0.68584   0.00000  Uiso   1.00
C104   C     0.24090   0.85185   0.71598   0.00000  Uiso   1.00
C105   C     0.34590   0.91698   0.77377   0.00000  Uiso   1.00
C106   C     0.01483   0.87810   0.60507   0.00000  Uiso   1.00
C107   C     0.01760   0.83051   0.62708   0.00000  Uiso   1.00
C108   C     0.00290   0.84342   0.64135   0.00000  Uiso   1.00
C109   C     0.00842   0.79342   0.66066   0.00000  Uiso   1.00
C110   C     0.95454   0.85228   0.54834   0.00000  Uiso   1.00
C111   C     0.88682   0.88350   0.49643   0.00000  Uiso   1.00
C112   C     0.83926   0.85184   0.44946   0.00000  Uiso   1.00
C113   C     0.09697   0.87495   0.64589   0.00000  Uiso   1.00
C114   C     0.14899   0.92522   0.67598   0.00000  Uiso   1.00
C115   C     0.22133   0.91265   0.71113   0.00000  Uiso   1.00
H116   H     0.06600   0.71913   0.61774   0.00000  Uiso   1.00
H117   H     0.05780   0.67285   0.65494   0.00000  Uiso   1.00
H118   H     0.94175   0.71293   0.51004   0.00000  Uiso   1.00
H119   H     0.20387   0.75464   0.68957   0.00000  Uiso   1.00
H120   H     0.54006   0.14830   0.69403   0.00000  Uiso   1.00
H121   H     0.79538   0.73281   0.38850   0.00000  Uiso   1.00
H122   H     0.34813   0.82078   0.76707   0.00000  Uiso   1.00
H123   H     0.99962   0.92535   0.60130   0.00000  Uiso   1.00
H124   H     0.98778   0.89038   0.63760   0.00000  Uiso   1.00
H125   H     0.87173   0.93046   0.49270   0.00000  Uiso   1.00
H126   H     0.13385   0.97217   0.67223   0.00000  Uiso   1.00
H127   H     0.98323   0.82485   0.67995   0.00000  Uiso   1.00
H128   H     0.73855   0.90937   0.37442   0.00000  Uiso   1.00
H129   H     0.29129   0.99733   0.75299   0.00000  Uiso   1.00
O130   O     0.50503   0.20985   0.71115   0.00000  Uiso   1.00
O131   O     0.68403   0.82074   0.31031   0.00000  Uiso   1.00
O132   O     0.40921   0.93614   0.80698   0.00000  Uiso   1.00
N133   N     0.02833   0.69465   0.68574   0.00000  Uiso   1.00
N134   N     0.79956   0.77366   0.40009   0.00000  Uiso   1.00
N135   N     0.31632   0.85591   0.75401   0.00000  Uiso   1.00
N136   N     0.99775   0.78965   0.67817   0.00000  Uiso   1.00
N137   N     0.76898   0.86867   0.39252   0.00000  Uiso   1.00
N138   N     0.28574   0.95091   0.74644   0.00000  Uiso   1.00
C139   C     0.81507   0.46871   0.59769   0.00000  Uiso   1.00
C140   C     0.86761   0.41635   0.62140   0.00000  Uiso   1.00
C141   C     0.91730   0.42127   0.63366   0.00000  Uiso   1.00
C142   C     0.96048   0.36802   0.65505   0.00000  Uiso   1.00
C143   C     0.54300   0.79526   0.69049   0.00000  Uiso   1.00
C144   C     0.72943   0.44284   0.54303   0.00000  Uiso   1.00
C145   C     0.66294   0.47003   0.48941   0.00000  Uiso   1.00
C146   C     0.58981   0.43907   0.44483   0.00000  Uiso   1.00
C147   C     0.45779   0.40744   0.35863   0.00000  Uiso   1.00
C148   C     0.84018   0.47613   0.63971   0.00000  Uiso   1.00
C149   C     0.86678   0.53131   0.66737   0.00000  Uiso   1.00
C150   C     0.88686   0.52838   0.70419   0.00000  Uiso   1.00
C151   C     0.92679   0.54845   0.76810   0.00000  Uiso   1.00
C152   C     0.80342   0.36539   0.61386   0.00000  Uiso   1.00
C153   C     0.86128   0.36023   0.63018   0.00000  Uiso   1.00
C154   C     0.90441   0.30696   0.65155   0.00000  Uiso   1.00
C155   C     0.95415   0.31180   0.66385   0.00000  Uiso   1.00
C156   C     0.72310   0.38672   0.55182   0.00000  Uiso   1.00
C157   C     0.65005   0.35571   0.50731   0.00000  Uiso   1.00
C158   C     0.58347   0.38285   0.45363   0.00000  Uiso   1.00
C159   C     0.83385   0.42001   0.64850   0.00000  Uiso   1.00
C160   C     0.85389   0.41700   0.68527   0.00000  Uiso   1.00
C161   C     0.88052   0.47216   0.71299   0.00000  Uiso   1.00
H162   H     0.81999   0.51240   0.59084   0.00000  Uiso   1.00
H163   H     0.92217   0.46471   0.62685   0.00000  Uiso   1.00
H164   H     0.66786   0.51346   0.48263   0.00000  Uiso   1.00
H165   H     0.87167   0.57473   0.66057   0.00000  Uiso   1.00
H166   H     0.03264   0.38709   0.67062   0.00000  Uiso   1.00
H167   H     0.49640   0.48988   0.36653   0.00000  Uiso   1.00
H168   H     0.92617   0.61909   0.74174   0.00000  Uiso   1.00
H169   H     0.79849   0.32169   0.62070   0.00000  Uiso   1.00
H170   H     0.89950   0.26354   0.65835   0.00000  Uiso   1.00
H171   H     0.64518   0.31229   0.51412   0.00000  Uiso   1.00
H172   H     0.84899   0.37356   0.69206   0.00000  Uiso   1.00
H173   H     0.51424   0.72380   0.69618   0.00000  Uiso   1.00
H174   H     0.47799   0.32661   0.39209   0.00000  Uiso   1.00
H175   H     0.90776   0.45581   0.76730   0.00000  Uiso   1.00
O176   O     0.59025   0.77062   0.70761   0.00000  Uiso   1.00
O177   O     0.38672   0.40550   0.30865   0.00000  Uiso   1.00
O178   O     0.95057   0.57501   0.80093   0.00000  Uiso   1.00
N179   N     0.01446   0.35664   0.67148   0.00000  Uiso   1.00
N180   N     0.51311   0.45275   0.38717   0.00000  Uiso   1.00
N181   N     0.91489   0.57355   0.73795   0.00000  Uiso   1.00
N182   N     0.00456   0.26878   0.68524   0.00000  Uiso   1.00
N183   N     0.50320   0.36489   0.40092   0.00000  Uiso   1.00
N184   N     0.90498   0.48569   0.75171   0.00000  Uiso   1.00
C185   C     0.52723   0.85665   0.58564   0.00000  Uiso   1.00
C186   C     0.06828   0.41256   0.60020   0.00000  Uiso   1.00
C187   C     0.09092   0.46794   0.62594   0.00000  Uiso   1.00
C188   C     0.12769   0.51344   0.63566   0.00000  Uiso   1.00
C189   C     0.68932   0.10172   0.66059   0.00000  Uiso   1.00
C190   C     0.44966   0.84534   0.52188   0.00000  Uiso   1.00
C191   C     0.87258   0.34420   0.48178   0.00000  Uiso   1.00
C192   C     0.80950   0.33311   0.42557   0.00000  Uiso   1.00
C193   C     0.68699   0.31699   0.32893   0.00000  Uiso   1.00
C194   C     0.58090   0.79994   0.61528   0.00000  Uiso   1.00
C195   C     0.61414   0.76061   0.65370   0.00000  Uiso   1.00
C196   C     0.66153   0.71129   0.67612   0.00000  Uiso   1.00
C197   C     0.74278   0.62468   0.72450   0.00000  Uiso   1.00
C198   C     0.55227   0.83897   0.55711   0.00000  Uiso   1.00
C199   C     0.58188   0.90295   0.58470   0.00000  Uiso   1.00
C200   C     0.61863   0.94838   0.59438   0.00000  Uiso   1.00
C201   C     0.64132   0.00382   0.62014   0.00000  Uiso   1.00
C202   C     0.46326   0.83574   0.50638   0.00000  Uiso   1.00
C203   C     0.40029   0.82464   0.45022   0.00000  Uiso   1.00
C204   C     0.32313   0.82349   0.41005   0.00000  Uiso   1.00
C205   C     0.59450   0.79034   0.59979   0.00000  Uiso   1.00
C206   C     0.64185   0.74106   0.62214   0.00000  Uiso   1.00
C207   C     0.67516   0.70167   0.66060   0.00000  Uiso   1.00
H208   H     0.01663   0.36413   0.59770   0.00000  Uiso   1.00
H209   H     0.08037   0.47536   0.63792   0.00000  Uiso   1.00
H210   H     0.86207   0.35163   0.49379   0.00000  Uiso   1.00
H211   H     0.60359   0.76806   0.66568   0.00000  Uiso   1.00
H212   H     0.65701   0.09445   0.67566   0.00000  Uiso   1.00
H213   H     0.69671   0.33354   0.37175   0.00000  Uiso   1.00
H214   H     0.70601   0.65732   0.73423   0.00000  Uiso   1.00
H215   H     0.56286   0.83149   0.54504   0.00000  Uiso   1.00
H216   H     0.62915   0.94094   0.58238   0.00000  Uiso   1.00
H217   H     0.41084   0.81721   0.43825   0.00000  Uiso   1.00
H218   H     0.65236   0.73364   0.61014   0.00000  Uiso   1.00
H219   H     0.69660   0.06652   0.63058   0.00000  Uiso   1.00
H220   H     0.23629   0.80560   0.32667   0.00000  Uiso   1.00
H221   H     0.74560   0.62938   0.68915   0.00000  Uiso   1.00
O222   O     0.71955   0.15308   0.67862   0.00000  Uiso   1.00
O223   O     0.61566   0.31076   0.27990   0.00000  Uiso   1.00
O224   O     0.78385   0.57957   0.75546   0.00000  Uiso   1.00
N225   N     0.65725   0.07285   0.65994   0.00000  Uiso   1.00
N226   N     0.72689   0.32893   0.37580   0.00000  Uiso   1.00
N227   N     0.70303   0.66416   0.71468   0.00000  Uiso   1.00
N228   N     0.67855   0.05782   0.63569   0.00000  Uiso   1.00
N229   N     0.24819   0.81390   0.35154   0.00000  Uiso   1.00
N230   N     0.72433   0.64913   0.69042   0.00000  Uiso   1.00
C231   C     0.55079   0.26638   0.61398   0.00000  Uiso   1.00
C232   C     0.53714   0.26983   0.63192   0.00000  Uiso   1.00
C233   C     0.54269   0.21981   0.65121   0.00000  Uiso   1.00
C234   C     0.52799   0.23263   0.66551   0.00000  Uiso   1.00
C235   C     0.50972   0.22875   0.69407   0.00000  Uiso   1.00
C236   C     0.47408   0.29160   0.55318   0.00000  Uiso   1.00
C237   C     0.42661   0.25989   0.50628   0.00000  Uiso   1.00
C238   C     0.35883   0.29105   0.45431   0.00000  Uiso   1.00
C239   C     0.24270   0.32099   0.36064   0.00000  Uiso   1.00
C240   C     0.61650   0.31426   0.65073   0.00000  Uiso   1.00
C241   C     0.68878   0.30161   0.68584   0.00000  Uiso   1.00
C242   C     0.74090   0.35185   0.71598   0.00000  Uiso   1.00
C243   C     0.84590   0.41698   0.77377   0.00000  Uiso   1.00
C244   C     0.51483   0.37810   0.60507   0.00000  Uiso   1.00
C245   C     0.51760   0.33051   0.62708   0.00000  Uiso   1.00
C246   C     0.50290   0.34342   0.64135   0.00000  Uiso   1.00
C247   C     0.50842   0.29342   0.66066   0.00000  Uiso   1.00
C248   C     0.45454   0.35228   0.54834   0.00000  Uiso   1.00
C249   C     0.38682   0.38350   0.49643   0.00000  Uiso   1.00
C250   C     0.33926   0.35184   0.44946   0.00000  Uiso   1.00
C251   C     0.59697   0.37495   0.64589   0.00000  Uiso   1.00
C252   C     0.64899   0.42522   0.67598   0.00000  Uiso   1.00
C253   C     0.72133   0.41265   0.71113   0.00000  Uiso   1.00
H254   H     0.56600   0.21913   0.61774   0.00000  Uiso   1.00
H255   H     0.55780   0.17285   0.65494   0.00000  Uiso   1.00
H256   H     0.44175   0.21293   0.51004   0.00000  Uiso   1.00
H257   H     0.70387   0.25464   0.68957   0.00000  Uiso   1.00
H258   H     0.04006   0.64830   0.69403   0.00000  Uiso   1.00
H259   H     0.29538   0.23281   0.38850   0.00000  Uiso   1.00
H260   H     0.84813   0.32078   0.76707   0.00000  Uiso   1.00
H261   H     0.49962   0.42535   0.60130   0.00000  Uiso   1.00
H262   H     0.48778   0.39038   0.63760   0.00000  Uiso   1.00
H263   H     0.37173   0.43046   0.49270   0.00000  Uiso   1.00
H264   H     0.63385   0.47217   0.67223   0.00000  Uiso   1.00
H265   H     0.48323   0.32485   0.67995   0.00000  Uiso   1.00
H266   H     0.23855   0.40937   0.37442   0.00000  Uiso   1.00
H267   H     0.79129   0.49733   0.75299   0.00000  Uiso   1.00
O268   O     0.00503   0.70985   0.71115   0.00000  Uiso   1.00
O269   O     0.18403   0.32074   0.31031   0.00000  Uiso   1.00
O270   O     0.90921   0.43614   0.80698   0.00000  Uiso   1.00
N271   N     0.52833   0.19465   0.68574   0.00000  Uiso   1.00
N272   N     0.29956   0.27366   0.40009   0.00000  Uiso   1.00
N273   N     0.81632   0.35591   0.75401   0.00000  Uiso   1.00
N274   N     0.49775   0.28965   0.67817   0.00000  Uiso   1.00
N275   N     0.26898   0.36867   0.39252   0.00000  Uiso   1.00
N276   N     0.78574   0.45091   0.74644   0.00000  Uiso   1.00
C277   C     0.68493   0.96871   0.90231   0.00000  Uiso   1.00
C278   C     0.63239   0.91635   0.87860   0.00000  Uiso   1.00
C279   C     0.58270   0.92127   0.86634   0.00000  Uiso   1.00
C280   C     0.53952   0.86802   0.84495   0.00000  Uiso   1.00
C281   C     0.95700   0.29526   0.80951   0.00000  Uiso   1.00
C282   C     0.77057   0.94284   0.95697   0.00000  Uiso   1.00
C283   C     0.83706   0.97003   0.01059   0.00000  Uiso   1.00
C284   C     0.91019   0.93907   0.05517   0.00000  Uiso   1.00
C285   C     0.04221   0.90744   0.14137   0.00000  Uiso   1.00
C286   C     0.65982   0.97613   0.86029   0.00000  Uiso   1.00
C287   C     0.63322   0.03131   0.83263   0.00000  Uiso   1.00
C288   C     0.61314   0.02838   0.79581   0.00000  Uiso   1.00
C289   C     0.57321   0.04845   0.73190   0.00000  Uiso   1.00
C290   C     0.69658   0.86539   0.88614   0.00000  Uiso   1.00
C291   C     0.63872   0.86023   0.86982   0.00000  Uiso   1.00
C292   C     0.59559   0.80696   0.84845   0.00000  Uiso   1.00
C293   C     0.54585   0.81180   0.83615   0.00000  Uiso   1.00
C294   C     0.77690   0.88672   0.94818   0.00000  Uiso   1.00
C295   C     0.84995   0.85571   0.99269   0.00000  Uiso   1.00
C296   C     0.91653   0.88285   0.04637   0.00000  Uiso   1.00
C297   C     0.66615   0.92001   0.85150   0.00000  Uiso   1.00
C298   C     0.64611   0.91700   0.81473   0.00000  Uiso   1.00
C299   C     0.61948   0.97216   0.78701   0.00000  Uiso   1.00
H300   H     0.68001   0.01240   0.90916   0.00000  Uiso   1.00
H301   H     0.57783   0.96471   0.87315   0.00000  Uiso   1.00
H302   H     0.83214   0.01346   0.01737   0.00000  Uiso   1.00
H303   H     0.62833   0.07473   0.83943   0.00000  Uiso   1.00
H304   H     0.46736   0.88709   0.82938   0.00000  Uiso   1.00
H305   H     0.00360   0.98988   0.13347   0.00000  Uiso   1.00
H306   H     0.57383   0.11909   0.75826   0.00000  Uiso   1.00
H307   H     0.70151   0.82169   0.87930   0.00000  Uiso   1.00
H308   H     0.60050   0.76354   0.84165   0.00000  Uiso   1.00
H309   H     0.85482   0.81229   0.98588   0.00000  Uiso   1.00
H310   H     0.65101   0.87356   0.80794   0.00000  Uiso   1.00
H311   H     0.98576   0.22380   0.80382   0.00000  Uiso   1.00
H312   H     0.02201   0.82661   0.10791   0.00000  Uiso   1.00
H313   H     0.59224   0.95581   0.73270   0.00000  Uiso   1.00
O314   O     0.90975   0.27062   0.79239   0.00000  Uiso   1.00
O315   O     0.11328   0.90550   0.19135   0.00000  Uiso   1.00
O316   O     0.54943   0.07501   0.69907   0.00000  Uiso   1.00
N317   N     0.48554   0.85664   0.82852   0.00000  Uiso   1.00
N318   N     0.98689   0.95275   0.11283   0.00000  Uiso   1.00
N319   N     0.58511   0.07355   0.76205   0.00000  Uiso   1.00
N320   N     0.49544   0.76878   0.81476   0.00000  Uiso   1.00
N321   N     0.99680   0.86489   0.09908   0.00000  Uiso   1.00
N322   N     0.59502   0.98569   0.74829   0.00000  Uiso   1.00
C323   C     0.97277   0.35665   0.91436   0.00000  Uiso   1.00
C324   C     0.43172   0.91256   0.89980   0.00000  Uiso   1.00
C325   C     0.40908   0.96794   0.87406   0.00000  Uiso   1.00
C326   C     0.37231   0.01344   0.86434   0.00000  Uiso   1.00
C327   C     0.81068   0.60172   0.83941   0.00000  Uiso   1.00
C328   C     0.05034   0.34534   0.97812   0.00000  Uiso   1.00
C329   C     0.62742   0.84420   0.01822   0.00000  Uiso   1.00
C330   C     0.69050   0.83311   0.07443   0.00000  Uiso   1.00
C331   C     0.81301   0.81699   0.17107   0.00000  Uiso   1.00
C332   C     0.91910   0.29994   0.88472   0.00000  Uiso   1.00
C333   C     0.88586   0.26061   0.84630   0.00000  Uiso   1.00
C334   C     0.83847   0.21129   0.82388   0.00000  Uiso   1.00
C335   C     0.75722   0.12468   0.77550   0.00000  Uiso   1.00
C336   C     0.94773   0.33897   0.94289   0.00000  Uiso   1.00
C337   C     0.91812   0.40295   0.91530   0.00000  Uiso   1.00
C338   C     0.88137   0.44838   0.90562   0.00000  Uiso   1.00
C339   C     0.85868   0.50382   0.87986   0.00000  Uiso   1.00
C340   C     0.03674   0.33574   0.99362   0.00000  Uiso   1.00
C341   C     0.09971   0.32464   0.04978   0.00000  Uiso   1.00
C342   C     0.17687   0.32349   0.08995   0.00000  Uiso   1.00
C343   C     0.90550   0.29034   0.90021   0.00000  Uiso   1.00
C344   C     0.85815   0.24106   0.87786   0.00000  Uiso   1.00
C345   C     0.82484   0.20167   0.83940   0.00000  Uiso   1.00
H346   H     0.48337   0.86413   0.90230   0.00000  Uiso   1.00
H347   H     0.41963   0.97536   0.86208   0.00000  Uiso   1.00
H348   H     0.63793   0.85163   0.00621   0.00000  Uiso   1.00
H349   H     0.89641   0.26806   0.83432   0.00000  Uiso   1.00
H350   H     0.84299   0.59445   0.82434   0.00000  Uiso   1.00
H351   H     0.80329   0.83354   0.12825   0.00000  Uiso   1.00
H352   H     0.79399   0.15732   0.76577   0.00000  Uiso   1.00
H353   H     0.93714   0.33149   0.95496   0.00000  Uiso   1.00
H354   H     0.87085   0.44094   0.91762   0.00000  Uiso   1.00
H355   H     0.08916   0.31721   0.06175   0.00000  Uiso   1.00
H356   H     0.84764   0.23364   0.88986   0.00000  Uiso   1.00
H357   H     0.80340   0.56652   0.86942   0.00000  Uiso   1.00
H358   H     0.26371   0.30560   0.17333   0.00000  Uiso   1.00
H359   H     0.75440   0.12938   0.81085   0.00000  Uiso   1.00
O360   O     0.78045   0.65308   0.82138   0.00000  Uiso   1.00
O361   O     0.88434   0.81076   0.22010   0.00000  Uiso   1.00
O362   O     0.71615   0.07957   0.74454   0.00000  Uiso   1.00
N363   N     0.84275   0.57285   0.84006   0.00000  Uiso   1.00
N364   N     0.77311   0.82893   0.12420   0.00000  Uiso   1.00
N365   N     0.79697   0.16416   0.78532   0.00000  Uiso   1.00
N366   N     0.82145   0.55782   0.86431   0.00000  Uiso   1.00
N367   N     0.25181   0.31390   0.14846   0.00000  Uiso   1.00
N368   N     0.77567   0.14913   0.80958   0.00000  Uiso   1.00
C369   C     0.94921   0.76638   0.88602   0.00000  Uiso   1.00
C370   C     0.96286   0.76983   0.86808   0.00000  Uiso   1.00
C371   C     0.95731   0.71981   0.84879   0.00000  Uiso   1.00
C372   C     0.97201   0.73263   0.83449   0.00000  Uiso   1.00
C373   C     0.99028   0.72875   0.80593   0.00000  Uiso   1.00
C374   C     0.02592   0.79160   0.94682   0.00000  Uiso   1.00
C375   C     0.07339   0.75989   0.99372   0.00000  Uiso   1.00
C376   C     0.14117   0.79105   0.04569   0.00000  Uiso   1.00
C377   C     0.25730   0.82099   0.13936   0.00000  Uiso   1.00
C378   C     0.88350   0.81426   0.84927   0.00000  Uiso   1.00
C379   C     0.81122   0.80161   0.81416   0.00000  Uiso   1.00
C380   C     0.75910   0.85185   0.78402   0.00000  Uiso   1.00
C381   C     0.65410   0.91698   0.72623   0.00000  Uiso   1.00
C382   C     0.98517   0.87810   0.89493   0.00000  Uiso   1.00
C383   C     0.98240   0.83051   0.87292   0.00000  Uiso   1.00
C384   C     0.99710   0.84342   0.85865   0.00000  Uiso   1.00
C385   C     0.99158   0.79342   0.83934   0.00000  Uiso   1.00
C386   C     0.04546   0.85228   0.95166   0.00000  Uiso   1.00
C387   C     0.11318   0.88350   0.00357   0.00000  Uiso   1.00
C388   C     0.16074   0.85184   0.05054   0.00000  Uiso   1.00
C389   C     0.90303   0.87495   0.85411   0.00000  Uiso   1.00
C390   C     0.85101   0.92522   0.82402   0.00000  Uiso   1.00
C391   C     0.77867   0.91265   0.78887   0.00000  Uiso   1.00
H392   H     0.93400   0.71913   0.88226   0.00000  Uiso   1.00
H393   H     0.94220   0.67285   0.84506   0.00000  Uiso   1.00
H394   H     0.05825   0.71293   0.98996   0.00000  Uiso   1.00
H395   H     0.79613   0.75464   0.81043   0.00000  Uiso   1.00
H396   H     0.45994   0.14830   0.80597   0.00000  Uiso   1.00
H397   H     0.20462   0.73281   0.11150   0.00000  Uiso   1.00
H398   H     0.65187   0.82078   0.73293   0.00000  Uiso   1.00
H399   H     0.00038   0.92535   0.89870   0.00000  Uiso   1.00
H400   H     0.01222   0.89038   0.86240   0.00000  Uiso   1.00
H401   H     0.12827   0.93046   0.00730   0.00000  Uiso   1.00
H402   H     0.86615   0.97217   0.82777   0.00000  Uiso   1.00
H403   H     0.01677   0.82485   0.82005   0.00000  Uiso   1.00
H404   H     0.26145   0.90937   0.12558   0.00000  Uiso   1.00
H405   H     0.70871   0.99733   0.74701   0.00000  Uiso   1.00
O406   O     0.49497   0.20985   0.78885   0.00000  Uiso   1.00
O407   O     0.31597   0.82074   0.18969   0.00000  Uiso   1.00
O408   O     0.59079   0.93614   0.69302   0.00000  Uiso   1.00
N409   N     0.97167   0.69465   0.81426   0.00000  Uiso   1.00
N410   N     0.20044   0.77366   0.09991   0.00000  Uiso   1.00
N411   N     0.68368   0.85591   0.74599   0.00000  Uiso   1.00
N412   N     0.00225   0.78965   0.82183   0.00000  Uiso   1.00
N413   N     0.23102   0.86867   0.10748   0.00000  Uiso   1.00
N414   N     0.71426   0.95091   0.75356   0.00000  Uiso   1.00
C415   C     0.18493   0.46871   0.90231   0.00000  Uiso   1.00
C416   C     0.13239   0.41635   0.87860   0.00000  Uiso   1.00
C417   C     0.08270   0.42127   0.86634   0.00000  Uiso   1.00
C418   C     0.03952   0.36802   0.84495   0.00000  Uiso   1.00
C419   C     0.45700   0.79526   0.80951   0.00000  Uiso   1.00
C420   C     0.27057   0.44284   0.95697   0.00000  Uiso   1.00
C421   C     0.33706   0.47003   0.01059   0.00000  Uiso   1.00
C422   C     0.41019   0.43907   0.05517   0.00000  Uiso   1.00
C423   C     0.54221   0.40744   0.14137   0.00000  Uiso   1.00
C424   C     0.15982   0.47613   0.86029   0.00000  Uiso   1.00
C425   C     0.13322   0.53131   0.83263   0.00000  Uiso   1.00
C426   C     0.11314   0.52838   0.79581   0.00000  Uiso   1.00
C427   C     0.07321   0.54845   0.73190   0.00000  Uiso   1.00
C428   C     0.19658   0.36539   0.88614   0.00000  Uiso   1.00
C429   C     0.13872   0.36023   0.86982   0.00000  Uiso   1.00
C430   C     0.09559   0.30696   0.84845   0.00000  Uiso   1.00
C431   C     0.04585   0.31180   0.83615   0.00000  Uiso   1.00
C432   C     0.27690   0.38672   0.94818   0.00000  Uiso   1.00
C433   C     0.34995   0.35571   0.99269   0.00000  Uiso   1.00
C434   C     0.41653   0.38285   0.04637   0.00000  Uiso   1.00
C435   C     0.16615   0.42001   0.85150   0.00000  Uiso   1.00
C436   C     0.14611   0.41700   0.81473   0.00000  Uiso   1.00
C437   C     0.11948   0.47216   0.78701   0.00000  Uiso   1.00
H438   H     0.18001   0.51240   0.90916   0.00000  Uiso   1.00
H439   H     0.07783   0.46471   0.87315   0.00000  Uiso   1.00
H440   H     0.33214   0.51346   0.01737   0.00000  Uiso   1.00
H441   H     0.12833   0.57473   0.83943   0.00000  Uiso   1.00
H442   H     0.96736   0.38709   0.82938   0.00000  Uiso   1.00
H443   H     0.50360   0.48988   0.13347   0.00000  Uiso   1.00
H444   H     0.07383   0.61909   0.75826   0.00000  Uiso   1.00
H445   H     0.20151   0.32169   0.87930   0.00000  Uiso   1.00
H446   H     0.10050   0.26354   0.84165   0.00000  Uiso   1.00
H447   H     0.35482   0.31229   0.98588   0.00000  Uiso   1.00
H448   H     0.15101   0.37356   0.80794   0.00000  Uiso   1.00
H449   H     0.48576   0.72380   0.80382   0.00000  Uiso   1.00
H450   H     0.52201   0.32661   0.10791   0.00000  Uiso   1.00
H451   H     0.09224   0.45581   0.73270   0.00000  Uiso   1.00
O452   O     0.40975   0.77062   0.79239   0.00000  Uiso   1.00
O453   O     0.61328   0.40550   0.19135   0.00000  Uiso   1.00
O454   O     0.04943   0.57501   0.69907   0.00000  Uiso   1.00
N455   N     0.98554   0.35664   0.82852   0.00000  Uiso   1.00
N456   N     0.48689   0.45275   0.11283   0.00000  Uiso   1.00
N457   N     0.08511   0.57355   0.76205   0.00000  Uiso   1.00
N458   N     0.99544   0.26878   0.81476   0.00000  Uiso   1.00
N459   N     0.49680   0.36489   0.09908   0.00000  Uiso   1.00
N460   N     0.09502   0.48569   0.74829   0.00000  Uiso   1.00
C461   C     0.47277   0.85665   0.91436   0.00000  Uiso   1.00
C462   C     0.93172   0.41256   0.89980   0.00000  Uiso   1.00
C463   C     0.90908   0.46794   0.87406   0.00000  Uiso   1.00
C464   C     0.87231   0.51344   0.86434   0.00000  Uiso   1.00
C465   C     0.31068   0.10172   0.83941   0.00000  Uiso   1.00
C466   C     0.55034   0.84534   0.97812   0.00000  Uiso   1.00
C467   C     0.12742   0.34420   0.01822   0.00000  Uiso   1.00
C468   C     0.19050   0.33311   0.07443   0.00000  Uiso   1.00
C469   C     0.31301   0.31699   0.17107   0.00000  Uiso   1.00
C470   C     0.41910   0.79994   0.88472   0.00000  Uiso   1.00
C471   C     0.38586   0.76061   0.84630   0.00000  Uiso   1.00
C472   C     0.33847   0.71129   0.82388   0.00000  Uiso   1.00
C473   C     0.25722   0.62468   0.77550   0.00000  Uiso   1.00
C474   C     0.44773   0.83897   0.94289   0.00000  Uiso   1.00
C475   C     0.41812   0.90295   0.91530   0.00000  Uiso   1.00
C476   C     0.38137   0.94838   0.90562   0.00000  Uiso   1.00
C477   C     0.35868   0.00382   0.87986   0.00000  Uiso   1.00
C478   C     0.53674   0.83574   0.99362   0.00000  Uiso   1.00
C479   C     0.59971   0.82464   0.04978   0.00000  Uiso   1.00
C480   C     0.67687   0.82349   0.08995   0.00000  Uiso   1.00
C481   C     0.40550   0.79034   0.90021   0.00000  Uiso   1.00
C482   C     0.35815   0.74106   0.87786   0.00000  Uiso   1.00
C483   C     0.32484   0.70167   0.83940   0.00000  Uiso   1.00
H484   H     0.98337   0.36413   0.90230   0.00000  Uiso   1.00
H485   H     0.91963   0.47536   0.86208   0.00000  Uiso   1.00
H486   H     0.13793   0.35163   0.00621   0.00000  Uiso   1.00
H487   H     0.39641   0.76806   0.83432   0.00000  Uiso   1.00
H488   H     0.34299   0.09445   0.82434   0.00000  Uiso   1.00
H489   H     0.30329   0.33354   0.12825   0.00000  Uiso   1.00
H490   H     0.29399   0.65732   0.76577   0.00000  Uiso   1.00
H491   H     0.43714   0.83149   0.95496   0.00000  Uiso   1.00
H492   H     0.37085   0.94094   0.91762   0.00000  Uiso   1.00
H493   H     0.58916   0.81721   0.06175   0.00000  Uiso   1.00
H494   H     0.34764   0.73364   0.88986   0.00000  Uiso   1.00
H495   H     0.30340   0.06652   0.86942   0.00000  Uiso   1.00
H496   H     0.76371   0.80560   0.17333   0.00000  Uiso   1.00
H497   H     0.25440   0.62938   0.81085   0.00000  Uiso   1.00
O498   O     0.28045   0.15308   0.82138   0.00000  Uiso   1.00
O499   O     0.38434   0.31076   0.22010   0.00000  Uiso   1.00
O500   O     0.21615   0.57957   0.74454   0.00000  Uiso   1.00
N501   N     0.34275   0.07285   0.84006   0.00000  Uiso   1.00
N502   N     0.27311   0.32893   0.12420   0.00000  Uiso   1.00
N503   N     0.29697   0.66416   0.78532   0.00000  Uiso   1.00
N504   N     0.32145   0.05782   0.86431   0.00000  Uiso   1.00
N505   N     0.75181   0.81390   0.14846   0.00000  Uiso   1.00
N506   N     0.27567   0.64913   0.80958   0.00000  Uiso   1.00
C507   C     0.44921   0.26638   0.88602   0.00000  Uiso   1.00
C508   C     0.46286   0.26983   0.86808   0.00000  Uiso   1.00
C509   C     0.45731   0.21981   0.84879   0.00000  Uiso   1.00
C510   C     0.47201   0.23263   0.83449   0.00000  Uiso   1.00
C511   C     0.49028   0.22875   0.80593   0.00000  Uiso   1.00
C512   C     0.52592   0.29160   0.94682   0.00000  Uiso   1.00
C513   C     0.57339   0.25989   0.99372   0.00000  Uiso   1.00
C514   C     0.64117   0.29105   0.04569   0.00000  Uiso   1.00
C515   C     0.75730   0.32099   0.13936   0.00000  Uiso   1.00
C516   C     0.38350   0.31426   0.84927   0.00000  Uiso   1.00
C517   C     0.31122   0.30161   0.81416   0.00000  Uiso   1.00
C518   C     0.25910   0.35185   0.78402   0.00000  Uiso   1.00
C519   C     0.15410   0.41698   0.72623   0.00000  Uiso   1.00
C520   C     0.48517   0.37810   0.89493   0.00000  Uiso   1.00
C521   C     0.48240   0.33051   0.87292   0.00000  Uiso   1.00
C522   C     0.49710   0.34342   0.85865   0.00000  Uiso   1.00
C523   C     0.49158   0.29342   0.83934   0.00000  Uiso   1.00
C524   C     0.54546   0.35228   0.95166   0.00000  Uiso   1.00
C525   C     0.61318   0.38350   0.00357   0.00000  Uiso   1.00
C526   C     0.66074   0.35184   0.05054   0.00000  Uiso   1.00
C527   C     0.40303   0.37495   0.85411   0.00000  Uiso   1.00
C528   C     0.35101   0.42522   0.82402   0.00000  Uiso   1.00
C529   C     0.27867   0.41265   0.78887   0.00000  Uiso   1.00
H530   H     0.43400   0.21913   0.88226   0.00000  Uiso   1.00
H531   H     0.44220   0.17285   0.84506   0.00000  Uiso   1.00
H532   H     0.55825   0.21293   0.98996   0.00000  Uiso   1.00
H533   H     0.29613   0.25464   0.81043   0.00000  Uiso   1.00
H534   H     0.95994   0.64830   0.80597   0.00000  Uiso   1.00
H535   H     0.70462   0.23281   0.11150   0.00000  Uiso   1.00
H536   H     0.15187   0.32078   0.73293   0.00000  Uiso   1.00
H537   H     0.50038   0.42535   0.89870   0.00000  Uiso   1.00
H538   H     0.51222   0.39038   0.86240   0.00000  Uiso   1.00
H539   H     0.62827   0.43046   0.00730   0.00000  Uiso   1.00
H540   H     0.36615   0.47217   0.82777   0.00000  Uiso   1.00
H541   H     0.51677   0.32485   0.82005   0.00000  Uiso   1.00
H542   H     0.76145   0.40937   0.12558   0.00000  Uiso   1.00
H543   H     0.20871   0.49733   0.74701   0.00000  Uiso   1.00
O544   O     0.99497   0.70985   0.78885   0.00000  Uiso   1.00
O545   O     0.81597   0.32074   0.18969   0.00000  Uiso   1.00
O546   O     0.09079   0.43614   0.69302   0.00000  Uiso   1.00
N547   N     0.47167   0.19465   0.81426   0.00000  Uiso   1.00
N548   N     0.70044   0.27366   0.09991   0.00000  Uiso   1.00
N549   N     0.18368   0.35591   0.74599   0.00000  Uiso   1.00
N550   N     0.50225   0.28965   0.82183   0.00000  Uiso   1.00
N551   N     0.73102   0.36867   0.10748   0.00000  Uiso   1.00
N552   N     0.21426   0.45091   0.75356   0.00000  Uiso   1.00
C553   C     0.68493   0.03129   0.40231   0.00000  Uiso   1.00
C554   C     0.63239   0.08365   0.37860   0.00000  Uiso   1.00
C555   C     0.58270   0.07873   0.36634   0.00000  Uiso   1.00
C556   C     0.53952   0.13198   0.34495   0.00000  Uiso   1.00
C557   C     0.95700   0.70474   0.30951   0.00000  Uiso   1.00
C558   C     0.77057   0.05716   0.45697   0.00000  Uiso   1.00
C559   C     0.83706   0.02997   0.51059   0.00000  Uiso   1.00
C560   C     0.91019   0.06093   0.55517   0.00000  Uiso   1.00
C561   C     0.04221   0.09256   0.64137   0.00000  Uiso   1.00
C562   C     0.65982   0.02387   0.36029   0.00000  Uiso   1.00
C563   C     0.63322   0.96869   0.33263   0.00000  Uiso   1.00
C564   C     0.61314   0.97162   0.29581   0.00000  Uiso   1.00
C565   C     0.57321   0.95155   0.23190   0.00000  Uiso   1.00
C566   C     0.69658   0.13461   0.38614   0.00000  Uiso   1.00
C567   C     0.63872   0.13977   0.36982   0.00000  Uiso   1.00
C568   C     0.59559   0.19304   0.34845   0.00000  Uiso   1.00
C569   C     0.54585   0.18820   0.33615   0.00000  Uiso   1.00
C570   C     0.77690   0.11328   0.44818   0.00000  Uiso   1.00
C571   C     0.84995   0.14429   0.49269   0.00000  Uiso   1.00
C572   C     0.91653   0.11715   0.54637   0.00000  Uiso   1.00
C573   C     0.66615   0.07999   0.35150   0.00000  Uiso   1.00
C574   C     0.64611   0.08300   0.31473   0.00000  Uiso   1.00
C575   C     0.61948   0.02784   0.28701   0.00000  Uiso   1.00
H576   H     0.68001   0.98760   0.40916   0.00000  Uiso   1.00
H577   H     0.57783   0.03529   0.37315   0.00000  Uiso   1.00
H578   H     0.83214   0.98654   0.51737   0.00000  Uiso   1.00
H579   H     0.62833   0.92527   0.33943   0.00000  Uiso   1.00
H580   H     0.46736   0.11291   0.32938   0.00000  Uiso   1.00
H581   H     0.00360   0.01012   0.63347   0.00000  Uiso   1.00
H582   H     0.57383   0.88091   0.25826   0.00000  Uiso   1.00
H583   H     0.70151   0.17831   0.37930   0.00000  Uiso   1.00
H584   H     0.60050   0.23646   0.34165   0.00000  Uiso   1.00
H585   H     0.85482   0.18771   0.48588   0.00000  Uiso   1.00
H586   H     0.65101   0.12644   0.30794   0.00000  Uiso   1.00
H587   H     0.98576   0.77620   0.30382   0.00000  Uiso   1.00
H588   H     0.02201   0.17339   0.60791   0.00000  Uiso   1.00
H589   H     0.59224   0.04419   0.23270   0.00000  Uiso   1.00
O590   O     0.90975   0.72938   0.29239   0.00000  Uiso   1.00
O591   O     0.11328   0.09450   0.69135   0.00000  Uiso   1.00
O592   O     0.54943   0.92499   0.19907   0.00000  Uiso   1.00
N593   N     0.48554   0.14336   0.32852   0.00000  Uiso   1.00
N594   N     0.98689   0.04725   0.61283   0.00000  Uiso   1.00
N595   N     0.58511   0.92645   0.26205   0.00000  Uiso   1.00
N596   N     0.49544   0.23122   0.31476   0.00000  Uiso   1.00
N597   N     0.99680   0.13511   0.59908   0.00000  Uiso   1.00
N598   N     0.59502   0.01431   0.24829   0.00000  Uiso   1.00
C599   C     0.97277   0.64335   0.41436   0.00000  Uiso   1.00
C600   C     0.43172   0.08744   0.39980   0.00000  Uiso   1.00
C601   C     0.40908   0.03206   0.37406   0.00000  Uiso   1.00
C602   C     0.37231   0.98656   0.36434   0.00000  Uiso   1.00
C603   C     0.81068   0.39828   0.33941   0.00000  Uiso   1.00
C604   C     0.05034   0.65466   0.47812   0.00000  Uiso   1.00
C605   C     0.62742   0.15580   0.51822   0.00000  Uiso   1.00
C606   C     0.69050   0.16689   0.57443   0.00000  Uiso   1.00
C607   C     0.81301   0.18301   0.67107   0.00000  Uiso   1.00
C608   C     0.91910   0.70006   0.38472   0.00000  Uiso   1.00
C609   C     0.88586   0.73939   0.34630   0.00000  Uiso   1.00
C610   C     0.83847   0.78871   0.32388   0.00000  Uiso   1.00
C611   C     0.75722   0.87532   0.27550   0.00000  Uiso   1.00
C612   C     0.94773   0.66103   0.44289   0.00000  Uiso   1.00
C613   C     0.91812   0.59705   0.41530   0.00000  Uiso   1.00
C614   C     0.88137   0.55162   0.40562   0.00000  Uiso   1.00
C615   C     0.85868   0.49618   0.37986   0.00000  Uiso   1.00
C616   C     0.03674   0.66426   0.49362   0.00000  Uiso   1.00
C617   C     0.09971   0.67536   0.54978   0.00000  Uiso   1.00
C618   C     0.17687   0.67651   0.58995   0.00000  Uiso   1.00
C619   C     0.90550   0.70966   0.40021   0.00000  Uiso   1.00
C620   C     0.85815   0.75894   0.37786   0.00000  Uiso   1.00
C621   C     0.82484   0.79833   0.33940   0.00000  Uiso   1.00
H622   H     0.48337   0.13587   0.40230   0.00000  Uiso   1.00
H623   H     0.41963   0.02464   0.36208   0.00000  Uiso   1.00
H624   H     0.63793   0.14837   0.50621   0.00000  Uiso   1.00
H625   H     0.89641   0.73194   0.33432   0.00000  Uiso   1.00
H626   H     0.84299   0.40555   0.32434   0.00000  Uiso   1.00
H627   H     0.80329   0.16646   0.62825   0.00000  Uiso   1.00
H628   H     0.79399   0.84268   0.26577   0.00000  Uiso   1.00
H629   H     0.93714   0.66851   0.45496   0.00000  Uiso   1.00
H630   H     0.87085   0.55906   0.41762   0.00000  Uiso   1.00
H631   H     0.08916   0.68279   0.56175   0.00000  Uiso   1.00
H632   H     0.84764   0.76636   0.38986   0.00000  Uiso   1.00
H633   H     0.80340   0.43348   0.36942   0.00000  Uiso   1.00
H634   H     0.26371   0.69440   0.67333   0.00000  Uiso   1.00
H635   H     0.75440   0.87062   0.31085   0.00000  Uiso   1.00
O636   O     0.78045   0.34692   0.32138   0.00000  Uiso   1.00
O637   O     0.88434   0.18924   0.72010   0.00000  Uiso   1.00
O638   O     0.71615   0.92043   0.24454   0.00000  Uiso   1.00
N639   N     0.84275   0.42715   0.34006   0.00000  Uiso   1.00
N640   N     0.77311   0.17107   0.62420   0.00000  Uiso   1.00
N641   N     0.79697   0.83584   0.28532   0.00000  Uiso   1.00
N642   N     0.82145   0.44218   0.36431   0.00000  Uiso   1.00
N643   N     0.25181   0.68610   0.64846   0.00000  Uiso   1.00
N644   N     0.77567   0.85087   0.30958   0.00000  Uiso   1.00
C645   C     0.94921   0.23362   0.38602   0.00000  Uiso   1.00
C646   C     0.96286   0.23017   0.36808   0.00000  Uiso   1.00
C647   C     0.95731   0.28019   0.34879   0.00000  Uiso   1.00
C648   C     0.97201   0.26737   0.33449   0.00000  Uiso   1.00
C649   C     0.99028   0.27125   0.30593   0.00000  Uiso   1.00
C650   C     0.02592   0.20840   0.44682   0.00000  Uiso   1.00
C651   C     0.07339   0.24011   0.49372   0.00000  Uiso   1.00
C652   C     0.14117   0.20895   0.54569   0.00000  Uiso   1.00
C653   C     0.25730   0.17901   0.63936   0.00000  Uiso   1.00
C654   C     0.88350   0.18574   0.34927   0.00000  Uiso   1.00
C655   C     0.81122   0.19839   0.31416   0.00000  Uiso   1.00
C656   C     0.75910   0.14815   0.28402   0.00000  Uiso   1.00
C657   C     0.65410   0.08302   0.22623   0.00000  Uiso   1.00
C658   C     0.98517   0.12190   0.39493   0.00000  Uiso   1.00
C659   C     0.98240   0.16949   0.37292   0.00000  Uiso   1.00
C660   C     0.99710   0.15658   0.35865   0.00000  Uiso   1.00
C661   C     0.99158   0.20658   0.33934   0.00000  Uiso   1.00
C662   C     0.04546   0.14772   0.45166   0.00000  Uiso   1.00
C663   C     0.11318   0.11650   0.50357   0.00000  Uiso   1.00
C664   C     0.16074   0.14816   0.55054   0.00000  Uiso   1.00
C665   C     0.90303   0.12505   0.35411   0.00000  Uiso   1.00
C666   C     0.85101   0.07478   0.32402   0.00000  Uiso   1.00
C667   C     0.77867   0.08735   0.28887   0.00000  Uiso   1.00
H668   H     0.93400   0.28087   0.38226   0.00000  Uiso   1.00
H669   H     0.94220   0.32715   0.34506   0.00000  Uiso   1.00
H670   H     0.05825   0.28707   0.48996   0.00000  Uiso   1.00
H671   H     0.79613   0.24536   0.31043   0.00000  Uiso   1.00
H672   H     0.45994   0.85170   0.30597   0.00000  Uiso   1.00
H673   H     0.20462   0.26719   0.61150   0.00000  Uiso   1.00
H674   H     0.65187   0.17922   0.23293   0.00000  Uiso   1.00
H675   H     0.00038   0.07465   0.39870   0.00000  Uiso   1.00
H676   H     0.01222   0.10962   0.36240   0.00000  Uiso   1.00
H677   H     0.12827   0.06954   0.50730   0.00000  Uiso   1.00
H678   H     0.86615   0.02783   0.32777   0.00000  Uiso   1.00
H679   H     0.01677   0.17515   0.32005   0.00000  Uiso   1.00
H680   H     0.26145   0.09063   0.62558   0.00000  Uiso   1.00
H681   H     0.70871   0.00267   0.24701   0.00000  Uiso   1.00
O682   O     0.49497   0.79015   0.28885   0.00000  Uiso   1.00
O683   O     0.31597   0.17926   0.68969   0.00000  Uiso   1.00
O684   O     0.59079   0.06386   0.19302   0.00000  Uiso   1.00
N685   N     0.97167   0.30535   0.31426   0.00000  Uiso   1.00
N686   N     0.20044   0.22634   0.59991   0.00000  Uiso   1.00
N687   N     0.68368   0.14409   0.24599   0.00000  Uiso   1.00
N688   N     0.00225   0.21035   0.32183   0.00000  Uiso   1.00
N689   N     0.23102   0.13133   0.60748   0.00000  Uiso   1.00
N690   N     0.71426   0.04909   0.25356   0.00000  Uiso   1.00
C691   C     0.18493   0.53129   0.40231   0.00000  Uiso   1.00
C692   C     0.13239   0.58365   0.37860   0.00000  Uiso   1.00
C693   C     0.08270   0.57873   0.36634   0.00000  Uiso   1.00
C694   C     0.03952   0.63198   0.34495   0.00000  Uiso   1.00
C695   C     0.45700   0.20474   0.30951   0.00000  Uiso   1.00
C696   C     0.27057   0.55716   0.45697   0.00000  Uiso   1.00
C697   C     0.33706   0.52997   0.51059   0.00000  Uiso   1.00
C698   C     0.41019   0.56093   0.55517   0.00000  Uiso   1.00
C699   C     0.54221   0.59256   0.64137   0.00000  Uiso   1.00
C700   C     0.15982   0.52387   0.36029   0.00000  Uiso   1.00
C701   C     0.13322   0.46869   0.33263   0.00000  Uiso   1.00
C702   C     0.11314   0.47162   0.29581   0.00000  Uiso   1.00
C703   C     0.07321   0.45155   0.23190   0.00000  Uiso   1.00
C704   C     0.19658   0.63461   0.38614   0.00000  Uiso   1.00
C705   C     0.13872   0.63977   0.36982   0.00000  Uiso   1.00
C706   C     0.09559   0.69304   0.34845   0.00000  Uiso   1.00
C707   C     0.04585   0.68820   0.33615   0.00000  Uiso   1.00
C708   C     0.27690   0.61328   0.44818   0.00000  Uiso   1.00
C709   C     0.34995   0.64429   0.49269   0.00000  Uiso   1.00
C710   C     0.41653   0.61715   0.54637   0.00000  Uiso   1.00
C711   C     0.16615   0.57999   0.35150   0.00000  Uiso   1.00
C712   C     0.14611   0.58300   0.31473   0.00000  Uiso   1.00
C713   C     0.11948   0.52784   0.28701   0.00000  Uiso   1.00
H714   H     0.18001   0.48760   0.40916   0.00000  Uiso   1.00
H715   H     0.07783   0.53529   0.37315   0.00000  Uiso   1.00
H716   H     0.33214   0.48654   0.51737   0.00000  Uiso   1.00
H717   H     0.12833   0.42527   0.33943   0.00000  Uiso   1.00
H718   H     0.96736   0.61291   0.32938   0.00000  Uiso   1.00
H719   H     0.50360   0.51012   0.63347   0.00000  Uiso   1.00
H720   H     0.07383   0.38091   0.25826   0.00000  Uiso   1.00
H721   H     0.20151   0.67831   0.37930   0.00000  Uiso   1.00
H722   H     0.10050   0.73646   0.34165   0.00000  Uiso   1.00
H723   H     0.35482   0.68771   0.48588   0.00000  Uiso   1.00
H724   H     0.15101   0.62644   0.30794   0.00000  Uiso   1.00
H725   H     0.48576   0.27620   0.30382   0.00000  Uiso   1.00
H726   H     0.52201   0.67339   0.60791   0.00000  Uiso   1.00
H727   H     0.09224   0.54419   0.23270   0.00000  Uiso   1.00
O728   O     0.40975   0.22938   0.29239   0.00000  Uiso   1.00
O729   O     0.61328   0.59450   0.69135   0.00000  Uiso   1.00
O730   O     0.04943   0.42499   0.19907   0.00000  Uiso   1.00
N731   N     0.98554   0.64336   0.32852   0.00000  Uiso   1.00
N732   N     0.48689   0.54725   0.61283   0.00000  Uiso   1.00
N733   N     0.08511   0.42645   0.26205   0.00000  Uiso   1.00
N734   N     0.99544   0.73122   0.31476   0.00000  Uiso   1.00
N735   N     0.49680   0.63511   0.59908   0.00000  Uiso   1.00
N736   N     0.09502   0.51431   0.24829   0.00000  Uiso   1.00
C737   C     0.47277   0.14335   0.41436   0.00000  Uiso   1.00
C738   C     0.93172   0.58744   0.39980   0.00000  Uiso   1.00
C739   C     0.90908   0.53206   0.37406   0.00000  Uiso   1.00
C740   C     0.87231   0.48656   0.36434   0.00000  Uiso   1.00
C741   C     0.31068   0.89828   0.33941   0.00000  Uiso   1.00
C742   C     0.55034   0.15466   0.47812   0.00000  Uiso   1.00
C743   C     0.12742   0.65580   0.51822   0.00000  Uiso   1.00
C744   C     0.19050   0.66689   0.57443   0.00000  Uiso   1.00
C745   C     0.31301   0.68301   0.67107   0.00000  Uiso   1.00
C746   C     0.41910   0.20006   0.38472   0.00000  Uiso   1.00
C747   C     0.38586   0.23939   0.34630   0.00000  Uiso   1.00
C748   C     0.33847   0.28871   0.32388   0.00000  Uiso   1.00
C749   C     0.25722   0.37532   0.27550   0.00000  Uiso   1.00
C750   C     0.44773   0.16103   0.44289   0.00000  Uiso   1.00
C751   C     0.41812   0.09705   0.41530   0.00000  Uiso   1.00
C752   C     0.38137   0.05162   0.40562   0.00000  Uiso   1.00
C753   C     0.35868   0.99618   0.37986   0.00000  Uiso   1.00
C754   C     0.53674   0.16426   0.49362   0.00000  Uiso   1.00
C755   C     0.59971   0.17536   0.54978   0.00000  Uiso   1.00
C756   C     0.67687   0.17651   0.58995   0.00000  Uiso   1.00
C757   C     0.40550   0.20966   0.40021   0.00000  Uiso   1.00
C758   C     0.35815   0.25894   0.37786   0.00000  Uiso   1.00
C759   C     0.32484   0.29833   0.33940   0.00000  Uiso   1.00
H760   H     0.98337   0.63587   0.40230   0.00000  Uiso   1.00
H761   H     0.91963   0.52464   0.36208   0.00000  Uiso   1.00
H762   H     0.13793   0.64837   0.50621   0.00000  Uiso   1.00
H763   H     0.39641   0.23194   0.33432   0.00000  Uiso   1.00
H764   H     0.34299   0.90555   0.32434   0.00000  Uiso   1.00
H765   H     0.30329   0.66646   0.62825   0.00000  Uiso   1.00
H766   H     0.29399   0.34268   0.26577   0.00000  Uiso   1.00
H767   H     0.43714   0.16851   0.45496   0.00000  Uiso   1.00
H768   H     0.37085   0.05906   0.41762   0.00000  Uiso   1.00
H769   H     0.58916   0.18279   0.56175   0.00000  Uiso   1.00
H770   H     0.34764   0.26636   0.38986   0.00000  Uiso   1.00
H771   H     0.30340   0.93348   0.36942   0.00000  Uiso   1.00
H772   H     0.76371   0.19440   0.67333   0.00000  Uiso   1.00
H773   H     0.25440   0.37062   0.31085   0.00000  Uiso   1.00
O774   O     0.28045   0.84692   0.32138   0.00000  Uiso   1.00
O775   O     0.38434   0.68924   0.72010   0.00000  Uiso   1.00
O776   O     0.21615   0.42043   0.24454   0.00000  Uiso   1.00
N777   N     0.34275   0.92715   0.34006   0.00000  Uiso   1.00
N778   N     0.27311   0.67107   0.62420   0.00000  Uiso   1.00
N779   N     0.29697   0.33584   0.28532   0.00000  Uiso   1.00
N780   N     0.32145   0.94218   0.36431   0.00000  Uiso   1.00
N781   N     0.75181   0.18610   0.64846   0.00000  Uiso   1.00
N782   N     0.27567   0.35087   0.30958   0.00000  Uiso   1.00
C783   C     0.44921   0.73362   0.38602   0.00000  Uiso   1.00
C784   C     0.46286   0.73017   0.36808   0.00000  Uiso   1.00
C785   C     0.45731   0.78019   0.34879   0.00000  Uiso   1.00
C786   C     0.47201   0.76737   0.33449   0.00000  Uiso   1.00
C787   C     0.49028   0.77125   0.30593   0.00000  Uiso   1.00
C788   C     0.52592   0.70840   0.44682   0.00000  Uiso   1.00
C789   C     0.57339   0.74011   0.49372   0.00000  Uiso   1.00
C790   C     0.64117   0.70895   0.54569   0.00000  Uiso   1.00
C791   C     0.75730   0.67901   0.63936   0.00000  Uiso   1.00
C792   C     0.38350   0.68574   0.34927   0.00000  Uiso   1.00
C793   C     0.31122   0.69839   0.31416   0.00000  Uiso   1.00
C794   C     0.25910   0.64815   0.28402   0.00000  Uiso   1.00
C795   C     0.15410   0.58302   0.22623   0.00000  Uiso   1.00
C796   C     0.48517   0.62190   0.39493   0.00000  Uiso   1.00
C797   C     0.48240   0.66949   0.37292   0.00000  Uiso   1.00
C798   C     0.49710   0.65658   0.35865   0.00000  Uiso   1.00
C799   C     0.49158   0.70658   0.33934   0.00000  Uiso   1.00
C800   C     0.54546   0.64772   0.45166   0.00000  Uiso   1.00
C801   C     0.61318   0.61650   0.50357   0.00000  Uiso   1.00
C802   C     0.66074   0.64816   0.55054   0.00000  Uiso   1.00
C803   C     0.40303   0.62505   0.35411   0.00000  Uiso   1.00
C804   C     0.35101   0.57478   0.32402   0.00000  Uiso   1.00
C805   C     0.27867   0.58735   0.28887   0.00000  Uiso   1.00
H806   H     0.43400   0.78087   0.38226   0.00000  Uiso   1.00
H807   H     0.44220   0.82715   0.34506   0.00000  Uiso   1.00
H808   H     0.55825   0.78707   0.48996   0.00000  Uiso   1.00
H809   H     0.29613   0.74536   0.31043   0.00000  Uiso   1.00
H810   H     0.95994   0.35170   0.30597   0.00000  Uiso   1.00
H811   H     0.70462   0.76719   0.61150   0.00000  Uiso   1.00
H812   H     0.15187   0.67922   0.23293   0.00000  Uiso   1.00
H813   H     0.50038   0.57465   0.39870   0.00000  Uiso   1.00
H814   H     0.51222   0.60962   0.36240   0.00000  Uiso   1.00
H815   H     0.62827   0.56954   0.50730   0.00000  Uiso   1.00
H816   H     0.36615   0.52783   0.32777   0.00000  Uiso   1.00
H817   H     0.51677   0.67515   0.32005   0.00000  Uiso   1.00
H818   H     0.76145   0.59063   0.62558   0.00000  Uiso   1.00
H819   H     0.20871   0.50267   0.24701   0.00000  Uiso   1.00
O820   O     0.99497   0.29015   0.28885   0.00000  Uiso   1.00
O821   O     0.81597   0.67926   0.68969   0.00000  Uiso   1.00
O822   O     0.09079   0.56386   0.19302   0.00000  Uiso   1.00
N823   N     0.47167   0.80535   0.31426   0.00000  Uiso   1.00
N824   N     0.70044   0.72634   0.59991   0.00000  Uiso   1.00
N825   N     0.18368   0.64409   0.24599   0.00000  Uiso   1.00
N826   N     0.50225   0.71035   0.32183   0.00000  Uiso   1.00
N827   N     0.73102   0.63133   0.60748   0.00000  Uiso   1.00
N828   N     0.21426   0.54909   0.25356   0.00000  Uiso   1.00
C829   C     0.31507   0.03129   0.09769   0.00000  Uiso   1.00
C830   C     0.36761   0.08365   0.12140   0.00000  Uiso   1.00
C831   C     0.41730   0.07873   0.13366   0.00000  Uiso   1.00
C832   C     0.46048   0.13198   0.15505   0.00000  Uiso   1.00
C833   C     0.04300   0.70474   0.19049   0.00000  Uiso   1.00
C834   C     0.22943   0.05716   0.04303   0.00000  Uiso   1.00
C835   C     0.16294   0.02997   0.98941   0.00000  Uiso   1.00
C836   C     0.08981   0.06093   0.94483   0.00000  Uiso   1.00
C837   C     0.95779   0.09256   0.85863   0.00000  Uiso   1.00
C838   C     0.34018   0.02387   0.13971   0.00000  Uiso   1.00
C839   C     0.36678   0.96869   0.16737   0.00000  Uiso   1.00
C840   C     0.38686   0.97162   0.20419   0.00000  Uiso   1.00
C841   C     0.42679   0.95155   0.26810   0.00000  Uiso   1.00
C842   C     0.30342   0.13461   0.11386   0.00000  Uiso   1.00
C843   C     0.36128   0.13977   0.13018   0.00000  Uiso   1.00
C844   C     0.40441   0.19304   0.15155   0.00000  Uiso   1.00
C845   C     0.45415   0.18820   0.16385   0.00000  Uiso   1.00
C846   C     0.22310   0.11328   0.05182   0.00000  Uiso   1.00
C847   C     0.15005   0.14429   0.00731   0.00000  Uiso   1.00
C848   C     0.08347   0.11715   0.95363   0.00000  Uiso   1.00
C849   C     0.33385   0.07999   0.14850   0.00000  Uiso   1.00
C850   C     0.35389   0.08300   0.18527   0.00000  Uiso   1.00
C851   C     0.38052   0.02784   0.21299   0.00000  Uiso   1.00
H852   H     0.31999   0.98760   0.09084   0.00000  Uiso   1.00
H853   H     0.42217   0.03529   0.12685   0.00000  Uiso   1.00
H854   H     0.16786   0.98654   0.98263   0.00000  Uiso   1.00
H855   H     0.37167   0.92527   0.16057   0.00000  Uiso   1.00
H856   H     0.53264   0.11291   0.17062   0.00000  Uiso   1.00
H857   H     0.99640   0.01012   0.86653   0.00000  Uiso   1.00
H858   H     0.42617   0.88091   0.24174   0.00000  Uiso   1.00
H859   H     0.29849   0.17831   0.12070   0.00000  Uiso   1.00
H860   H     0.39950   0.23646   0.15835   0.00000  Uiso   1.00
H861   H     0.14518   0.18771   0.01412   0.00000  Uiso   1.00
H862   H     0.34899   0.12644   0.19206   0.00000  Uiso   1.00
H863   H     0.01424   0.77620   0.19618   0.00000  Uiso   1.00
H864   H     0.97799   0.17339   0.89209   0.00000  Uiso   1.00
H865   H     0.40776   0.04419   0.26730   0.00000  Uiso   1.00
O866   O     0.09025   0.72938   0.20761   0.00000  Uiso   1.00
O867   O     0.88672   0.09450   0.80865   0.00000  Uiso   1.00
O868   O     0.45057   0.92499   0.30093   0.00000  Uiso   1.00
N869   N     0.51446   0.14336   0.17148   0.00000  Uiso   1.00
N870   N     0.01311   0.04725   0.88717   0.00000  Uiso   1.00
N871   N     0.41489   0.92645   0.23795   0.00000  Uiso   1.00
N872   N     0.50456   0.23122   0.18524   0.00000  Uiso   1.00
N873   N     0.00320   0.13511   0.90092   0.00000  Uiso   1.00
N874   N     0.40498   0.01431   0.25171   0.00000  Uiso   1.00
C875   C     0.02723   0.64335   0.08564   0.00000  Uiso   1.00
C876   C     0.56828   0.08744   0.10020   0.00000  Uiso   1.00
C877   C     0.59092   0.03206   0.12594   0.00000  Uiso   1.00
C878   C     0.62769   0.98656   0.13566   0.00000  Uiso   1.00
C879   C     0.18932   0.39828   0.16059   0.00000  Uiso   1.00
C880   C     0.94966   0.65466   0.02188   0.00000  Uiso   1.00
C881   C     0.37258   0.15580   0.98178   0.00000  Uiso   1.00
C882   C     0.30950   0.16689   0.92557   0.00000  Uiso   1.00
C883   C     0.18699   0.18301   0.82893   0.00000  Uiso   1.00
C884   C     0.08090   0.70006   0.11528   0.00000  Uiso   1.00
C885   C     0.11414   0.73939   0.15370   0.00000  Uiso   1.00
C886   C     0.16153   0.78871   0.17612   0.00000  Uiso   1.00
C887   C     0.24278   0.87532   0.22450   0.00000  Uiso   1.00
C888   C     0.05227   0.66103   0.05711   0.00000  Uiso   1.00
C889   C     0.08188   0.59705   0.08470   0.00000  Uiso   1.00
C890   C     0.11863   0.55162   0.09438   0.00000  Uiso   1.00
C891   C     0.14132   0.49618   0.12014   0.00000  Uiso   1.00
C892   C     0.96326   0.66426   0.00638   0.00000  Uiso   1.00
C893   C     0.90029   0.67536   0.95022   0.00000  Uiso   1.00
C894   C     0.82313   0.67651   0.91005   0.00000  Uiso   1.00
C895   C     0.09450   0.70966   0.09979   0.00000  Uiso   1.00
C896   C     0.14185   0.75894   0.12214   0.00000  Uiso   1.00
C897   C     0.17516   0.79833   0.16060   0.00000  Uiso   1.00
H898   H     0.51663   0.13587   0.09770   0.00000  Uiso   1.00
H899   H     0.58037   0.02464   0.13792   0.00000  Uiso   1.00
H900   H     0.36207   0.14837   0.99379   0.00000  Uiso   1.00
H901   H     0.10359   0.73194   0.16568   0.00000  Uiso   1.00
H902   H     0.15701   0.40555   0.17566   0.00000  Uiso   1.00
H903   H     0.19671   0.16646   0.87175   0.00000  Uiso   1.00
H904   H     0.20601   0.84268   0.23423   0.00000  Uiso   1.00
H905   H     0.06286   0.66851   0.04504   0.00000  Uiso   1.00
H906   H     0.12915   0.55906   0.08238   0.00000  Uiso   1.00
H907   H     0.91084   0.68279   0.93825   0.00000  Uiso   1.00
H908   H     0.15236   0.76636   0.11014   0.00000  Uiso   1.00
H909   H     0.19660   0.43348   0.13058   0.00000  Uiso   1.00
H910   H     0.73629   0.69440   0.82667   0.00000  Uiso   1.00
H911   H     0.24560   0.87062   0.18915   0.00000  Uiso   1.00
O912   O     0.21955   0.34692   0.17862   0.00000  Uiso   1.00
O913   O     0.11566   0.18924   0.77990   0.00000  Uiso   1.00
O914   O     0.28385   0.92043   0.25546   0.00000  Uiso   1.00
N915   N     0.15725   0.42715   0.15994   0.00000  Uiso   1.00
N916   N     0.22689   0.17107   0.87580   0.00000  Uiso   1.00
N917   N     0.20303   0.83584   0.21468   0.00000  Uiso   1.00
N918   N     0.17855   0.44218   0.13569   0.00000  Uiso   1.00
N919   N     0.74819   0.68610   0.85154   0.00000  Uiso   1.00
N920   N     0.22433   0.85087   0.19042   0.00000  Uiso   1.00
C921   C     0.05079   0.23362   0.11398   0.00000  Uiso   1.00
C922   C     0.03714   0.23017   0.13192   0.00000  Uiso   1.00
C923   C     0.04269   0.28019   0.15121   0.00000  Uiso   1.00
C924   C     0.02799   0.26737   0.16551   0.00000  Uiso   1.00
C925   C     0.00972   0.27125   0.19407   0.00000  Uiso   1.00
C926   C     0.97408   0.20840   0.05318   0.00000  Uiso   1.00
C927   C     0.92661   0.24011   0.00628   0.00000  Uiso   1.00
C928   C     0.85883   0.20895   0.95431   0.00000  Uiso   1.00
C929   C     0.74270   0.17901   0.86064   0.00000  Uiso   1.00
C930   C     0.11650   0.18574   0.15073   0.00000  Uiso   1.00
C931   C     0.18878   0.19839   0.18584   0.00000  Uiso   1.00
C932   C     0.24090   0.14815   0.21598   0.00000  Uiso   1.00
C933   C     0.34590   0.08302   0.27377   0.00000  Uiso   1.00
C934   C     0.01483   0.12190   0.10507   0.00000  Uiso   1.00
C935   C     0.01760   0.16949   0.12708   0.00000  Uiso   1.00
C936   C     0.00290   0.15658   0.14135   0.00000  Uiso   1.00
C937   C     0.00842   0.20658   0.16066   0.00000  Uiso   1.00
C938   C     0.95454   0.14772   0.04834   0.00000  Uiso   1.00
C939   C     0.88682   0.11650   0.99643   0.00000  Uiso   1.00
C940   C     0.83926   0.14816   0.94946   0.00000  Uiso   1.00
C941   C     0.09697   0.12505   0.14589   0.00000  Uiso   1.00
C942   C     0.14899   0.07478   0.17598   0.00000  Uiso   1.00
C943   C     0.22133   0.08735   0.21113   0.00000  Uiso   1.00
H944   H     0.06600   0.28087   0.11774   0.00000  Uiso   1.00
H945   H     0.05780   0.32715   0.15494   0.00000  Uiso   1.00
H946   H     0.94175   0.28707   0.01004   0.00000  Uiso   1.00
H947   H     0.20387   0.24536   0.18957   0.00000  Uiso   1.00
H948   H     0.54006   0.85170   0.19403   0.00000  Uiso   1.00
H949   H     0.79538   0.26719   0.88850   0.00000  Uiso   1.00
H950   H     0.34813   0.17922   0.26707   0.00000  Uiso   1.00
H951   H     0.99962   0.07465   0.10130   0.00000  Uiso   1.00
H952   H     0.98778   0.10962   0.13760   0.00000  Uiso   1.00
H953   H     0.87173   0.06954   0.99270   0.00000  Uiso   1.00
H954   H     0.13385   0.02783   0.17223   0.00000  Uiso   1.00
H955   H     0.98323   0.17515   0.17995   0.00000  Uiso   1.00
H956   H     0.73855   0.09063   0.87442   0.00000  Uiso   1.00
H957   H     0.29129   0.00267   0.25299   0.00000  Uiso   1.00
O958   O     0.50503   0.79015   0.21115   0.00000  Uiso   1.00
O959   O     0.68403   0.17926   0.81031   0.00000  Uiso   1.00
O960   O     0.40921   0.06386   0.30698   0.00000  Uiso   1.00
N961   N     0.02833   0.30535   0.18574   0.00000  Uiso   1.00
N962   N     0.79956   0.22634   0.90009   0.00000  Uiso   1.00
N963   N     0.31632   0.14409   0.25401   0.00000  Uiso   1.00
N964   N     0.99775   0.21035   0.17817   0.00000  Uiso   1.00
N965   N     0.76898   0.13133   0.89252   0.00000  Uiso   1.00
N966   N     0.28574   0.04909   0.24644   0.00000  Uiso   1.00
C967   C     0.81507   0.53129   0.09769   0.00000  Uiso   1.00
C968   C     0.86761   0.58365   0.12140   0.00000  Uiso   1.00
C969   C     0.91730   0.57873   0.13366   0.00000  Uiso   1.00
C970   C     0.96048   0.63198   0.15505   0.00000  Uiso   1.00
C971   C     0.54300   0.20474   0.19049   0.00000  Uiso   1.00
C972   C     0.72943   0.55716   0.04303   0.00000  Uiso   1.00
C973   C     0.66294   0.52997   0.98941   0.00000  Uiso   1.00
C974   C     0.58981   0.56093   0.94483   0.00000  Uiso   1.00
C975   C     0.45779   0.59256   0.85863   0.00000  Uiso   1.00
C976   C     0.84018   0.52387   0.13971   0.00000  Uiso   1.00
C977   C     0.86678   0.46869   0.16737   0.00000  Uiso   1.00
C978   C     0.88686   0.47162   0.20419   0.00000  Uiso   1.00
C979   C     0.92679   0.45155   0.26810   0.00000  Uiso   1.00
C980   C     0.80342   0.63461   0.11386   0.00000  Uiso   1.00
C981   C     0.86128   0.63977   0.13018   0.00000  Uiso   1.00
C982   C     0.90441   0.69304   0.15155   0.00000  Uiso   1.00
C983   C     0.95415   0.68820   0.16385   0.00000  Uiso   1.00
C984   C     0.72310   0.61328   0.05182   0.00000  Uiso   1.00
C985   C     0.65005   0.64429   0.00731   0.00000  Uiso   1.00
C986   C     0.58347   0.61715   0.95363   0.00000  Uiso   1.00
C987   C     0.83385   0.57999   0.14850   0.00000  Uiso   1.00
C988   C     0.85389   0.58300   0.18527   0.00000  Uiso   1.00
C989   C     0.88052   0.52784   0.21299   0.00000  Uiso   1.00
H990   H     0.81999   0.48760   0.09084   0.00000  Uiso   1.00
H991   H     0.92217   0.53529   0.12685   0.00000  Uiso   1.00
H992   H     0.66786   0.48654   0.98263   0.00000  Uiso   1.00
H993   H     0.87167   0.42527   0.16057   0.00000  Uiso   1.00
H994   H     0.03264   0.61291   0.17062   0.00000  Uiso   1.00
H995   H     0.49640   0.51012   0.86653   0.00000  Uiso   1.00
H996   H     0.92617   0.38091   0.24174   0.00000  Uiso   1.00
H997   H     0.79849   0.67831   0.12070   0.00000  Uiso   1.00
H998   H     0.89950   0.73646   0.15835   0.00000  Uiso   1.00
H999   H     0.64518   0.68771   0.01412   0.00000  Uiso   1.00
H1000  H     0.84899   0.62644   0.19206   0.00000  Uiso   1.00
H1001  H     0.51424   0.27620   0.19618   0.00000  Uiso   1.00
H1002  H     0.47799   0.67339   0.89209   0.00000  Uiso   1.00
H1003  H     0.90776   0.54419   0.26730   0.00000  Uiso   1.00
O1004  O     0.59025   0.22938   0.20761   0.00000  Uiso   1.00
O1005  O     0.38672   0.59450   0.80865   0.00000  Uiso   1.00
O1006  O     0.95057   0.42499   0.30093   0.00000  Uiso   1.00
N1007  N     0.01446   0.64336   0.17148   0.00000  Uiso   1.00
N1008  N     0.51311   0.54725   0.88717   0.00000  Uiso   1.00
N1009  N     0.91489   0.42645   0.23795   0.00000  Uiso   1.00
N1010  N     0.00456   0.73122   0.18524   0.00000  Uiso   1.00
N1011  N     0.50320   0.63511   0.90092   0.00000  Uiso   1.00
N1012  N     0.90498   0.51431   0.25171   0.00000  Uiso   1.00
C1013  C     0.52723   0.14335   0.08564   0.00000  Uiso   1.00
C1014  C     0.06828   0.58744   0.10020   0.00000  Uiso   1.00
C1015  C     0.09092   0.53206   0.12594   0.00000  Uiso   1.00
C1016  C     0.12769   0.48656   0.13566   0.00000  Uiso   1.00
C1017  C     0.68932   0.89828   0.16059   0.00000  Uiso   1.00
C1018  C     0.44966   0.15466   0.02188   0.00000  Uiso   1.00
C1019  C     0.87258   0.65580   0.98178   0.00000  Uiso   1.00
C1020  C     0.80950   0.66689   0.92557   0.00000  Uiso   1.00
C1021  C     0.68699   0.68301   0.82893   0.00000  Uiso   1.00
C1022  C     0.58090   0.20006   0.11528   0.00000  Uiso   1.00
C1023  C     0.61414   0.23939   0.15370   0.00000  Uiso   1.00
C1024  C     0.66153   0.28871   0.17612   0.00000  Uiso   1.00
C1025  C     0.74278   0.37532   0.22450   0.00000  Uiso   1.00
C1026  C     0.55227   0.16103   0.05711   0.00000  Uiso   1.00
C1027  C     0.58188   0.09705   0.08470   0.00000  Uiso   1.00
C1028  C     0.61863   0.05162   0.09438   0.00000  Uiso   1.00
C1029  C     0.64132   0.99618   0.12014   0.00000  Uiso   1.00
C1030  C     0.46326   0.16426   0.00638   0.00000  Uiso   1.00
C1031  C     0.40029   0.17536   0.95022   0.00000  Uiso   1.00
C1032  C     0.32313   0.17651   0.91005   0.00000  Uiso   1.00
C1033  C     0.59450   0.20966   0.09979   0.00000  Uiso   1.00
C1034  C     0.64185   0.25894   0.12214   0.00000  Uiso   1.00
C1035  C     0.67516   0.29833   0.16060   0.00000  Uiso   1.00
H1036  H     0.01663   0.63587   0.09770   0.00000  Uiso   1.00
H1037  H     0.08037   0.52464   0.13792   0.00000  Uiso   1.00
H1038  H     0.86207   0.64837   0.99379   0.00000  Uiso   1.00
H1039  H     0.60359   0.23194   0.16568   0.00000  Uiso   1.00
H1040  H     0.65701   0.90555   0.17566   0.00000  Uiso   1.00
H1041  H     0.69671   0.66646   0.87175   0.00000  Uiso   1.00
H1042  H     0.70601   0.34268   0.23423   0.00000  Uiso   1.00
H1043  H     0.56286   0.16851   0.04504   0.00000  Uiso   1.00
H1044  H     0.62915   0.05906   0.08238   0.00000  Uiso   1.00
H1045  H     0.41084   0.18279   0.93825   0.00000  Uiso   1.00
H1046  H     0.65236   0.26636   0.11014   0.00000  Uiso   1.00
H1047  H     0.69660   0.93348   0.13058   0.00000  Uiso   1.00
H1048  H     0.23629   0.19440   0.82667   0.00000  Uiso   1.00
H1049  H     0.74560   0.37062   0.18915   0.00000  Uiso   1.00
O1050  O     0.71955   0.84692   0.17862   0.00000  Uiso   1.00
O1051  O     0.61566   0.68924   0.77990   0.00000  Uiso   1.00
O1052  O     0.78385   0.42043   0.25546   0.00000  Uiso   1.00
N1053  N     0.65725   0.92715   0.15994   0.00000  Uiso   1.00
N1054  N     0.72689   0.67107   0.87580   0.00000  Uiso   1.00
N1055  N     0.70303   0.33584   0.21468   0.00000  Uiso   1.00
N1056  N     0.67855   0.94218   0.13569   0.00000  Uiso   1.00
N1057  N     0.24819   0.18610   0.85154   0.00000  Uiso   1.00
N1058  N     0.72433   0.35087   0.19042   0.00000  Uiso   1.00
C1059  C     0.55079   0.73362   0.11398   0.00000  Uiso   1.00
C1060  C     0.53714   0.73017   0.13192   0.00000  Uiso   1.00
C1061  C     0.54269   0.78019   0.15121   0.00000  Uiso   1.00
C1062  C     0.52799   0.76737   0.16551   0.00000  Uiso   1.00
C1063  C     0.50972   0.77125   0.19407   0.00000  Uiso   1.00
C1064  C     0.47408   0.70840   0.05318   0.00000  Uiso   1.00
C1065  C     0.42661   0.74011   0.00628   0.00000  Uiso   1.00
C1066  C     0.35883   0.70895   0.95431   0.00000  Uiso   1.00
C1067  C     0.24270   0.67901   0.86064   0.00000  Uiso   1.00
C1068  C     0.61650   0.68574   0.15073   0.00000  Uiso   1.00
C1069  C     0.68878   0.69839   0.18584   0.00000  Uiso   1.00
C1070  C     0.74090   0.64815   0.21598   0.00000  Uiso   1.00
C1071  C     0.84590   0.58302   0.27377   0.00000  Uiso   1.00
C1072  C     0.51483   0.62190   0.10507   0.00000  Uiso   1.00
C1073  C     0.51760   0.66949   0.12708   0.00000  Uiso   1.00
C1074  C     0.50290   0.65658   0.14135   0.00000  Uiso   1.00
C1075  C     0.50842   0.70658   0.16066   0.00000  Uiso   1.00
C1076  C     0.45454   0.64772   0.04834   0.00000  Uiso   1.00
C1077  C     0.38682   0.61650   0.99643   0.00000  Uiso   1.00
C1078  C     0.33926   0.64816   0.94946   0.00000  Uiso   1.00
C1079  C     0.59697   0.62505   0.14589   0.00000  Uiso   1.00
C1080  C     0.64899   0.57478   0.17598   0.00000  Uiso   1.00
C1081  C     0.72133   0.58735   0.21113   0.00000  Uiso   1.00
H1082  H     0.56600   0.78087   0.11774   0.00000  Uiso   1.00
H1083  H     0.55780   0.82715   0.15494   0.00000  Uiso   1.00
H1084  H     0.44175   0.78707   0.01004   0.00000  Uiso   1.00
H1085  H     0.70387   0.74536   0.18957   0.00000  Uiso   1.00
H1086  H     0.04006   0.35170   0.19403   0.00000  Uiso   1.00
H1087  H     0.29538   0.76719   0.88850   0.00000  Uiso   1.00
H1088  H     0.84813   0.67922   0.26707   0.00000  Uiso   1.00
H1089  H     0.49962   0.57465   0.10130   0.00000  Uiso   1.00
H1090  H     0.48778   0.60962   0.13760   0.00000  Uiso   1.00
H1091  H     0.37173   0.56954   0.99270   0.00000  Uiso   1.00
H1092  H     0.63385   0.52783   0.17223   0.00000  Uiso   1.00
H1093  H     0.48323   0.67515   0.17995   0.00000  Uiso   1.00
H1094  H     0.23855   0.59063   0.87442   0.00000  Uiso   1.00
H1095  H     0.79129   0.50267   0.25299   0.00000  Uiso   1.00
O1096  O     0.00503   0.29015   0.21115   0.00000  Uiso   1.00
O1097  O     0.18403   0.67926   0.81031   0.00000  Uiso   1.00
O1098  O     0.90921   0.56386   0.30698   0.00000  Uiso   1.00
N1099  N     0.52833   0.80535   0.18574   0.00000  Uiso   1.00
N1100  N     0.29956   0.72634   0.90009   0.00000  Uiso   1.00
N1101  N     0.81632   0.64409   0.25401   0.00000  Uiso   1.00
N1102  N     0.49775   0.71035   0.17817   0.00000  Uiso   1.00
N1103  N     0.26898   0.63133   0.89252   0.00000  Uiso   1.00
N1104  N     0.78574   0.54909   0.24644   0.00000  Uiso   1.00
