data_job_00735
_audit_creation_date              2018-12-19
_audit_creation_method            'Materials Studio'
_symmetry_space_group_name_H-M    'P1'
_symmetry_Int_Tables_number       1
_symmetry_cell_setting            triclinic
loop_
_symmetry_equiv_pos_as_xyz
  x,y,z
_cell_length_a                    30.7885
_cell_length_b                    30.7885
_cell_length_c                    12.4680
_cell_angle_alpha                 90.0000
_cell_angle_beta                  90.0000
_cell_angle_gamma                 90.0000
loop_
_atom_site_label
_atom_site_type_symbol
_atom_site_fract_x
_atom_site_fract_y
_atom_site_fract_z
_atom_site_U_iso_or_equiv
_atom_site_adp_type
_atom_site_occupancy
C1     C     0.44622   0.23310   0.40012   0.00000  Uiso   1.00
C2     C     0.40824   0.23459   0.47855   0.00000  Uiso   1.00
C3     C     0.40640   0.25922   0.57165   0.00000  Uiso   1.00
C4     C     0.36879   0.25608   0.63260   0.00000  Uiso   1.00
C5     C     0.31508   0.26245   0.75914   0.00000  Uiso   1.00
C6     C     0.45930   0.18546   0.39156   0.00000  Uiso   1.00
C7     C     0.50039   0.16878   0.41152   0.00000  Uiso   1.00
C8     C     0.50576   0.12429   0.39923   0.00000  Uiso   1.00
C9     C     0.53133   0.05438   0.39065   0.00000  Uiso   1.00
C10    C     0.42759   0.24542   0.29096   0.00000  Uiso   1.00
C11    C     0.44202   0.27916   0.22632   0.00000  Uiso   1.00
C12    C     0.42069   0.28514   0.12931   0.00000  Uiso   1.00
C13    C     0.39702   0.30834   0.96454   0.00000  Uiso   1.00
C14    C     0.38269   0.18373   0.34278   0.00000  Uiso   1.00
C15    C     0.37374   0.20777   0.44740   0.00000  Uiso   1.00
C16    C     0.33612   0.20459   0.50821   0.00000  Uiso   1.00
C17    C     0.33422   0.22921   0.60139   0.00000  Uiso   1.00
C18    C     0.42480   0.15864   0.36042   0.00000  Uiso   1.00
C19    C     0.43011   0.11415   0.34808   0.00000  Uiso   1.00
C20    C     0.47120   0.09742   0.36802   0.00000  Uiso   1.00
C21    C     0.39308   0.21860   0.25982   0.00000  Uiso   1.00
C22    C     0.37173   0.22453   0.16288   0.00000  Uiso   1.00
C23    C     0.38613   0.25827   0.09811   0.00000  Uiso   1.00
H24    H     0.47309   0.25398   0.42437   0.00000  Uiso   1.00
H25    H     0.43312   0.27997   0.59573   0.00000  Uiso   1.00
H26    H     0.52709   0.18955   0.43561   0.00000  Uiso   1.00
H27    H     0.46872   0.29991   0.25045   0.00000  Uiso   1.00
H28    H     0.37359   0.29694   0.77201   0.00000  Uiso   1.00
H29    H     0.57174   0.10628   0.43435   0.00000  Uiso   1.00
H30    H     0.44867   0.33900   0.04389   0.00000  Uiso   1.00
H31    H     0.35583   0.16284   0.31853   0.00000  Uiso   1.00
H32    H     0.30942   0.18383   0.48409   0.00000  Uiso   1.00
H33    H     0.40340   0.09341   0.32397   0.00000  Uiso   1.00
H34    H     0.34503   0.20377   0.13881   0.00000  Uiso   1.00
H35    H     0.27320   0.21891   0.68140   0.00000  Uiso   1.00
H36    H     0.47135   0.02826   0.34374   0.00000  Uiso   1.00
H37    H     0.34827   0.26097   0.95328   0.00000  Uiso   1.00
O38    O     0.29499   0.27336   0.83755   0.00000  Uiso   1.00
O39    O     0.55496   0.02324   0.39453   0.00000  Uiso   1.00
O40    O     0.39349   0.32855   0.88226   0.00000  Uiso   1.00
N41    N     0.35633   0.27570   0.72795   0.00000  Uiso   1.00
N42    N     0.54159   0.09745   0.41228   0.00000  Uiso   1.00
N43    N     0.42653   0.31501   0.04722   0.00000  Uiso   1.00
N44    N     0.30231   0.23372   0.67920   0.00000  Uiso   1.00
N45    N     0.48757   0.05546   0.36352   0.00000  Uiso   1.00
N46    N     0.37251   0.27303   0.99846   0.00000  Uiso   1.00
C47    C     0.94622   0.73310   0.90012   0.00000  Uiso   1.00
C48    C     0.90824   0.73459   0.97855   0.00000  Uiso   1.00
C49    C     0.90640   0.75922   0.07165   0.00000  Uiso   1.00
C50    C     0.86879   0.75608   0.13260   0.00000  Uiso   1.00
C51    C     0.81508   0.76245   0.25914   0.00000  Uiso   1.00
C52    C     0.95930   0.68546   0.89156   0.00000  Uiso   1.00
C53    C     0.00039   0.66878   0.91152   0.00000  Uiso   1.00
C54    C     0.00576   0.62429   0.89923   0.00000  Uiso   1.00
C55    C     0.03133   0.55438   0.89065   0.00000  Uiso   1.00
C56    C     0.92759   0.74542   0.79096   0.00000  Uiso   1.00
C57    C     0.94202   0.77916   0.72632   0.00000  Uiso   1.00
C58    C     0.92069   0.78514   0.62931   0.00000  Uiso   1.00
C59    C     0.89702   0.80834   0.46454   0.00000  Uiso   1.00
C60    C     0.88269   0.68373   0.84278   0.00000  Uiso   1.00
C61    C     0.87374   0.70777   0.94740   0.00000  Uiso   1.00
C62    C     0.83612   0.70459   0.00821   0.00000  Uiso   1.00
C63    C     0.83422   0.72921   0.10139   0.00000  Uiso   1.00
C64    C     0.92480   0.65864   0.86042   0.00000  Uiso   1.00
C65    C     0.93011   0.61415   0.84808   0.00000  Uiso   1.00
C66    C     0.97120   0.59742   0.86802   0.00000  Uiso   1.00
C67    C     0.89308   0.71860   0.75982   0.00000  Uiso   1.00
C68    C     0.87173   0.72453   0.66288   0.00000  Uiso   1.00
C69    C     0.88613   0.75827   0.59811   0.00000  Uiso   1.00
H70    H     0.97309   0.75398   0.92437   0.00000  Uiso   1.00
H71    H     0.93312   0.77997   0.09573   0.00000  Uiso   1.00
H72    H     0.02709   0.68955   0.93561   0.00000  Uiso   1.00
H73    H     0.96872   0.79991   0.75045   0.00000  Uiso   1.00
H74    H     0.87359   0.79694   0.27201   0.00000  Uiso   1.00
H75    H     0.07174   0.60628   0.93435   0.00000  Uiso   1.00
H76    H     0.94867   0.83900   0.54389   0.00000  Uiso   1.00
H77    H     0.85583   0.66284   0.81853   0.00000  Uiso   1.00
H78    H     0.80942   0.68383   0.98409   0.00000  Uiso   1.00
H79    H     0.90340   0.59341   0.82397   0.00000  Uiso   1.00
H80    H     0.84503   0.70377   0.63881   0.00000  Uiso   1.00
H81    H     0.77320   0.71891   0.18140   0.00000  Uiso   1.00
H82    H     0.97135   0.52826   0.84374   0.00000  Uiso   1.00
H83    H     0.84827   0.76097   0.45328   0.00000  Uiso   1.00
O84    O     0.79499   0.77336   0.33755   0.00000  Uiso   1.00
O85    O     0.05496   0.52324   0.89453   0.00000  Uiso   1.00
O86    O     0.89349   0.82855   0.38226   0.00000  Uiso   1.00
N87    N     0.85633   0.77570   0.22795   0.00000  Uiso   1.00
N88    N     0.04159   0.59745   0.91228   0.00000  Uiso   1.00
N89    N     0.92653   0.81501   0.54722   0.00000  Uiso   1.00
N90    N     0.80231   0.73372   0.17920   0.00000  Uiso   1.00
N91    N     0.98757   0.55546   0.86352   0.00000  Uiso   1.00
N92    N     0.87251   0.77303   0.49846   0.00000  Uiso   1.00
C93    C     0.05378   0.26690   0.90012   0.00000  Uiso   1.00
C94    C     0.09176   0.26541   0.97855   0.00000  Uiso   1.00
C95    C     0.09360   0.24078   0.07165   0.00000  Uiso   1.00
C96    C     0.13121   0.24392   0.13260   0.00000  Uiso   1.00
C97    C     0.18492   0.23755   0.25914   0.00000  Uiso   1.00
C98    C     0.04070   0.31454   0.89156   0.00000  Uiso   1.00
C99    C     0.99961   0.33122   0.91152   0.00000  Uiso   1.00
C100   C     0.99424   0.37571   0.89923   0.00000  Uiso   1.00
C101   C     0.96867   0.44562   0.89065   0.00000  Uiso   1.00
C102   C     0.07241   0.25458   0.79096   0.00000  Uiso   1.00
C103   C     0.05798   0.22084   0.72632   0.00000  Uiso   1.00
C104   C     0.07931   0.21486   0.62931   0.00000  Uiso   1.00
C105   C     0.10298   0.19166   0.46454   0.00000  Uiso   1.00
C106   C     0.11731   0.31627   0.84278   0.00000  Uiso   1.00
C107   C     0.12626   0.29223   0.94740   0.00000  Uiso   1.00
C108   C     0.16388   0.29541   0.00821   0.00000  Uiso   1.00
C109   C     0.16578   0.27079   0.10139   0.00000  Uiso   1.00
C110   C     0.07520   0.34136   0.86042   0.00000  Uiso   1.00
C111   C     0.06989   0.38585   0.84808   0.00000  Uiso   1.00
C112   C     0.02880   0.40258   0.86802   0.00000  Uiso   1.00
C113   C     0.10692   0.28140   0.75982   0.00000  Uiso   1.00
C114   C     0.12827   0.27547   0.66288   0.00000  Uiso   1.00
C115   C     0.11387   0.24173   0.59811   0.00000  Uiso   1.00
H116   H     0.02691   0.24602   0.92437   0.00000  Uiso   1.00
H117   H     0.06688   0.22003   0.09573   0.00000  Uiso   1.00
H118   H     0.97291   0.31045   0.93561   0.00000  Uiso   1.00
H119   H     0.03128   0.20009   0.75045   0.00000  Uiso   1.00
H120   H     0.12641   0.20306   0.27201   0.00000  Uiso   1.00
H121   H     0.92826   0.39372   0.93435   0.00000  Uiso   1.00
H122   H     0.05133   0.16100   0.54389   0.00000  Uiso   1.00
H123   H     0.14417   0.33716   0.81853   0.00000  Uiso   1.00
H124   H     0.19058   0.31617   0.98409   0.00000  Uiso   1.00
H125   H     0.09660   0.40659   0.82397   0.00000  Uiso   1.00
H126   H     0.15497   0.29623   0.63881   0.00000  Uiso   1.00
H127   H     0.22680   0.28109   0.18140   0.00000  Uiso   1.00
H128   H     0.02865   0.47174   0.84374   0.00000  Uiso   1.00
H129   H     0.15173   0.23903   0.45328   0.00000  Uiso   1.00
O130   O     0.20501   0.22664   0.33755   0.00000  Uiso   1.00
O131   O     0.94504   0.47676   0.89453   0.00000  Uiso   1.00
O132   O     0.10651   0.17145   0.38226   0.00000  Uiso   1.00
N133   N     0.14367   0.22430   0.22795   0.00000  Uiso   1.00
N134   N     0.95841   0.40255   0.91228   0.00000  Uiso   1.00
N135   N     0.07347   0.18499   0.54722   0.00000  Uiso   1.00
N136   N     0.19769   0.26628   0.17920   0.00000  Uiso   1.00
N137   N     0.01243   0.44454   0.86352   0.00000  Uiso   1.00
N138   N     0.12749   0.22697   0.49846   0.00000  Uiso   1.00
C139   C     0.55378   0.76690   0.40012   0.00000  Uiso   1.00
C140   C     0.59176   0.76541   0.47855   0.00000  Uiso   1.00
C141   C     0.59360   0.74078   0.57165   0.00000  Uiso   1.00
C142   C     0.63121   0.74392   0.63260   0.00000  Uiso   1.00
C143   C     0.68492   0.73755   0.75914   0.00000  Uiso   1.00
C144   C     0.54070   0.81454   0.39156   0.00000  Uiso   1.00
C145   C     0.49961   0.83122   0.41152   0.00000  Uiso   1.00
C146   C     0.49424   0.87571   0.39923   0.00000  Uiso   1.00
C147   C     0.46867   0.94562   0.39065   0.00000  Uiso   1.00
C148   C     0.57241   0.75458   0.29096   0.00000  Uiso   1.00
C149   C     0.55798   0.72084   0.22632   0.00000  Uiso   1.00
C150   C     0.57931   0.71486   0.12931   0.00000  Uiso   1.00
C151   C     0.60298   0.69166   0.96454   0.00000  Uiso   1.00
C152   C     0.61731   0.81627   0.34278   0.00000  Uiso   1.00
C153   C     0.62626   0.79223   0.44740   0.00000  Uiso   1.00
C154   C     0.66388   0.79541   0.50821   0.00000  Uiso   1.00
C155   C     0.66578   0.77079   0.60139   0.00000  Uiso   1.00
C156   C     0.57520   0.84136   0.36042   0.00000  Uiso   1.00
C157   C     0.56989   0.88585   0.34808   0.00000  Uiso   1.00
C158   C     0.52880   0.90258   0.36802   0.00000  Uiso   1.00
C159   C     0.60692   0.78140   0.25982   0.00000  Uiso   1.00
C160   C     0.62827   0.77547   0.16288   0.00000  Uiso   1.00
C161   C     0.61387   0.74173   0.09811   0.00000  Uiso   1.00
H162   H     0.52691   0.74602   0.42437   0.00000  Uiso   1.00
H163   H     0.56688   0.72003   0.59573   0.00000  Uiso   1.00
H164   H     0.47291   0.81045   0.43561   0.00000  Uiso   1.00
H165   H     0.53128   0.70009   0.25045   0.00000  Uiso   1.00
H166   H     0.62641   0.70306   0.77201   0.00000  Uiso   1.00
H167   H     0.42826   0.89372   0.43435   0.00000  Uiso   1.00
H168   H     0.55133   0.66100   0.04389   0.00000  Uiso   1.00
H169   H     0.64417   0.83716   0.31853   0.00000  Uiso   1.00
H170   H     0.69058   0.81617   0.48409   0.00000  Uiso   1.00
H171   H     0.59660   0.90659   0.32397   0.00000  Uiso   1.00
H172   H     0.65497   0.79623   0.13881   0.00000  Uiso   1.00
H173   H     0.72680   0.78109   0.68140   0.00000  Uiso   1.00
H174   H     0.52865   0.97174   0.34374   0.00000  Uiso   1.00
H175   H     0.65173   0.73903   0.95328   0.00000  Uiso   1.00
O176   O     0.70501   0.72664   0.83755   0.00000  Uiso   1.00
O177   O     0.44504   0.97676   0.39453   0.00000  Uiso   1.00
O178   O     0.60651   0.67145   0.88226   0.00000  Uiso   1.00
N179   N     0.64367   0.72430   0.72795   0.00000  Uiso   1.00
N180   N     0.45841   0.90255   0.41228   0.00000  Uiso   1.00
N181   N     0.57347   0.68499   0.04722   0.00000  Uiso   1.00
N182   N     0.69769   0.76628   0.67920   0.00000  Uiso   1.00
N183   N     0.51243   0.94454   0.36352   0.00000  Uiso   1.00
N184   N     0.62749   0.72697   0.99846   0.00000  Uiso   1.00
C185   C     0.76690   0.94622   0.65012   0.00000  Uiso   1.00
C186   C     0.76541   0.90824   0.72855   0.00000  Uiso   1.00
C187   C     0.74078   0.90640   0.82165   0.00000  Uiso   1.00
C188   C     0.74392   0.86879   0.88260   0.00000  Uiso   1.00
C189   C     0.73755   0.81508   0.00914   0.00000  Uiso   1.00
C190   C     0.81454   0.95930   0.64156   0.00000  Uiso   1.00
C191   C     0.83122   0.00039   0.66152   0.00000  Uiso   1.00
C192   C     0.87571   0.00576   0.64923   0.00000  Uiso   1.00
C193   C     0.94562   0.03133   0.64065   0.00000  Uiso   1.00
C194   C     0.75458   0.92759   0.54096   0.00000  Uiso   1.00
C195   C     0.72084   0.94202   0.47632   0.00000  Uiso   1.00
C196   C     0.71486   0.92069   0.37931   0.00000  Uiso   1.00
C197   C     0.69166   0.89702   0.21454   0.00000  Uiso   1.00
C198   C     0.81627   0.88269   0.59278   0.00000  Uiso   1.00
C199   C     0.79223   0.87374   0.69740   0.00000  Uiso   1.00
C200   C     0.79541   0.83612   0.75821   0.00000  Uiso   1.00
C201   C     0.77079   0.83422   0.85139   0.00000  Uiso   1.00
C202   C     0.84136   0.92480   0.61042   0.00000  Uiso   1.00
C203   C     0.88585   0.93011   0.59808   0.00000  Uiso   1.00
C204   C     0.90258   0.97120   0.61802   0.00000  Uiso   1.00
C205   C     0.78140   0.89308   0.50982   0.00000  Uiso   1.00
C206   C     0.77547   0.87173   0.41288   0.00000  Uiso   1.00
C207   C     0.74173   0.88613   0.34811   0.00000  Uiso   1.00
H208   H     0.74602   0.97309   0.67437   0.00000  Uiso   1.00
H209   H     0.72003   0.93312   0.84573   0.00000  Uiso   1.00
H210   H     0.81045   0.02709   0.68561   0.00000  Uiso   1.00
H211   H     0.70009   0.96872   0.50045   0.00000  Uiso   1.00
H212   H     0.70306   0.87359   0.02201   0.00000  Uiso   1.00
H213   H     0.89372   0.07174   0.68435   0.00000  Uiso   1.00
H214   H     0.66100   0.94867   0.29389   0.00000  Uiso   1.00
H215   H     0.83716   0.85583   0.56853   0.00000  Uiso   1.00
H216   H     0.81617   0.80942   0.73409   0.00000  Uiso   1.00
H217   H     0.90659   0.90340   0.57397   0.00000  Uiso   1.00
H218   H     0.79623   0.84503   0.38881   0.00000  Uiso   1.00
H219   H     0.78109   0.77320   0.93140   0.00000  Uiso   1.00
H220   H     0.97174   0.97135   0.59374   0.00000  Uiso   1.00
H221   H     0.73903   0.84827   0.20328   0.00000  Uiso   1.00
O222   O     0.72664   0.79499   0.08755   0.00000  Uiso   1.00
O223   O     0.97676   0.05496   0.64453   0.00000  Uiso   1.00
O224   O     0.67145   0.89349   0.13226   0.00000  Uiso   1.00
N225   N     0.72430   0.85633   0.97795   0.00000  Uiso   1.00
N226   N     0.90255   0.04159   0.66228   0.00000  Uiso   1.00
N227   N     0.68499   0.92653   0.29722   0.00000  Uiso   1.00
N228   N     0.76628   0.80231   0.92920   0.00000  Uiso   1.00
N229   N     0.94454   0.98757   0.61352   0.00000  Uiso   1.00
N230   N     0.72697   0.87251   0.24846   0.00000  Uiso   1.00
C231   C     0.26690   0.44622   0.15012   0.00000  Uiso   1.00
C232   C     0.26541   0.40824   0.22855   0.00000  Uiso   1.00
C233   C     0.24078   0.40640   0.32165   0.00000  Uiso   1.00
C234   C     0.24392   0.36879   0.38260   0.00000  Uiso   1.00
C235   C     0.23755   0.31508   0.50914   0.00000  Uiso   1.00
C236   C     0.31454   0.45930   0.14156   0.00000  Uiso   1.00
C237   C     0.33122   0.50039   0.16152   0.00000  Uiso   1.00
C238   C     0.37571   0.50576   0.14923   0.00000  Uiso   1.00
C239   C     0.44562   0.53133   0.14065   0.00000  Uiso   1.00
C240   C     0.25458   0.42759   0.04096   0.00000  Uiso   1.00
C241   C     0.22084   0.44202   0.97632   0.00000  Uiso   1.00
C242   C     0.21486   0.42069   0.87931   0.00000  Uiso   1.00
C243   C     0.19166   0.39702   0.71454   0.00000  Uiso   1.00
C244   C     0.31627   0.38269   0.09278   0.00000  Uiso   1.00
C245   C     0.29223   0.37374   0.19740   0.00000  Uiso   1.00
C246   C     0.29541   0.33612   0.25821   0.00000  Uiso   1.00
C247   C     0.27079   0.33422   0.35139   0.00000  Uiso   1.00
C248   C     0.34136   0.42480   0.11042   0.00000  Uiso   1.00
C249   C     0.38585   0.43011   0.09808   0.00000  Uiso   1.00
C250   C     0.40258   0.47120   0.11802   0.00000  Uiso   1.00
C251   C     0.28140   0.39308   0.00982   0.00000  Uiso   1.00
C252   C     0.27547   0.37173   0.91288   0.00000  Uiso   1.00
C253   C     0.24173   0.38613   0.84811   0.00000  Uiso   1.00
H254   H     0.24602   0.47309   0.17437   0.00000  Uiso   1.00
H255   H     0.22003   0.43312   0.34573   0.00000  Uiso   1.00
H256   H     0.31045   0.52709   0.18561   0.00000  Uiso   1.00
H257   H     0.20009   0.46872   0.00045   0.00000  Uiso   1.00
H258   H     0.20306   0.37359   0.52201   0.00000  Uiso   1.00
H259   H     0.39372   0.57174   0.18435   0.00000  Uiso   1.00
H260   H     0.16100   0.44867   0.79389   0.00000  Uiso   1.00
H261   H     0.33716   0.35583   0.06853   0.00000  Uiso   1.00
H262   H     0.31617   0.30942   0.23409   0.00000  Uiso   1.00
H263   H     0.40659   0.40340   0.07397   0.00000  Uiso   1.00
H264   H     0.29623   0.34503   0.88881   0.00000  Uiso   1.00
H265   H     0.28109   0.27320   0.43140   0.00000  Uiso   1.00
H266   H     0.47174   0.47135   0.09374   0.00000  Uiso   1.00
H267   H     0.23903   0.34827   0.70328   0.00000  Uiso   1.00
O268   O     0.22664   0.29499   0.58755   0.00000  Uiso   1.00
O269   O     0.47676   0.55496   0.14453   0.00000  Uiso   1.00
O270   O     0.17145   0.39349   0.63226   0.00000  Uiso   1.00
N271   N     0.22430   0.35633   0.47795   0.00000  Uiso   1.00
N272   N     0.40255   0.54159   0.16228   0.00000  Uiso   1.00
N273   N     0.18499   0.42653   0.79722   0.00000  Uiso   1.00
N274   N     0.26628   0.30231   0.42920   0.00000  Uiso   1.00
N275   N     0.44454   0.48757   0.11352   0.00000  Uiso   1.00
N276   N     0.22697   0.37251   0.74846   0.00000  Uiso   1.00
C277   C     0.73310   0.55378   0.15012   0.00000  Uiso   1.00
C278   C     0.73459   0.59176   0.22855   0.00000  Uiso   1.00
C279   C     0.75922   0.59360   0.32165   0.00000  Uiso   1.00
C280   C     0.75608   0.63121   0.38260   0.00000  Uiso   1.00
C281   C     0.76245   0.68492   0.50914   0.00000  Uiso   1.00
C282   C     0.68546   0.54070   0.14156   0.00000  Uiso   1.00
C283   C     0.66878   0.49961   0.16152   0.00000  Uiso   1.00
C284   C     0.62429   0.49424   0.14923   0.00000  Uiso   1.00
C285   C     0.55438   0.46867   0.14065   0.00000  Uiso   1.00
C286   C     0.74542   0.57241   0.04096   0.00000  Uiso   1.00
C287   C     0.77916   0.55798   0.97632   0.00000  Uiso   1.00
C288   C     0.78514   0.57931   0.87931   0.00000  Uiso   1.00
C289   C     0.80834   0.60298   0.71454   0.00000  Uiso   1.00
C290   C     0.68373   0.61731   0.09278   0.00000  Uiso   1.00
C291   C     0.70777   0.62626   0.19740   0.00000  Uiso   1.00
C292   C     0.70459   0.66388   0.25821   0.00000  Uiso   1.00
C293   C     0.72921   0.66578   0.35139   0.00000  Uiso   1.00
C294   C     0.65864   0.57520   0.11042   0.00000  Uiso   1.00
C295   C     0.61415   0.56989   0.09808   0.00000  Uiso   1.00
C296   C     0.59742   0.52880   0.11802   0.00000  Uiso   1.00
C297   C     0.71860   0.60692   0.00982   0.00000  Uiso   1.00
C298   C     0.72453   0.62827   0.91288   0.00000  Uiso   1.00
C299   C     0.75827   0.61387   0.84811   0.00000  Uiso   1.00
H300   H     0.75398   0.52691   0.17437   0.00000  Uiso   1.00
H301   H     0.77997   0.56688   0.34573   0.00000  Uiso   1.00
H302   H     0.68955   0.47291   0.18561   0.00000  Uiso   1.00
H303   H     0.79991   0.53128   0.00045   0.00000  Uiso   1.00
H304   H     0.79694   0.62641   0.52201   0.00000  Uiso   1.00
H305   H     0.60628   0.42826   0.18435   0.00000  Uiso   1.00
H306   H     0.83900   0.55133   0.79389   0.00000  Uiso   1.00
H307   H     0.66284   0.64417   0.06853   0.00000  Uiso   1.00
H308   H     0.68383   0.69058   0.23409   0.00000  Uiso   1.00
H309   H     0.59341   0.59660   0.07397   0.00000  Uiso   1.00
H310   H     0.70377   0.65497   0.88881   0.00000  Uiso   1.00
H311   H     0.71891   0.72680   0.43140   0.00000  Uiso   1.00
H312   H     0.52826   0.52865   0.09374   0.00000  Uiso   1.00
H313   H     0.76097   0.65173   0.70328   0.00000  Uiso   1.00
O314   O     0.77336   0.70501   0.58755   0.00000  Uiso   1.00
O315   O     0.52324   0.44504   0.14453   0.00000  Uiso   1.00
O316   O     0.82855   0.60651   0.63226   0.00000  Uiso   1.00
N317   N     0.77570   0.64367   0.47795   0.00000  Uiso   1.00
N318   N     0.59745   0.45841   0.16228   0.00000  Uiso   1.00
N319   N     0.81501   0.57347   0.79722   0.00000  Uiso   1.00
N320   N     0.73372   0.69769   0.42920   0.00000  Uiso   1.00
N321   N     0.55546   0.51243   0.11352   0.00000  Uiso   1.00
N322   N     0.77303   0.62749   0.74846   0.00000  Uiso   1.00
C323   C     0.23310   0.05378   0.65012   0.00000  Uiso   1.00
C324   C     0.23459   0.09176   0.72855   0.00000  Uiso   1.00
C325   C     0.25922   0.09360   0.82165   0.00000  Uiso   1.00
C326   C     0.25608   0.13121   0.88260   0.00000  Uiso   1.00
C327   C     0.26245   0.18492   0.00914   0.00000  Uiso   1.00
C328   C     0.18546   0.04070   0.64156   0.00000  Uiso   1.00
C329   C     0.16878   0.99961   0.66152   0.00000  Uiso   1.00
C330   C     0.12429   0.99424   0.64923   0.00000  Uiso   1.00
C331   C     0.05438   0.96867   0.64065   0.00000  Uiso   1.00
C332   C     0.24542   0.07241   0.54096   0.00000  Uiso   1.00
C333   C     0.27916   0.05798   0.47632   0.00000  Uiso   1.00
C334   C     0.28514   0.07931   0.37931   0.00000  Uiso   1.00
C335   C     0.30834   0.10298   0.21454   0.00000  Uiso   1.00
C336   C     0.18373   0.11731   0.59278   0.00000  Uiso   1.00
C337   C     0.20777   0.12626   0.69740   0.00000  Uiso   1.00
C338   C     0.20459   0.16388   0.75821   0.00000  Uiso   1.00
C339   C     0.22921   0.16578   0.85139   0.00000  Uiso   1.00
C340   C     0.15864   0.07520   0.61042   0.00000  Uiso   1.00
C341   C     0.11415   0.06989   0.59808   0.00000  Uiso   1.00
C342   C     0.09742   0.02880   0.61802   0.00000  Uiso   1.00
C343   C     0.21860   0.10692   0.50982   0.00000  Uiso   1.00
C344   C     0.22453   0.12827   0.41288   0.00000  Uiso   1.00
C345   C     0.25827   0.11387   0.34811   0.00000  Uiso   1.00
H346   H     0.25398   0.02691   0.67437   0.00000  Uiso   1.00
H347   H     0.27997   0.06688   0.84573   0.00000  Uiso   1.00
H348   H     0.18955   0.97291   0.68561   0.00000  Uiso   1.00
H349   H     0.29991   0.03128   0.50045   0.00000  Uiso   1.00
H350   H     0.29694   0.12641   0.02201   0.00000  Uiso   1.00
H351   H     0.10628   0.92826   0.68435   0.00000  Uiso   1.00
H352   H     0.33900   0.05133   0.29389   0.00000  Uiso   1.00
H353   H     0.16284   0.14417   0.56853   0.00000  Uiso   1.00
H354   H     0.18383   0.19058   0.73409   0.00000  Uiso   1.00
H355   H     0.09341   0.09660   0.57397   0.00000  Uiso   1.00
H356   H     0.20377   0.15497   0.38881   0.00000  Uiso   1.00
H357   H     0.21891   0.22680   0.93140   0.00000  Uiso   1.00
H358   H     0.02826   0.02865   0.59374   0.00000  Uiso   1.00
H359   H     0.26097   0.15173   0.20328   0.00000  Uiso   1.00
O360   O     0.27336   0.20501   0.08755   0.00000  Uiso   1.00
O361   O     0.02324   0.94504   0.64453   0.00000  Uiso   1.00
O362   O     0.32855   0.10651   0.13226   0.00000  Uiso   1.00
N363   N     0.27570   0.14367   0.97795   0.00000  Uiso   1.00
N364   N     0.09745   0.95841   0.66228   0.00000  Uiso   1.00
N365   N     0.31501   0.07347   0.29722   0.00000  Uiso   1.00
N366   N     0.23372   0.19769   0.92920   0.00000  Uiso   1.00
N367   N     0.05546   0.01243   0.61352   0.00000  Uiso   1.00
N368   N     0.27303   0.12749   0.24846   0.00000  Uiso   1.00
C369   C     0.55378   0.26690   0.84988   0.00000  Uiso   1.00
C370   C     0.59176   0.26541   0.77145   0.00000  Uiso   1.00
C371   C     0.59360   0.24078   0.67835   0.00000  Uiso   1.00
C372   C     0.63121   0.24392   0.61740   0.00000  Uiso   1.00
C373   C     0.68492   0.23755   0.49086   0.00000  Uiso   1.00
C374   C     0.54070   0.31454   0.85844   0.00000  Uiso   1.00
C375   C     0.49961   0.33122   0.83848   0.00000  Uiso   1.00
C376   C     0.49424   0.37571   0.85077   0.00000  Uiso   1.00
C377   C     0.46867   0.44562   0.85935   0.00000  Uiso   1.00
C378   C     0.57241   0.25458   0.95904   0.00000  Uiso   1.00
C379   C     0.55798   0.22084   0.02368   0.00000  Uiso   1.00
C380   C     0.57931   0.21486   0.12069   0.00000  Uiso   1.00
C381   C     0.60298   0.19166   0.28546   0.00000  Uiso   1.00
C382   C     0.61731   0.31627   0.90722   0.00000  Uiso   1.00
C383   C     0.62626   0.29223   0.80260   0.00000  Uiso   1.00
C384   C     0.66388   0.29541   0.74179   0.00000  Uiso   1.00
C385   C     0.66578   0.27079   0.64861   0.00000  Uiso   1.00
C386   C     0.57520   0.34136   0.88958   0.00000  Uiso   1.00
C387   C     0.56989   0.38585   0.90192   0.00000  Uiso   1.00
C388   C     0.52880   0.40258   0.88198   0.00000  Uiso   1.00
C389   C     0.60692   0.28140   0.99018   0.00000  Uiso   1.00
C390   C     0.62827   0.27547   0.08712   0.00000  Uiso   1.00
C391   C     0.61387   0.24173   0.15189   0.00000  Uiso   1.00
H392   H     0.52691   0.24602   0.82563   0.00000  Uiso   1.00
H393   H     0.56688   0.22003   0.65427   0.00000  Uiso   1.00
H394   H     0.47291   0.31045   0.81439   0.00000  Uiso   1.00
H395   H     0.53128   0.20009   0.99955   0.00000  Uiso   1.00
H396   H     0.62641   0.20306   0.47799   0.00000  Uiso   1.00
H397   H     0.42826   0.39372   0.81565   0.00000  Uiso   1.00
H398   H     0.55133   0.16100   0.20611   0.00000  Uiso   1.00
H399   H     0.64417   0.33716   0.93147   0.00000  Uiso   1.00
H400   H     0.69058   0.31617   0.76591   0.00000  Uiso   1.00
H401   H     0.59660   0.40659   0.92603   0.00000  Uiso   1.00
H402   H     0.65497   0.29623   0.11119   0.00000  Uiso   1.00
H403   H     0.72680   0.28109   0.56860   0.00000  Uiso   1.00
H404   H     0.52865   0.47174   0.90626   0.00000  Uiso   1.00
H405   H     0.65173   0.23903   0.29672   0.00000  Uiso   1.00
O406   O     0.70501   0.22664   0.41245   0.00000  Uiso   1.00
O407   O     0.44504   0.47676   0.85547   0.00000  Uiso   1.00
O408   O     0.60651   0.17145   0.36774   0.00000  Uiso   1.00
N409   N     0.64367   0.22430   0.52205   0.00000  Uiso   1.00
N410   N     0.45841   0.40255   0.83772   0.00000  Uiso   1.00
N411   N     0.57347   0.18499   0.20278   0.00000  Uiso   1.00
N412   N     0.69769   0.26628   0.57080   0.00000  Uiso   1.00
N413   N     0.51243   0.44454   0.88648   0.00000  Uiso   1.00
N414   N     0.62749   0.22697   0.25154   0.00000  Uiso   1.00
C415   C     0.05378   0.76690   0.34988   0.00000  Uiso   1.00
C416   C     0.09176   0.76541   0.27145   0.00000  Uiso   1.00
C417   C     0.09360   0.74078   0.17835   0.00000  Uiso   1.00
C418   C     0.13121   0.74392   0.11740   0.00000  Uiso   1.00
C419   C     0.18492   0.73755   0.99086   0.00000  Uiso   1.00
C420   C     0.04070   0.81454   0.35844   0.00000  Uiso   1.00
C421   C     0.99961   0.83122   0.33848   0.00000  Uiso   1.00
C422   C     0.99424   0.87571   0.35077   0.00000  Uiso   1.00
C423   C     0.96867   0.94562   0.35935   0.00000  Uiso   1.00
C424   C     0.07241   0.75458   0.45904   0.00000  Uiso   1.00
C425   C     0.05798   0.72084   0.52368   0.00000  Uiso   1.00
C426   C     0.07931   0.71486   0.62069   0.00000  Uiso   1.00
C427   C     0.10298   0.69166   0.78546   0.00000  Uiso   1.00
C428   C     0.11731   0.81627   0.40722   0.00000  Uiso   1.00
C429   C     0.12626   0.79223   0.30260   0.00000  Uiso   1.00
C430   C     0.16388   0.79541   0.24179   0.00000  Uiso   1.00
C431   C     0.16578   0.77079   0.14861   0.00000  Uiso   1.00
C432   C     0.07520   0.84136   0.38958   0.00000  Uiso   1.00
C433   C     0.06989   0.88585   0.40192   0.00000  Uiso   1.00
C434   C     0.02880   0.90258   0.38198   0.00000  Uiso   1.00
C435   C     0.10692   0.78140   0.49018   0.00000  Uiso   1.00
C436   C     0.12827   0.77547   0.58712   0.00000  Uiso   1.00
C437   C     0.11387   0.74173   0.65189   0.00000  Uiso   1.00
H438   H     0.02691   0.74602   0.32563   0.00000  Uiso   1.00
H439   H     0.06688   0.72003   0.15427   0.00000  Uiso   1.00
H440   H     0.97291   0.81045   0.31439   0.00000  Uiso   1.00
H441   H     0.03128   0.70009   0.49955   0.00000  Uiso   1.00
H442   H     0.12641   0.70306   0.97799   0.00000  Uiso   1.00
H443   H     0.92826   0.89372   0.31565   0.00000  Uiso   1.00
H444   H     0.05133   0.66100   0.70611   0.00000  Uiso   1.00
H445   H     0.14417   0.83716   0.43147   0.00000  Uiso   1.00
H446   H     0.19058   0.81617   0.26591   0.00000  Uiso   1.00
H447   H     0.09660   0.90659   0.42603   0.00000  Uiso   1.00
H448   H     0.15497   0.79623   0.61119   0.00000  Uiso   1.00
H449   H     0.22680   0.78109   0.06860   0.00000  Uiso   1.00
H450   H     0.02865   0.97174   0.40626   0.00000  Uiso   1.00
H451   H     0.15173   0.73903   0.79672   0.00000  Uiso   1.00
O452   O     0.20501   0.72664   0.91245   0.00000  Uiso   1.00
O453   O     0.94504   0.97676   0.35547   0.00000  Uiso   1.00
O454   O     0.10651   0.67145   0.86774   0.00000  Uiso   1.00
N455   N     0.14367   0.72430   0.02205   0.00000  Uiso   1.00
N456   N     0.95841   0.90255   0.33772   0.00000  Uiso   1.00
N457   N     0.07347   0.68499   0.70278   0.00000  Uiso   1.00
N458   N     0.19769   0.76628   0.07080   0.00000  Uiso   1.00
N459   N     0.01243   0.94454   0.38648   0.00000  Uiso   1.00
N460   N     0.12749   0.72697   0.75154   0.00000  Uiso   1.00
C461   C     0.94622   0.23310   0.34988   0.00000  Uiso   1.00
C462   C     0.90824   0.23459   0.27145   0.00000  Uiso   1.00
C463   C     0.90640   0.25922   0.17835   0.00000  Uiso   1.00
C464   C     0.86879   0.25608   0.11740   0.00000  Uiso   1.00
C465   C     0.81508   0.26245   0.99086   0.00000  Uiso   1.00
C466   C     0.95930   0.18546   0.35844   0.00000  Uiso   1.00
C467   C     0.00039   0.16878   0.33848   0.00000  Uiso   1.00
C468   C     0.00576   0.12429   0.35077   0.00000  Uiso   1.00
C469   C     0.03133   0.05438   0.35935   0.00000  Uiso   1.00
C470   C     0.92759   0.24542   0.45904   0.00000  Uiso   1.00
C471   C     0.94202   0.27916   0.52368   0.00000  Uiso   1.00
C472   C     0.92069   0.28514   0.62069   0.00000  Uiso   1.00
C473   C     0.89702   0.30834   0.78546   0.00000  Uiso   1.00
C474   C     0.88269   0.18373   0.40722   0.00000  Uiso   1.00
C475   C     0.87374   0.20777   0.30260   0.00000  Uiso   1.00
C476   C     0.83612   0.20459   0.24179   0.00000  Uiso   1.00
C477   C     0.83422   0.22921   0.14861   0.00000  Uiso   1.00
C478   C     0.92480   0.15864   0.38958   0.00000  Uiso   1.00
C479   C     0.93011   0.11415   0.40192   0.00000  Uiso   1.00
C480   C     0.97120   0.09742   0.38198   0.00000  Uiso   1.00
C481   C     0.89308   0.21860   0.49018   0.00000  Uiso   1.00
C482   C     0.87173   0.22453   0.58712   0.00000  Uiso   1.00
C483   C     0.88613   0.25827   0.65189   0.00000  Uiso   1.00
H484   H     0.97309   0.25398   0.32563   0.00000  Uiso   1.00
H485   H     0.93312   0.27997   0.15427   0.00000  Uiso   1.00
H486   H     0.02709   0.18955   0.31439   0.00000  Uiso   1.00
H487   H     0.96872   0.29991   0.49955   0.00000  Uiso   1.00
H488   H     0.87359   0.29694   0.97799   0.00000  Uiso   1.00
H489   H     0.07174   0.10628   0.31565   0.00000  Uiso   1.00
H490   H     0.94867   0.33900   0.70611   0.00000  Uiso   1.00
H491   H     0.85583   0.16284   0.43147   0.00000  Uiso   1.00
H492   H     0.80942   0.18383   0.26591   0.00000  Uiso   1.00
H493   H     0.90340   0.09341   0.42603   0.00000  Uiso   1.00
H494   H     0.84503   0.20377   0.61119   0.00000  Uiso   1.00
H495   H     0.77320   0.21891   0.06860   0.00000  Uiso   1.00
H496   H     0.97135   0.02826   0.40626   0.00000  Uiso   1.00
H497   H     0.84827   0.26097   0.79672   0.00000  Uiso   1.00
O498   O     0.79499   0.27336   0.91245   0.00000  Uiso   1.00
O499   O     0.05496   0.02324   0.35547   0.00000  Uiso   1.00
O500   O     0.89349   0.32855   0.86774   0.00000  Uiso   1.00
N501   N     0.85633   0.27570   0.02205   0.00000  Uiso   1.00
N502   N     0.04159   0.09745   0.33772   0.00000  Uiso   1.00
N503   N     0.92653   0.31501   0.70278   0.00000  Uiso   1.00
N504   N     0.80231   0.23372   0.07080   0.00000  Uiso   1.00
N505   N     0.98757   0.05546   0.38648   0.00000  Uiso   1.00
N506   N     0.87251   0.27303   0.75154   0.00000  Uiso   1.00
C507   C     0.44622   0.73310   0.84988   0.00000  Uiso   1.00
C508   C     0.40824   0.73459   0.77145   0.00000  Uiso   1.00
C509   C     0.40640   0.75922   0.67835   0.00000  Uiso   1.00
C510   C     0.36879   0.75608   0.61740   0.00000  Uiso   1.00
C511   C     0.31508   0.76245   0.49086   0.00000  Uiso   1.00
C512   C     0.45930   0.68546   0.85844   0.00000  Uiso   1.00
C513   C     0.50039   0.66878   0.83848   0.00000  Uiso   1.00
C514   C     0.50576   0.62429   0.85077   0.00000  Uiso   1.00
C515   C     0.53133   0.55438   0.85935   0.00000  Uiso   1.00
C516   C     0.42759   0.74542   0.95904   0.00000  Uiso   1.00
C517   C     0.44202   0.77916   0.02368   0.00000  Uiso   1.00
C518   C     0.42069   0.78514   0.12069   0.00000  Uiso   1.00
C519   C     0.39702   0.80834   0.28546   0.00000  Uiso   1.00
C520   C     0.38269   0.68373   0.90722   0.00000  Uiso   1.00
C521   C     0.37374   0.70777   0.80260   0.00000  Uiso   1.00
C522   C     0.33612   0.70459   0.74179   0.00000  Uiso   1.00
C523   C     0.33422   0.72921   0.64861   0.00000  Uiso   1.00
C524   C     0.42480   0.65864   0.88958   0.00000  Uiso   1.00
C525   C     0.43011   0.61415   0.90192   0.00000  Uiso   1.00
C526   C     0.47120   0.59742   0.88198   0.00000  Uiso   1.00
C527   C     0.39308   0.71860   0.99018   0.00000  Uiso   1.00
C528   C     0.37173   0.72453   0.08712   0.00000  Uiso   1.00
C529   C     0.38613   0.75827   0.15189   0.00000  Uiso   1.00
H530   H     0.47309   0.75398   0.82563   0.00000  Uiso   1.00
H531   H     0.43312   0.77997   0.65427   0.00000  Uiso   1.00
H532   H     0.52709   0.68955   0.81439   0.00000  Uiso   1.00
H533   H     0.46872   0.79991   0.99955   0.00000  Uiso   1.00
H534   H     0.37359   0.79694   0.47799   0.00000  Uiso   1.00
H535   H     0.57174   0.60628   0.81565   0.00000  Uiso   1.00
H536   H     0.44867   0.83900   0.20611   0.00000  Uiso   1.00
H537   H     0.35583   0.66284   0.93147   0.00000  Uiso   1.00
H538   H     0.30942   0.68383   0.76591   0.00000  Uiso   1.00
H539   H     0.40340   0.59341   0.92603   0.00000  Uiso   1.00
H540   H     0.34503   0.70377   0.11119   0.00000  Uiso   1.00
H541   H     0.27320   0.71891   0.56860   0.00000  Uiso   1.00
H542   H     0.47135   0.52826   0.90626   0.00000  Uiso   1.00
H543   H     0.34827   0.76097   0.29672   0.00000  Uiso   1.00
O544   O     0.29499   0.77336   0.41245   0.00000  Uiso   1.00
O545   O     0.55496   0.52324   0.85547   0.00000  Uiso   1.00
O546   O     0.39349   0.82855   0.36774   0.00000  Uiso   1.00
N547   N     0.35633   0.77570   0.52205   0.00000  Uiso   1.00
N548   N     0.54159   0.59745   0.83772   0.00000  Uiso   1.00
N549   N     0.42653   0.81501   0.20278   0.00000  Uiso   1.00
N550   N     0.30231   0.73372   0.57080   0.00000  Uiso   1.00
N551   N     0.48757   0.55546   0.88648   0.00000  Uiso   1.00
N552   N     0.37251   0.77303   0.25154   0.00000  Uiso   1.00
C553   C     0.23310   0.55378   0.59988   0.00000  Uiso   1.00
C554   C     0.23459   0.59176   0.52145   0.00000  Uiso   1.00
C555   C     0.25922   0.59360   0.42835   0.00000  Uiso   1.00
C556   C     0.25608   0.63121   0.36740   0.00000  Uiso   1.00
C557   C     0.26245   0.68492   0.24086   0.00000  Uiso   1.00
C558   C     0.18546   0.54070   0.60844   0.00000  Uiso   1.00
C559   C     0.16878   0.49961   0.58848   0.00000  Uiso   1.00
C560   C     0.12429   0.49424   0.60077   0.00000  Uiso   1.00
C561   C     0.05438   0.46867   0.60935   0.00000  Uiso   1.00
C562   C     0.24542   0.57241   0.70904   0.00000  Uiso   1.00
C563   C     0.27916   0.55798   0.77368   0.00000  Uiso   1.00
C564   C     0.28514   0.57931   0.87069   0.00000  Uiso   1.00
C565   C     0.30834   0.60298   0.03546   0.00000  Uiso   1.00
C566   C     0.18373   0.61731   0.65722   0.00000  Uiso   1.00
C567   C     0.20777   0.62626   0.55260   0.00000  Uiso   1.00
C568   C     0.20459   0.66388   0.49179   0.00000  Uiso   1.00
C569   C     0.22921   0.66578   0.39861   0.00000  Uiso   1.00
C570   C     0.15864   0.57520   0.63958   0.00000  Uiso   1.00
C571   C     0.11415   0.56989   0.65192   0.00000  Uiso   1.00
C572   C     0.09742   0.52880   0.63198   0.00000  Uiso   1.00
C573   C     0.21860   0.60692   0.74018   0.00000  Uiso   1.00
C574   C     0.22453   0.62827   0.83712   0.00000  Uiso   1.00
C575   C     0.25827   0.61387   0.90189   0.00000  Uiso   1.00
H576   H     0.25398   0.52691   0.57563   0.00000  Uiso   1.00
H577   H     0.27997   0.56688   0.40427   0.00000  Uiso   1.00
H578   H     0.18955   0.47291   0.56439   0.00000  Uiso   1.00
H579   H     0.29991   0.53128   0.74955   0.00000  Uiso   1.00
H580   H     0.29694   0.62641   0.22799   0.00000  Uiso   1.00
H581   H     0.10628   0.42826   0.56565   0.00000  Uiso   1.00
H582   H     0.33900   0.55133   0.95611   0.00000  Uiso   1.00
H583   H     0.16284   0.64417   0.68147   0.00000  Uiso   1.00
H584   H     0.18383   0.69058   0.51591   0.00000  Uiso   1.00
H585   H     0.09341   0.59660   0.67603   0.00000  Uiso   1.00
H586   H     0.20377   0.65497   0.86119   0.00000  Uiso   1.00
H587   H     0.21891   0.72680   0.31860   0.00000  Uiso   1.00
H588   H     0.02826   0.52865   0.65626   0.00000  Uiso   1.00
H589   H     0.26097   0.65173   0.04672   0.00000  Uiso   1.00
O590   O     0.27336   0.70501   0.16245   0.00000  Uiso   1.00
O591   O     0.02324   0.44504   0.60547   0.00000  Uiso   1.00
O592   O     0.32855   0.60651   0.11774   0.00000  Uiso   1.00
N593   N     0.27570   0.64367   0.27205   0.00000  Uiso   1.00
N594   N     0.09745   0.45841   0.58772   0.00000  Uiso   1.00
N595   N     0.31501   0.57347   0.95278   0.00000  Uiso   1.00
N596   N     0.23372   0.69769   0.32080   0.00000  Uiso   1.00
N597   N     0.05546   0.51243   0.63648   0.00000  Uiso   1.00
N598   N     0.27303   0.62749   0.00154   0.00000  Uiso   1.00
C599   C     0.73310   0.05378   0.09988   0.00000  Uiso   1.00
C600   C     0.73459   0.09176   0.02145   0.00000  Uiso   1.00
C601   C     0.75922   0.09360   0.92835   0.00000  Uiso   1.00
C602   C     0.75608   0.13121   0.86740   0.00000  Uiso   1.00
C603   C     0.76245   0.18492   0.74086   0.00000  Uiso   1.00
C604   C     0.68546   0.04070   0.10844   0.00000  Uiso   1.00
C605   C     0.66878   0.99961   0.08848   0.00000  Uiso   1.00
C606   C     0.62429   0.99424   0.10077   0.00000  Uiso   1.00
C607   C     0.55438   0.96867   0.10935   0.00000  Uiso   1.00
C608   C     0.74542   0.07241   0.20904   0.00000  Uiso   1.00
C609   C     0.77916   0.05798   0.27368   0.00000  Uiso   1.00
C610   C     0.78514   0.07931   0.37069   0.00000  Uiso   1.00
C611   C     0.80834   0.10298   0.53546   0.00000  Uiso   1.00
C612   C     0.68373   0.11731   0.15722   0.00000  Uiso   1.00
C613   C     0.70777   0.12626   0.05260   0.00000  Uiso   1.00
C614   C     0.70459   0.16388   0.99179   0.00000  Uiso   1.00
C615   C     0.72921   0.16578   0.89861   0.00000  Uiso   1.00
C616   C     0.65864   0.07520   0.13958   0.00000  Uiso   1.00
C617   C     0.61415   0.06989   0.15192   0.00000  Uiso   1.00
C618   C     0.59742   0.02880   0.13198   0.00000  Uiso   1.00
C619   C     0.71860   0.10692   0.24018   0.00000  Uiso   1.00
C620   C     0.72453   0.12827   0.33712   0.00000  Uiso   1.00
C621   C     0.75827   0.11387   0.40189   0.00000  Uiso   1.00
H622   H     0.75398   0.02691   0.07563   0.00000  Uiso   1.00
H623   H     0.77997   0.06688   0.90427   0.00000  Uiso   1.00
H624   H     0.68955   0.97291   0.06439   0.00000  Uiso   1.00
H625   H     0.79991   0.03128   0.24955   0.00000  Uiso   1.00
H626   H     0.79694   0.12641   0.72799   0.00000  Uiso   1.00
H627   H     0.60628   0.92826   0.06565   0.00000  Uiso   1.00
H628   H     0.83900   0.05133   0.45611   0.00000  Uiso   1.00
H629   H     0.66284   0.14417   0.18147   0.00000  Uiso   1.00
H630   H     0.68383   0.19058   0.01591   0.00000  Uiso   1.00
H631   H     0.59341   0.09660   0.17603   0.00000  Uiso   1.00
H632   H     0.70377   0.15497   0.36119   0.00000  Uiso   1.00
H633   H     0.71891   0.22680   0.81860   0.00000  Uiso   1.00
H634   H     0.52826   0.02865   0.15626   0.00000  Uiso   1.00
H635   H     0.76097   0.15173   0.54672   0.00000  Uiso   1.00
O636   O     0.77336   0.20501   0.66245   0.00000  Uiso   1.00
O637   O     0.52324   0.94504   0.10547   0.00000  Uiso   1.00
O638   O     0.82855   0.10651   0.61774   0.00000  Uiso   1.00
N639   N     0.77570   0.14367   0.77205   0.00000  Uiso   1.00
N640   N     0.59745   0.95841   0.08772   0.00000  Uiso   1.00
N641   N     0.81501   0.07347   0.45278   0.00000  Uiso   1.00
N642   N     0.73372   0.19769   0.82080   0.00000  Uiso   1.00
N643   N     0.55546   0.01243   0.13648   0.00000  Uiso   1.00
N644   N     0.77303   0.12749   0.50154   0.00000  Uiso   1.00
C645   C     0.26690   0.94622   0.09988   0.00000  Uiso   1.00
C646   C     0.26541   0.90824   0.02145   0.00000  Uiso   1.00
C647   C     0.24078   0.90640   0.92835   0.00000  Uiso   1.00
C648   C     0.24392   0.86879   0.86740   0.00000  Uiso   1.00
C649   C     0.23755   0.81508   0.74086   0.00000  Uiso   1.00
C650   C     0.31454   0.95930   0.10844   0.00000  Uiso   1.00
C651   C     0.33122   0.00039   0.08848   0.00000  Uiso   1.00
C652   C     0.37571   0.00576   0.10077   0.00000  Uiso   1.00
C653   C     0.44562   0.03133   0.10935   0.00000  Uiso   1.00
C654   C     0.25458   0.92759   0.20904   0.00000  Uiso   1.00
C655   C     0.22084   0.94202   0.27368   0.00000  Uiso   1.00
C656   C     0.21486   0.92069   0.37069   0.00000  Uiso   1.00
C657   C     0.19166   0.89702   0.53546   0.00000  Uiso   1.00
C658   C     0.31627   0.88269   0.15722   0.00000  Uiso   1.00
C659   C     0.29223   0.87374   0.05260   0.00000  Uiso   1.00
C660   C     0.29541   0.83612   0.99179   0.00000  Uiso   1.00
C661   C     0.27079   0.83422   0.89861   0.00000  Uiso   1.00
C662   C     0.34136   0.92480   0.13958   0.00000  Uiso   1.00
C663   C     0.38585   0.93011   0.15192   0.00000  Uiso   1.00
C664   C     0.40258   0.97120   0.13198   0.00000  Uiso   1.00
C665   C     0.28140   0.89308   0.24018   0.00000  Uiso   1.00
C666   C     0.27547   0.87173   0.33712   0.00000  Uiso   1.00
C667   C     0.24173   0.88613   0.40189   0.00000  Uiso   1.00
H668   H     0.24602   0.97309   0.07563   0.00000  Uiso   1.00
H669   H     0.22003   0.93312   0.90427   0.00000  Uiso   1.00
H670   H     0.31045   0.02709   0.06439   0.00000  Uiso   1.00
H671   H     0.20009   0.96872   0.24955   0.00000  Uiso   1.00
H672   H     0.20306   0.87359   0.72799   0.00000  Uiso   1.00
H673   H     0.39372   0.07174   0.06565   0.00000  Uiso   1.00
H674   H     0.16100   0.94867   0.45611   0.00000  Uiso   1.00
H675   H     0.33716   0.85583   0.18147   0.00000  Uiso   1.00
H676   H     0.31617   0.80942   0.01591   0.00000  Uiso   1.00
H677   H     0.40659   0.90340   0.17603   0.00000  Uiso   1.00
H678   H     0.29623   0.84503   0.36119   0.00000  Uiso   1.00
H679   H     0.28109   0.77320   0.81860   0.00000  Uiso   1.00
H680   H     0.47174   0.97135   0.15626   0.00000  Uiso   1.00
H681   H     0.23903   0.84827   0.54672   0.00000  Uiso   1.00
O682   O     0.22664   0.79499   0.66245   0.00000  Uiso   1.00
O683   O     0.47676   0.05496   0.10547   0.00000  Uiso   1.00
O684   O     0.17145   0.89349   0.61774   0.00000  Uiso   1.00
N685   N     0.22430   0.85633   0.77205   0.00000  Uiso   1.00
N686   N     0.40255   0.04159   0.08772   0.00000  Uiso   1.00
N687   N     0.18499   0.92653   0.45278   0.00000  Uiso   1.00
N688   N     0.26628   0.80231   0.82080   0.00000  Uiso   1.00
N689   N     0.44454   0.98757   0.13648   0.00000  Uiso   1.00
N690   N     0.22697   0.87251   0.50154   0.00000  Uiso   1.00
C691   C     0.76690   0.44622   0.59988   0.00000  Uiso   1.00
C692   C     0.76541   0.40824   0.52145   0.00000  Uiso   1.00
C693   C     0.74078   0.40640   0.42835   0.00000  Uiso   1.00
C694   C     0.74392   0.36879   0.36740   0.00000  Uiso   1.00
C695   C     0.73755   0.31508   0.24086   0.00000  Uiso   1.00
C696   C     0.81454   0.45930   0.60844   0.00000  Uiso   1.00
C697   C     0.83122   0.50039   0.58848   0.00000  Uiso   1.00
C698   C     0.87571   0.50576   0.60077   0.00000  Uiso   1.00
C699   C     0.94562   0.53133   0.60935   0.00000  Uiso   1.00
C700   C     0.75458   0.42759   0.70904   0.00000  Uiso   1.00
C701   C     0.72084   0.44202   0.77368   0.00000  Uiso   1.00
C702   C     0.71486   0.42069   0.87069   0.00000  Uiso   1.00
C703   C     0.69166   0.39702   0.03546   0.00000  Uiso   1.00
C704   C     0.81627   0.38269   0.65722   0.00000  Uiso   1.00
C705   C     0.79223   0.37374   0.55260   0.00000  Uiso   1.00
C706   C     0.79541   0.33612   0.49179   0.00000  Uiso   1.00
C707   C     0.77079   0.33422   0.39861   0.00000  Uiso   1.00
C708   C     0.84136   0.42480   0.63958   0.00000  Uiso   1.00
C709   C     0.88585   0.43011   0.65192   0.00000  Uiso   1.00
C710   C     0.90258   0.47120   0.63198   0.00000  Uiso   1.00
C711   C     0.78140   0.39308   0.74018   0.00000  Uiso   1.00
C712   C     0.77547   0.37173   0.83712   0.00000  Uiso   1.00
C713   C     0.74173   0.38613   0.90189   0.00000  Uiso   1.00
H714   H     0.74602   0.47309   0.57563   0.00000  Uiso   1.00
H715   H     0.72003   0.43312   0.40427   0.00000  Uiso   1.00
H716   H     0.81045   0.52709   0.56439   0.00000  Uiso   1.00
H717   H     0.70009   0.46872   0.74955   0.00000  Uiso   1.00
H718   H     0.70306   0.37359   0.22799   0.00000  Uiso   1.00
H719   H     0.89372   0.57174   0.56565   0.00000  Uiso   1.00
H720   H     0.66100   0.44867   0.95611   0.00000  Uiso   1.00
H721   H     0.83716   0.35583   0.68147   0.00000  Uiso   1.00
H722   H     0.81617   0.30942   0.51591   0.00000  Uiso   1.00
H723   H     0.90659   0.40340   0.67603   0.00000  Uiso   1.00
H724   H     0.79623   0.34503   0.86119   0.00000  Uiso   1.00
H725   H     0.78109   0.27320   0.31860   0.00000  Uiso   1.00
H726   H     0.97174   0.47135   0.65626   0.00000  Uiso   1.00
H727   H     0.73903   0.34827   0.04672   0.00000  Uiso   1.00
O728   O     0.72664   0.29499   0.16245   0.00000  Uiso   1.00
O729   O     0.97676   0.55496   0.60547   0.00000  Uiso   1.00
O730   O     0.67145   0.39349   0.11774   0.00000  Uiso   1.00
N731   N     0.72430   0.35633   0.27205   0.00000  Uiso   1.00
N732   N     0.90255   0.54159   0.58772   0.00000  Uiso   1.00
N733   N     0.68499   0.42653   0.95278   0.00000  Uiso   1.00
N734   N     0.76628   0.30231   0.32080   0.00000  Uiso   1.00
N735   N     0.94454   0.48757   0.63648   0.00000  Uiso   1.00
N736   N     0.72697   0.37251   0.00154   0.00000  Uiso   1.00
