data_job_04217
_audit_creation_date              2018-12-19
_audit_creation_method            'Materials Studio'
_symmetry_space_group_name_H-M    'P1'
_symmetry_Int_Tables_number       1
_symmetry_cell_setting            triclinic
loop_
_symmetry_equiv_pos_as_xyz
  x,y,z
_cell_length_a                    37.2042
_cell_length_b                    37.2042
_cell_length_c                    12.3514
_cell_angle_alpha                 90.0000
_cell_angle_beta                  90.0000
_cell_angle_gamma                 90.0000
loop_
_atom_site_label
_atom_site_type_symbol
_atom_site_fract_x
_atom_site_fract_y
_atom_site_fract_z
_atom_site_U_iso_or_equiv
_atom_site_adp_type
_atom_site_occupancy
C1     C     0.06099   0.56208   0.74358   0.00000  Uiso   1.00
C2     C     0.07140   0.54751   0.63252   0.00000  Uiso   1.00
C3     C     0.05021   0.52567   0.56753   0.00000  Uiso   1.00
C4     C     0.06460   0.51520   0.46872   0.00000  Uiso   1.00
C5     C     0.07555   0.49090   0.30125   0.00000  Uiso   1.00
C6     C     0.09039   0.54975   0.82118   0.00000  Uiso   1.00
C7     C     0.08516   0.52980   0.91481   0.00000  Uiso   1.00
C8     C     0.11553   0.52122   0.97482   0.00000  Uiso   1.00
C9     C     0.15596   0.50041   0.10028   0.00000  Uiso   1.00
C10    C     0.06450   0.60283   0.73599   0.00000  Uiso   1.00
C11    C     0.03751   0.62752   0.75803   0.00000  Uiso   1.00
C12    C     0.04609   0.66364   0.74634   0.00000  Uiso   1.00
C13    C     0.04633   0.72525   0.73954   0.00000  Uiso   1.00
C14    C     0.12422   0.58231   0.68367   0.00000  Uiso   1.00
C15    C     0.10575   0.55850   0.59999   0.00000  Uiso   1.00
C16    C     0.12017   0.54806   0.50125   0.00000  Uiso   1.00
C17    C     0.09900   0.52621   0.43612   0.00000  Uiso   1.00
C18    C     0.12473   0.56074   0.78864   0.00000  Uiso   1.00
C19    C     0.15511   0.55219   0.84853   0.00000  Uiso   1.00
C20    C     0.14993   0.53223   0.94222   0.00000  Uiso   1.00
C21    C     0.09885   0.61383   0.70345   0.00000  Uiso   1.00
C22    C     0.10747   0.64991   0.69174   0.00000  Uiso   1.00
C23    C     0.08050   0.67465   0.71374   0.00000  Uiso   1.00
H24    H     0.03425   0.55352   0.76892   0.00000  Uiso   1.00
H25    H     0.02364   0.51717   0.59274   0.00000  Uiso   1.00
H26    H     0.05858   0.52130   0.93997   0.00000  Uiso   1.00
H27    H     0.01094   0.61901   0.78320   0.00000  Uiso   1.00
H28    H     0.02702   0.48171   0.38309   0.00000  Uiso   1.00
H29    H     0.10070   0.49043   0.11526   0.00000  Uiso   1.00
H30    H     0.00024   0.69646   0.78469   0.00000  Uiso   1.00
H31    H     0.15096   0.59087   0.65834   0.00000  Uiso   1.00
H32    H     0.14675   0.55657   0.47609   0.00000  Uiso   1.00
H33    H     0.18169   0.56070   0.82333   0.00000  Uiso   1.00
H34    H     0.13405   0.65840   0.66656   0.00000  Uiso   1.00
H35    H     0.12694   0.51368   0.28842   0.00000  Uiso   1.00
H36    H     0.20061   0.52240   0.02059   0.00000  Uiso   1.00
H37    H     0.10016   0.72843   0.69002   0.00000  Uiso   1.00
O38    O     0.07211   0.47445   0.21788   0.00000  Uiso   1.00
O39    O     0.16877   0.48589   0.17847   0.00000  Uiso   1.00
O40    O     0.03697   0.75620   0.74476   0.00000  Uiso   1.00
N41    N     0.05111   0.49395   0.38581   0.00000  Uiso   1.00
N42    N     0.11999   0.50209   0.07034   0.00000  Uiso   1.00
N43    N     0.02608   0.69472   0.76131   0.00000  Uiso   1.00
N44    N     0.10488   0.51115   0.33487   0.00000  Uiso   1.00
N45    N     0.17376   0.51930   0.01939   0.00000  Uiso   1.00
N46    N     0.07984   0.71192   0.71037   0.00000  Uiso   1.00
C47    C     0.56099   0.06208   0.24358   0.00000  Uiso   1.00
C48    C     0.57140   0.04751   0.13252   0.00000  Uiso   1.00
C49    C     0.55021   0.02567   0.06753   0.00000  Uiso   1.00
C50    C     0.56460   0.01520   0.96872   0.00000  Uiso   1.00
C51    C     0.57555   0.99090   0.80125   0.00000  Uiso   1.00
C52    C     0.59039   0.04975   0.32118   0.00000  Uiso   1.00
C53    C     0.58516   0.02980   0.41481   0.00000  Uiso   1.00
C54    C     0.61553   0.02122   0.47482   0.00000  Uiso   1.00
C55    C     0.65596   0.00041   0.60028   0.00000  Uiso   1.00
C56    C     0.56450   0.10283   0.23599   0.00000  Uiso   1.00
C57    C     0.53751   0.12752   0.25803   0.00000  Uiso   1.00
C58    C     0.54609   0.16364   0.24634   0.00000  Uiso   1.00
C59    C     0.54633   0.22525   0.23954   0.00000  Uiso   1.00
C60    C     0.62422   0.08231   0.18367   0.00000  Uiso   1.00
C61    C     0.60575   0.05850   0.09999   0.00000  Uiso   1.00
C62    C     0.62017   0.04806   0.00125   0.00000  Uiso   1.00
C63    C     0.59900   0.02621   0.93612   0.00000  Uiso   1.00
C64    C     0.62473   0.06074   0.28864   0.00000  Uiso   1.00
C65    C     0.65511   0.05219   0.34853   0.00000  Uiso   1.00
C66    C     0.64993   0.03223   0.44222   0.00000  Uiso   1.00
C67    C     0.59885   0.11383   0.20345   0.00000  Uiso   1.00
C68    C     0.60747   0.14991   0.19174   0.00000  Uiso   1.00
C69    C     0.58050   0.17465   0.21374   0.00000  Uiso   1.00
H70    H     0.53425   0.05352   0.26892   0.00000  Uiso   1.00
H71    H     0.52364   0.01717   0.09274   0.00000  Uiso   1.00
H72    H     0.55858   0.02130   0.43997   0.00000  Uiso   1.00
H73    H     0.51094   0.11901   0.28320   0.00000  Uiso   1.00
H74    H     0.52702   0.98171   0.88309   0.00000  Uiso   1.00
H75    H     0.60070   0.99043   0.61526   0.00000  Uiso   1.00
H76    H     0.50024   0.19646   0.28469   0.00000  Uiso   1.00
H77    H     0.65096   0.09087   0.15834   0.00000  Uiso   1.00
H78    H     0.64675   0.05657   0.97609   0.00000  Uiso   1.00
H79    H     0.68169   0.06070   0.32333   0.00000  Uiso   1.00
H80    H     0.63405   0.15840   0.16656   0.00000  Uiso   1.00
H81    H     0.62694   0.01368   0.78842   0.00000  Uiso   1.00
H82    H     0.70061   0.02240   0.52059   0.00000  Uiso   1.00
H83    H     0.60016   0.22843   0.19002   0.00000  Uiso   1.00
O84    O     0.57211   0.97445   0.71788   0.00000  Uiso   1.00
O85    O     0.66877   0.98589   0.67847   0.00000  Uiso   1.00
O86    O     0.53697   0.25620   0.24476   0.00000  Uiso   1.00
N87    N     0.55111   0.99395   0.88581   0.00000  Uiso   1.00
N88    N     0.61999   0.00209   0.57034   0.00000  Uiso   1.00
N89    N     0.52608   0.19472   0.26131   0.00000  Uiso   1.00
N90    N     0.60488   0.01115   0.83487   0.00000  Uiso   1.00
N91    N     0.67376   0.01930   0.51939   0.00000  Uiso   1.00
N92    N     0.57984   0.21192   0.21037   0.00000  Uiso   1.00
C93    C     0.43901   0.93792   0.24358   0.00000  Uiso   1.00
C94    C     0.42860   0.95249   0.13252   0.00000  Uiso   1.00
C95    C     0.44979   0.97433   0.06753   0.00000  Uiso   1.00
C96    C     0.43540   0.98480   0.96872   0.00000  Uiso   1.00
C97    C     0.42445   0.00910   0.80125   0.00000  Uiso   1.00
C98    C     0.40961   0.95025   0.32118   0.00000  Uiso   1.00
C99    C     0.41484   0.97020   0.41481   0.00000  Uiso   1.00
C100   C     0.38447   0.97878   0.47482   0.00000  Uiso   1.00
C101   C     0.34404   0.99959   0.60028   0.00000  Uiso   1.00
C102   C     0.43550   0.89717   0.23599   0.00000  Uiso   1.00
C103   C     0.46249   0.87248   0.25803   0.00000  Uiso   1.00
C104   C     0.45391   0.83636   0.24634   0.00000  Uiso   1.00
C105   C     0.45367   0.77475   0.23954   0.00000  Uiso   1.00
C106   C     0.37578   0.91769   0.18367   0.00000  Uiso   1.00
C107   C     0.39425   0.94150   0.09999   0.00000  Uiso   1.00
C108   C     0.37983   0.95194   0.00125   0.00000  Uiso   1.00
C109   C     0.40100   0.97379   0.93612   0.00000  Uiso   1.00
C110   C     0.37527   0.93926   0.28864   0.00000  Uiso   1.00
C111   C     0.34489   0.94781   0.34853   0.00000  Uiso   1.00
C112   C     0.35007   0.96777   0.44222   0.00000  Uiso   1.00
C113   C     0.40115   0.88617   0.20345   0.00000  Uiso   1.00
C114   C     0.39253   0.85009   0.19174   0.00000  Uiso   1.00
C115   C     0.41950   0.82535   0.21374   0.00000  Uiso   1.00
H116   H     0.46575   0.94648   0.26892   0.00000  Uiso   1.00
H117   H     0.47636   0.98283   0.09274   0.00000  Uiso   1.00
H118   H     0.44142   0.97870   0.43997   0.00000  Uiso   1.00
H119   H     0.48906   0.88099   0.28320   0.00000  Uiso   1.00
H120   H     0.47298   0.01829   0.88309   0.00000  Uiso   1.00
H121   H     0.39930   0.00957   0.61526   0.00000  Uiso   1.00
H122   H     0.49976   0.80354   0.28469   0.00000  Uiso   1.00
H123   H     0.34904   0.90913   0.15834   0.00000  Uiso   1.00
H124   H     0.35325   0.94343   0.97609   0.00000  Uiso   1.00
H125   H     0.31831   0.93930   0.32333   0.00000  Uiso   1.00
H126   H     0.36595   0.84160   0.16656   0.00000  Uiso   1.00
H127   H     0.37306   0.98632   0.78842   0.00000  Uiso   1.00
H128   H     0.29939   0.97760   0.52059   0.00000  Uiso   1.00
H129   H     0.39984   0.77157   0.19002   0.00000  Uiso   1.00
O130   O     0.42789   0.02555   0.71788   0.00000  Uiso   1.00
O131   O     0.33123   0.01411   0.67847   0.00000  Uiso   1.00
O132   O     0.46303   0.74380   0.24476   0.00000  Uiso   1.00
N133   N     0.44889   0.00605   0.88581   0.00000  Uiso   1.00
N134   N     0.38001   0.99791   0.57034   0.00000  Uiso   1.00
N135   N     0.47392   0.80528   0.26131   0.00000  Uiso   1.00
N136   N     0.39512   0.98885   0.83487   0.00000  Uiso   1.00
N137   N     0.32624   0.98070   0.51939   0.00000  Uiso   1.00
N138   N     0.42016   0.78808   0.21037   0.00000  Uiso   1.00
C139   C     0.93901   0.43792   0.74358   0.00000  Uiso   1.00
C140   C     0.92860   0.45249   0.63252   0.00000  Uiso   1.00
C141   C     0.94979   0.47433   0.56753   0.00000  Uiso   1.00
C142   C     0.93540   0.48480   0.46872   0.00000  Uiso   1.00
C143   C     0.92445   0.50910   0.30125   0.00000  Uiso   1.00
C144   C     0.90961   0.45025   0.82118   0.00000  Uiso   1.00
C145   C     0.91484   0.47020   0.91481   0.00000  Uiso   1.00
C146   C     0.88447   0.47878   0.97482   0.00000  Uiso   1.00
C147   C     0.84404   0.49959   0.10028   0.00000  Uiso   1.00
C148   C     0.93550   0.39717   0.73599   0.00000  Uiso   1.00
C149   C     0.96249   0.37248   0.75803   0.00000  Uiso   1.00
C150   C     0.95391   0.33636   0.74634   0.00000  Uiso   1.00
C151   C     0.95367   0.27475   0.73954   0.00000  Uiso   1.00
C152   C     0.87578   0.41769   0.68367   0.00000  Uiso   1.00
C153   C     0.89425   0.44150   0.59999   0.00000  Uiso   1.00
C154   C     0.87983   0.45194   0.50125   0.00000  Uiso   1.00
C155   C     0.90100   0.47379   0.43612   0.00000  Uiso   1.00
C156   C     0.87527   0.43926   0.78864   0.00000  Uiso   1.00
C157   C     0.84489   0.44781   0.84853   0.00000  Uiso   1.00
C158   C     0.85007   0.46777   0.94222   0.00000  Uiso   1.00
C159   C     0.90115   0.38617   0.70345   0.00000  Uiso   1.00
C160   C     0.89253   0.35009   0.69174   0.00000  Uiso   1.00
C161   C     0.91950   0.32535   0.71374   0.00000  Uiso   1.00
H162   H     0.96575   0.44648   0.76892   0.00000  Uiso   1.00
H163   H     0.97636   0.48283   0.59274   0.00000  Uiso   1.00
H164   H     0.94142   0.47870   0.93997   0.00000  Uiso   1.00
H165   H     0.98906   0.38099   0.78320   0.00000  Uiso   1.00
H166   H     0.97298   0.51829   0.38309   0.00000  Uiso   1.00
H167   H     0.89930   0.50957   0.11526   0.00000  Uiso   1.00
H168   H     0.99976   0.30354   0.78469   0.00000  Uiso   1.00
H169   H     0.84904   0.40913   0.65834   0.00000  Uiso   1.00
H170   H     0.85325   0.44343   0.47609   0.00000  Uiso   1.00
H171   H     0.81831   0.43930   0.82333   0.00000  Uiso   1.00
H172   H     0.86595   0.34160   0.66656   0.00000  Uiso   1.00
H173   H     0.87306   0.48632   0.28842   0.00000  Uiso   1.00
H174   H     0.79939   0.47760   0.02059   0.00000  Uiso   1.00
H175   H     0.89984   0.27157   0.69002   0.00000  Uiso   1.00
O176   O     0.92789   0.52555   0.21788   0.00000  Uiso   1.00
O177   O     0.83123   0.51411   0.17847   0.00000  Uiso   1.00
O178   O     0.96303   0.24380   0.74476   0.00000  Uiso   1.00
N179   N     0.94889   0.50605   0.38581   0.00000  Uiso   1.00
N180   N     0.88001   0.49791   0.07034   0.00000  Uiso   1.00
N181   N     0.97392   0.30528   0.76131   0.00000  Uiso   1.00
N182   N     0.89512   0.48885   0.33487   0.00000  Uiso   1.00
N183   N     0.82624   0.48070   0.01939   0.00000  Uiso   1.00
N184   N     0.92016   0.28808   0.71037   0.00000  Uiso   1.00
C185   C     0.43792   0.56099   0.99358   0.00000  Uiso   1.00
C186   C     0.45249   0.57140   0.88252   0.00000  Uiso   1.00
C187   C     0.47433   0.55021   0.81753   0.00000  Uiso   1.00
C188   C     0.48480   0.56460   0.71872   0.00000  Uiso   1.00
C189   C     0.50910   0.57555   0.55125   0.00000  Uiso   1.00
C190   C     0.45025   0.59039   0.07118   0.00000  Uiso   1.00
C191   C     0.47020   0.58516   0.16481   0.00000  Uiso   1.00
C192   C     0.47878   0.61553   0.22482   0.00000  Uiso   1.00
C193   C     0.49959   0.65596   0.35028   0.00000  Uiso   1.00
C194   C     0.39717   0.56450   0.98599   0.00000  Uiso   1.00
C195   C     0.37248   0.53751   0.00803   0.00000  Uiso   1.00
C196   C     0.33636   0.54609   0.99634   0.00000  Uiso   1.00
C197   C     0.27475   0.54633   0.98954   0.00000  Uiso   1.00
C198   C     0.41769   0.62422   0.93367   0.00000  Uiso   1.00
C199   C     0.44150   0.60575   0.84999   0.00000  Uiso   1.00
C200   C     0.45194   0.62017   0.75125   0.00000  Uiso   1.00
C201   C     0.47379   0.59900   0.68612   0.00000  Uiso   1.00
C202   C     0.43926   0.62473   0.03864   0.00000  Uiso   1.00
C203   C     0.44781   0.65511   0.09853   0.00000  Uiso   1.00
C204   C     0.46777   0.64993   0.19222   0.00000  Uiso   1.00
C205   C     0.38617   0.59885   0.95345   0.00000  Uiso   1.00
C206   C     0.35009   0.60747   0.94174   0.00000  Uiso   1.00
C207   C     0.32535   0.58050   0.96374   0.00000  Uiso   1.00
H208   H     0.44648   0.53425   0.01892   0.00000  Uiso   1.00
H209   H     0.48283   0.52364   0.84274   0.00000  Uiso   1.00
H210   H     0.47870   0.55858   0.18997   0.00000  Uiso   1.00
H211   H     0.38099   0.51094   0.03320   0.00000  Uiso   1.00
H212   H     0.51829   0.52702   0.63309   0.00000  Uiso   1.00
H213   H     0.50957   0.60070   0.36526   0.00000  Uiso   1.00
H214   H     0.30354   0.50024   0.03469   0.00000  Uiso   1.00
H215   H     0.40913   0.65096   0.90834   0.00000  Uiso   1.00
H216   H     0.44343   0.64675   0.72609   0.00000  Uiso   1.00
H217   H     0.43930   0.68169   0.07333   0.00000  Uiso   1.00
H218   H     0.34160   0.63405   0.91656   0.00000  Uiso   1.00
H219   H     0.48632   0.62694   0.53842   0.00000  Uiso   1.00
H220   H     0.47760   0.70061   0.27059   0.00000  Uiso   1.00
H221   H     0.27157   0.60016   0.94002   0.00000  Uiso   1.00
O222   O     0.52555   0.57211   0.46788   0.00000  Uiso   1.00
O223   O     0.51411   0.66877   0.42847   0.00000  Uiso   1.00
O224   O     0.24380   0.53697   0.99476   0.00000  Uiso   1.00
N225   N     0.50605   0.55111   0.63581   0.00000  Uiso   1.00
N226   N     0.49791   0.61999   0.32034   0.00000  Uiso   1.00
N227   N     0.30528   0.52608   0.01131   0.00000  Uiso   1.00
N228   N     0.48885   0.60488   0.58487   0.00000  Uiso   1.00
N229   N     0.48070   0.67376   0.26939   0.00000  Uiso   1.00
N230   N     0.28808   0.57984   0.96037   0.00000  Uiso   1.00
C231   C     0.93792   0.06099   0.49358   0.00000  Uiso   1.00
C232   C     0.95249   0.07140   0.38252   0.00000  Uiso   1.00
C233   C     0.97433   0.05021   0.31753   0.00000  Uiso   1.00
C234   C     0.98480   0.06460   0.21872   0.00000  Uiso   1.00
C235   C     0.00910   0.07555   0.05125   0.00000  Uiso   1.00
C236   C     0.95025   0.09039   0.57118   0.00000  Uiso   1.00
C237   C     0.97020   0.08516   0.66481   0.00000  Uiso   1.00
C238   C     0.97878   0.11553   0.72482   0.00000  Uiso   1.00
C239   C     0.99959   0.15596   0.85028   0.00000  Uiso   1.00
C240   C     0.89717   0.06450   0.48599   0.00000  Uiso   1.00
C241   C     0.87248   0.03751   0.50803   0.00000  Uiso   1.00
C242   C     0.83636   0.04609   0.49634   0.00000  Uiso   1.00
C243   C     0.77475   0.04633   0.48954   0.00000  Uiso   1.00
C244   C     0.91769   0.12422   0.43367   0.00000  Uiso   1.00
C245   C     0.94150   0.10575   0.34999   0.00000  Uiso   1.00
C246   C     0.95194   0.12017   0.25125   0.00000  Uiso   1.00
C247   C     0.97379   0.09900   0.18612   0.00000  Uiso   1.00
C248   C     0.93926   0.12473   0.53864   0.00000  Uiso   1.00
C249   C     0.94781   0.15511   0.59853   0.00000  Uiso   1.00
C250   C     0.96777   0.14993   0.69222   0.00000  Uiso   1.00
C251   C     0.88617   0.09885   0.45345   0.00000  Uiso   1.00
C252   C     0.85009   0.10747   0.44174   0.00000  Uiso   1.00
C253   C     0.82535   0.08050   0.46374   0.00000  Uiso   1.00
H254   H     0.94648   0.03425   0.51892   0.00000  Uiso   1.00
H255   H     0.98283   0.02364   0.34274   0.00000  Uiso   1.00
H256   H     0.97870   0.05858   0.68997   0.00000  Uiso   1.00
H257   H     0.88099   0.01094   0.53320   0.00000  Uiso   1.00
H258   H     0.01829   0.02702   0.13309   0.00000  Uiso   1.00
H259   H     0.00957   0.10070   0.86526   0.00000  Uiso   1.00
H260   H     0.80354   0.00024   0.53469   0.00000  Uiso   1.00
H261   H     0.90913   0.15096   0.40834   0.00000  Uiso   1.00
H262   H     0.94343   0.14675   0.22609   0.00000  Uiso   1.00
H263   H     0.93930   0.18169   0.57333   0.00000  Uiso   1.00
H264   H     0.84160   0.13405   0.41656   0.00000  Uiso   1.00
H265   H     0.98632   0.12694   0.03842   0.00000  Uiso   1.00
H266   H     0.97760   0.20061   0.77059   0.00000  Uiso   1.00
H267   H     0.77157   0.10016   0.44002   0.00000  Uiso   1.00
O268   O     0.02555   0.07211   0.96788   0.00000  Uiso   1.00
O269   O     0.01411   0.16877   0.92847   0.00000  Uiso   1.00
O270   O     0.74380   0.03697   0.49476   0.00000  Uiso   1.00
N271   N     0.00605   0.05111   0.13581   0.00000  Uiso   1.00
N272   N     0.99791   0.11999   0.82034   0.00000  Uiso   1.00
N273   N     0.80528   0.02608   0.51131   0.00000  Uiso   1.00
N274   N     0.98885   0.10488   0.08487   0.00000  Uiso   1.00
N275   N     0.98070   0.17376   0.76939   0.00000  Uiso   1.00
N276   N     0.78808   0.07984   0.46037   0.00000  Uiso   1.00
C277   C     0.06208   0.93901   0.49358   0.00000  Uiso   1.00
C278   C     0.04751   0.92860   0.38252   0.00000  Uiso   1.00
C279   C     0.02567   0.94979   0.31753   0.00000  Uiso   1.00
C280   C     0.01520   0.93540   0.21872   0.00000  Uiso   1.00
C281   C     0.99090   0.92445   0.05125   0.00000  Uiso   1.00
C282   C     0.04975   0.90961   0.57118   0.00000  Uiso   1.00
C283   C     0.02980   0.91484   0.66481   0.00000  Uiso   1.00
C284   C     0.02122   0.88447   0.72482   0.00000  Uiso   1.00
C285   C     0.00041   0.84404   0.85028   0.00000  Uiso   1.00
C286   C     0.10283   0.93550   0.48599   0.00000  Uiso   1.00
C287   C     0.12752   0.96249   0.50803   0.00000  Uiso   1.00
C288   C     0.16364   0.95391   0.49634   0.00000  Uiso   1.00
C289   C     0.22525   0.95367   0.48954   0.00000  Uiso   1.00
C290   C     0.08231   0.87578   0.43367   0.00000  Uiso   1.00
C291   C     0.05850   0.89425   0.34999   0.00000  Uiso   1.00
C292   C     0.04806   0.87983   0.25125   0.00000  Uiso   1.00
C293   C     0.02621   0.90100   0.18612   0.00000  Uiso   1.00
C294   C     0.06074   0.87527   0.53864   0.00000  Uiso   1.00
C295   C     0.05219   0.84489   0.59853   0.00000  Uiso   1.00
C296   C     0.03223   0.85007   0.69222   0.00000  Uiso   1.00
C297   C     0.11383   0.90115   0.45345   0.00000  Uiso   1.00
C298   C     0.14991   0.89253   0.44174   0.00000  Uiso   1.00
C299   C     0.17465   0.91950   0.46374   0.00000  Uiso   1.00
H300   H     0.05352   0.96575   0.51892   0.00000  Uiso   1.00
H301   H     0.01717   0.97636   0.34274   0.00000  Uiso   1.00
H302   H     0.02130   0.94142   0.68997   0.00000  Uiso   1.00
H303   H     0.11901   0.98906   0.53320   0.00000  Uiso   1.00
H304   H     0.98171   0.97298   0.13309   0.00000  Uiso   1.00
H305   H     0.99043   0.89930   0.86526   0.00000  Uiso   1.00
H306   H     0.19646   0.99976   0.53469   0.00000  Uiso   1.00
H307   H     0.09087   0.84904   0.40834   0.00000  Uiso   1.00
H308   H     0.05657   0.85325   0.22609   0.00000  Uiso   1.00
H309   H     0.06070   0.81831   0.57333   0.00000  Uiso   1.00
H310   H     0.15840   0.86595   0.41656   0.00000  Uiso   1.00
H311   H     0.01368   0.87306   0.03842   0.00000  Uiso   1.00
H312   H     0.02240   0.79939   0.77059   0.00000  Uiso   1.00
H313   H     0.22843   0.89984   0.44002   0.00000  Uiso   1.00
O314   O     0.97445   0.92789   0.96788   0.00000  Uiso   1.00
O315   O     0.98589   0.83123   0.92847   0.00000  Uiso   1.00
O316   O     0.25620   0.96303   0.49476   0.00000  Uiso   1.00
N317   N     0.99395   0.94889   0.13581   0.00000  Uiso   1.00
N318   N     0.00209   0.88001   0.82034   0.00000  Uiso   1.00
N319   N     0.19472   0.97392   0.51131   0.00000  Uiso   1.00
N320   N     0.01115   0.89512   0.08487   0.00000  Uiso   1.00
N321   N     0.01930   0.82624   0.76939   0.00000  Uiso   1.00
N322   N     0.21192   0.92016   0.46037   0.00000  Uiso   1.00
C323   C     0.56208   0.43901   0.99358   0.00000  Uiso   1.00
C324   C     0.54751   0.42860   0.88252   0.00000  Uiso   1.00
C325   C     0.52567   0.44979   0.81753   0.00000  Uiso   1.00
C326   C     0.51520   0.43540   0.71872   0.00000  Uiso   1.00
C327   C     0.49090   0.42445   0.55125   0.00000  Uiso   1.00
C328   C     0.54975   0.40961   0.07118   0.00000  Uiso   1.00
C329   C     0.52980   0.41484   0.16481   0.00000  Uiso   1.00
C330   C     0.52122   0.38447   0.22482   0.00000  Uiso   1.00
C331   C     0.50041   0.34404   0.35028   0.00000  Uiso   1.00
C332   C     0.60283   0.43550   0.98599   0.00000  Uiso   1.00
C333   C     0.62752   0.46249   0.00803   0.00000  Uiso   1.00
C334   C     0.66364   0.45391   0.99634   0.00000  Uiso   1.00
C335   C     0.72525   0.45367   0.98954   0.00000  Uiso   1.00
C336   C     0.58231   0.37578   0.93367   0.00000  Uiso   1.00
C337   C     0.55850   0.39425   0.84999   0.00000  Uiso   1.00
C338   C     0.54806   0.37983   0.75125   0.00000  Uiso   1.00
C339   C     0.52621   0.40100   0.68612   0.00000  Uiso   1.00
C340   C     0.56074   0.37527   0.03864   0.00000  Uiso   1.00
C341   C     0.55219   0.34489   0.09853   0.00000  Uiso   1.00
C342   C     0.53223   0.35007   0.19222   0.00000  Uiso   1.00
C343   C     0.61383   0.40115   0.95345   0.00000  Uiso   1.00
C344   C     0.64991   0.39253   0.94174   0.00000  Uiso   1.00
C345   C     0.67465   0.41950   0.96374   0.00000  Uiso   1.00
H346   H     0.55352   0.46575   0.01892   0.00000  Uiso   1.00
H347   H     0.51717   0.47636   0.84274   0.00000  Uiso   1.00
H348   H     0.52130   0.44142   0.18997   0.00000  Uiso   1.00
H349   H     0.61901   0.48906   0.03320   0.00000  Uiso   1.00
H350   H     0.48171   0.47298   0.63309   0.00000  Uiso   1.00
H351   H     0.49043   0.39930   0.36526   0.00000  Uiso   1.00
H352   H     0.69646   0.49976   0.03469   0.00000  Uiso   1.00
H353   H     0.59087   0.34904   0.90834   0.00000  Uiso   1.00
H354   H     0.55657   0.35325   0.72609   0.00000  Uiso   1.00
H355   H     0.56070   0.31831   0.07333   0.00000  Uiso   1.00
H356   H     0.65840   0.36595   0.91656   0.00000  Uiso   1.00
H357   H     0.51368   0.37306   0.53842   0.00000  Uiso   1.00
H358   H     0.52240   0.29939   0.27059   0.00000  Uiso   1.00
H359   H     0.72843   0.39984   0.94002   0.00000  Uiso   1.00
O360   O     0.47445   0.42789   0.46788   0.00000  Uiso   1.00
O361   O     0.48589   0.33123   0.42847   0.00000  Uiso   1.00
O362   O     0.75620   0.46303   0.99476   0.00000  Uiso   1.00
N363   N     0.49395   0.44889   0.63581   0.00000  Uiso   1.00
N364   N     0.50209   0.38001   0.32034   0.00000  Uiso   1.00
N365   N     0.69472   0.47392   0.01131   0.00000  Uiso   1.00
N366   N     0.51115   0.39512   0.58487   0.00000  Uiso   1.00
N367   N     0.51930   0.32624   0.26939   0.00000  Uiso   1.00
N368   N     0.71192   0.42016   0.96037   0.00000  Uiso   1.00
C369   C     0.93901   0.93792   0.50642   0.00000  Uiso   1.00
C370   C     0.92860   0.95249   0.61748   0.00000  Uiso   1.00
C371   C     0.94979   0.97433   0.68247   0.00000  Uiso   1.00
C372   C     0.93540   0.98480   0.78128   0.00000  Uiso   1.00
C373   C     0.92445   0.00910   0.94875   0.00000  Uiso   1.00
C374   C     0.90961   0.95025   0.42882   0.00000  Uiso   1.00
C375   C     0.91484   0.97020   0.33519   0.00000  Uiso   1.00
C376   C     0.88447   0.97878   0.27518   0.00000  Uiso   1.00
C377   C     0.84404   0.99959   0.14972   0.00000  Uiso   1.00
C378   C     0.93550   0.89717   0.51401   0.00000  Uiso   1.00
C379   C     0.96249   0.87248   0.49197   0.00000  Uiso   1.00
C380   C     0.95391   0.83636   0.50366   0.00000  Uiso   1.00
C381   C     0.95367   0.77475   0.51046   0.00000  Uiso   1.00
C382   C     0.87578   0.91769   0.56633   0.00000  Uiso   1.00
C383   C     0.89425   0.94150   0.65001   0.00000  Uiso   1.00
C384   C     0.87983   0.95194   0.74875   0.00000  Uiso   1.00
C385   C     0.90100   0.97379   0.81388   0.00000  Uiso   1.00
C386   C     0.87527   0.93926   0.46136   0.00000  Uiso   1.00
C387   C     0.84489   0.94781   0.40147   0.00000  Uiso   1.00
C388   C     0.85007   0.96777   0.30778   0.00000  Uiso   1.00
C389   C     0.90115   0.88617   0.54655   0.00000  Uiso   1.00
C390   C     0.89253   0.85009   0.55826   0.00000  Uiso   1.00
C391   C     0.91950   0.82535   0.53626   0.00000  Uiso   1.00
H392   H     0.96575   0.94648   0.48108   0.00000  Uiso   1.00
H393   H     0.97636   0.98283   0.65726   0.00000  Uiso   1.00
H394   H     0.94142   0.97870   0.31003   0.00000  Uiso   1.00
H395   H     0.98906   0.88099   0.46680   0.00000  Uiso   1.00
H396   H     0.97298   0.01829   0.86691   0.00000  Uiso   1.00
H397   H     0.89930   0.00957   0.13474   0.00000  Uiso   1.00
H398   H     0.99976   0.80354   0.46531   0.00000  Uiso   1.00
H399   H     0.84904   0.90913   0.59166   0.00000  Uiso   1.00
H400   H     0.85325   0.94343   0.77391   0.00000  Uiso   1.00
H401   H     0.81831   0.93930   0.42667   0.00000  Uiso   1.00
H402   H     0.86595   0.84160   0.58344   0.00000  Uiso   1.00
H403   H     0.87306   0.98632   0.96158   0.00000  Uiso   1.00
H404   H     0.79939   0.97760   0.22941   0.00000  Uiso   1.00
H405   H     0.89984   0.77157   0.55998   0.00000  Uiso   1.00
O406   O     0.92789   0.02555   0.03212   0.00000  Uiso   1.00
O407   O     0.83123   0.01411   0.07153   0.00000  Uiso   1.00
O408   O     0.96303   0.74380   0.50524   0.00000  Uiso   1.00
N409   N     0.94889   0.00605   0.86419   0.00000  Uiso   1.00
N410   N     0.88001   0.99791   0.17966   0.00000  Uiso   1.00
N411   N     0.97392   0.80528   0.48869   0.00000  Uiso   1.00
N412   N     0.89512   0.98885   0.91513   0.00000  Uiso   1.00
N413   N     0.82624   0.98070   0.23061   0.00000  Uiso   1.00
N414   N     0.92016   0.78808   0.53963   0.00000  Uiso   1.00
C415   C     0.43901   0.43792   0.00642   0.00000  Uiso   1.00
C416   C     0.42860   0.45249   0.11748   0.00000  Uiso   1.00
C417   C     0.44979   0.47433   0.18247   0.00000  Uiso   1.00
C418   C     0.43540   0.48480   0.28128   0.00000  Uiso   1.00
C419   C     0.42445   0.50910   0.44875   0.00000  Uiso   1.00
C420   C     0.40961   0.45025   0.92882   0.00000  Uiso   1.00
C421   C     0.41484   0.47020   0.83519   0.00000  Uiso   1.00
C422   C     0.38447   0.47878   0.77518   0.00000  Uiso   1.00
C423   C     0.34404   0.49959   0.64972   0.00000  Uiso   1.00
C424   C     0.43550   0.39717   0.01401   0.00000  Uiso   1.00
C425   C     0.46249   0.37248   0.99197   0.00000  Uiso   1.00
C426   C     0.45391   0.33636   0.00366   0.00000  Uiso   1.00
C427   C     0.45367   0.27475   0.01046   0.00000  Uiso   1.00
C428   C     0.37578   0.41769   0.06633   0.00000  Uiso   1.00
C429   C     0.39425   0.44150   0.15001   0.00000  Uiso   1.00
C430   C     0.37983   0.45194   0.24875   0.00000  Uiso   1.00
C431   C     0.40100   0.47379   0.31388   0.00000  Uiso   1.00
C432   C     0.37527   0.43926   0.96136   0.00000  Uiso   1.00
C433   C     0.34489   0.44781   0.90147   0.00000  Uiso   1.00
C434   C     0.35007   0.46777   0.80778   0.00000  Uiso   1.00
C435   C     0.40115   0.38617   0.04655   0.00000  Uiso   1.00
C436   C     0.39253   0.35009   0.05826   0.00000  Uiso   1.00
C437   C     0.41950   0.32535   0.03626   0.00000  Uiso   1.00
H438   H     0.46575   0.44648   0.98108   0.00000  Uiso   1.00
H439   H     0.47636   0.48283   0.15726   0.00000  Uiso   1.00
H440   H     0.44142   0.47870   0.81003   0.00000  Uiso   1.00
H441   H     0.48906   0.38099   0.96680   0.00000  Uiso   1.00
H442   H     0.47298   0.51829   0.36691   0.00000  Uiso   1.00
H443   H     0.39930   0.50957   0.63474   0.00000  Uiso   1.00
H444   H     0.49976   0.30354   0.96531   0.00000  Uiso   1.00
H445   H     0.34904   0.40913   0.09166   0.00000  Uiso   1.00
H446   H     0.35325   0.44343   0.27391   0.00000  Uiso   1.00
H447   H     0.31831   0.43930   0.92667   0.00000  Uiso   1.00
H448   H     0.36595   0.34160   0.08344   0.00000  Uiso   1.00
H449   H     0.37306   0.48632   0.46158   0.00000  Uiso   1.00
H450   H     0.29939   0.47760   0.72941   0.00000  Uiso   1.00
H451   H     0.39984   0.27157   0.05998   0.00000  Uiso   1.00
O452   O     0.42789   0.52555   0.53212   0.00000  Uiso   1.00
O453   O     0.33123   0.51411   0.57153   0.00000  Uiso   1.00
O454   O     0.46303   0.24380   0.00524   0.00000  Uiso   1.00
N455   N     0.44889   0.50605   0.36419   0.00000  Uiso   1.00
N456   N     0.38001   0.49791   0.67966   0.00000  Uiso   1.00
N457   N     0.47392   0.30528   0.98869   0.00000  Uiso   1.00
N458   N     0.39512   0.48885   0.41513   0.00000  Uiso   1.00
N459   N     0.32624   0.48070   0.73061   0.00000  Uiso   1.00
N460   N     0.42016   0.28808   0.03963   0.00000  Uiso   1.00
C461   C     0.56099   0.56208   0.00642   0.00000  Uiso   1.00
C462   C     0.57140   0.54751   0.11748   0.00000  Uiso   1.00
C463   C     0.55021   0.52567   0.18247   0.00000  Uiso   1.00
C464   C     0.56460   0.51520   0.28128   0.00000  Uiso   1.00
C465   C     0.57555   0.49090   0.44875   0.00000  Uiso   1.00
C466   C     0.59039   0.54975   0.92882   0.00000  Uiso   1.00
C467   C     0.58516   0.52980   0.83519   0.00000  Uiso   1.00
C468   C     0.61553   0.52122   0.77518   0.00000  Uiso   1.00
C469   C     0.65596   0.50041   0.64972   0.00000  Uiso   1.00
C470   C     0.56450   0.60283   0.01401   0.00000  Uiso   1.00
C471   C     0.53751   0.62752   0.99197   0.00000  Uiso   1.00
C472   C     0.54609   0.66364   0.00366   0.00000  Uiso   1.00
C473   C     0.54633   0.72525   0.01046   0.00000  Uiso   1.00
C474   C     0.62422   0.58231   0.06633   0.00000  Uiso   1.00
C475   C     0.60575   0.55850   0.15001   0.00000  Uiso   1.00
C476   C     0.62017   0.54806   0.24875   0.00000  Uiso   1.00
C477   C     0.59900   0.52621   0.31388   0.00000  Uiso   1.00
C478   C     0.62473   0.56074   0.96136   0.00000  Uiso   1.00
C479   C     0.65511   0.55219   0.90147   0.00000  Uiso   1.00
C480   C     0.64993   0.53223   0.80778   0.00000  Uiso   1.00
C481   C     0.59885   0.61383   0.04655   0.00000  Uiso   1.00
C482   C     0.60747   0.64991   0.05826   0.00000  Uiso   1.00
C483   C     0.58050   0.67465   0.03626   0.00000  Uiso   1.00
H484   H     0.53425   0.55352   0.98108   0.00000  Uiso   1.00
H485   H     0.52364   0.51717   0.15726   0.00000  Uiso   1.00
H486   H     0.55858   0.52130   0.81003   0.00000  Uiso   1.00
H487   H     0.51094   0.61901   0.96680   0.00000  Uiso   1.00
H488   H     0.52702   0.48171   0.36691   0.00000  Uiso   1.00
H489   H     0.60070   0.49043   0.63474   0.00000  Uiso   1.00
H490   H     0.50024   0.69646   0.96531   0.00000  Uiso   1.00
H491   H     0.65096   0.59087   0.09166   0.00000  Uiso   1.00
H492   H     0.64675   0.55657   0.27391   0.00000  Uiso   1.00
H493   H     0.68169   0.56070   0.92667   0.00000  Uiso   1.00
H494   H     0.63405   0.65840   0.08344   0.00000  Uiso   1.00
H495   H     0.62694   0.51368   0.46158   0.00000  Uiso   1.00
H496   H     0.70061   0.52240   0.72941   0.00000  Uiso   1.00
H497   H     0.60016   0.72843   0.05998   0.00000  Uiso   1.00
O498   O     0.57211   0.47445   0.53212   0.00000  Uiso   1.00
O499   O     0.66877   0.48589   0.57153   0.00000  Uiso   1.00
O500   O     0.53697   0.75620   0.00524   0.00000  Uiso   1.00
N501   N     0.55111   0.49395   0.36419   0.00000  Uiso   1.00
N502   N     0.61999   0.50209   0.67966   0.00000  Uiso   1.00
N503   N     0.52608   0.69472   0.98869   0.00000  Uiso   1.00
N504   N     0.60488   0.51115   0.41513   0.00000  Uiso   1.00
N505   N     0.67376   0.51930   0.73061   0.00000  Uiso   1.00
N506   N     0.57984   0.71192   0.03963   0.00000  Uiso   1.00
C507   C     0.06099   0.06208   0.50642   0.00000  Uiso   1.00
C508   C     0.07140   0.04751   0.61748   0.00000  Uiso   1.00
C509   C     0.05021   0.02567   0.68247   0.00000  Uiso   1.00
C510   C     0.06460   0.01520   0.78128   0.00000  Uiso   1.00
C511   C     0.07555   0.99090   0.94875   0.00000  Uiso   1.00
C512   C     0.09039   0.04975   0.42882   0.00000  Uiso   1.00
C513   C     0.08516   0.02980   0.33519   0.00000  Uiso   1.00
C514   C     0.11553   0.02122   0.27518   0.00000  Uiso   1.00
C515   C     0.15596   0.00041   0.14972   0.00000  Uiso   1.00
C516   C     0.06450   0.10283   0.51401   0.00000  Uiso   1.00
C517   C     0.03751   0.12752   0.49197   0.00000  Uiso   1.00
C518   C     0.04609   0.16364   0.50366   0.00000  Uiso   1.00
C519   C     0.04633   0.22525   0.51046   0.00000  Uiso   1.00
C520   C     0.12422   0.08231   0.56633   0.00000  Uiso   1.00
C521   C     0.10575   0.05850   0.65001   0.00000  Uiso   1.00
C522   C     0.12017   0.04806   0.74875   0.00000  Uiso   1.00
C523   C     0.09900   0.02621   0.81388   0.00000  Uiso   1.00
C524   C     0.12473   0.06074   0.46136   0.00000  Uiso   1.00
C525   C     0.15511   0.05219   0.40147   0.00000  Uiso   1.00
C526   C     0.14993   0.03223   0.30778   0.00000  Uiso   1.00
C527   C     0.09885   0.11383   0.54655   0.00000  Uiso   1.00
C528   C     0.10747   0.14991   0.55826   0.00000  Uiso   1.00
C529   C     0.08050   0.17465   0.53626   0.00000  Uiso   1.00
H530   H     0.03425   0.05352   0.48108   0.00000  Uiso   1.00
H531   H     0.02364   0.01717   0.65726   0.00000  Uiso   1.00
H532   H     0.05858   0.02130   0.31003   0.00000  Uiso   1.00
H533   H     0.01094   0.11901   0.46680   0.00000  Uiso   1.00
H534   H     0.02702   0.98171   0.86691   0.00000  Uiso   1.00
H535   H     0.10070   0.99043   0.13474   0.00000  Uiso   1.00
H536   H     0.00024   0.19646   0.46531   0.00000  Uiso   1.00
H537   H     0.15096   0.09087   0.59166   0.00000  Uiso   1.00
H538   H     0.14675   0.05657   0.77391   0.00000  Uiso   1.00
H539   H     0.18169   0.06070   0.42667   0.00000  Uiso   1.00
H540   H     0.13405   0.15840   0.58344   0.00000  Uiso   1.00
H541   H     0.12694   0.01368   0.96158   0.00000  Uiso   1.00
H542   H     0.20061   0.02240   0.22941   0.00000  Uiso   1.00
H543   H     0.10016   0.22843   0.55998   0.00000  Uiso   1.00
O544   O     0.07211   0.97445   0.03212   0.00000  Uiso   1.00
O545   O     0.16877   0.98589   0.07153   0.00000  Uiso   1.00
O546   O     0.03697   0.25620   0.50524   0.00000  Uiso   1.00
N547   N     0.05111   0.99395   0.86419   0.00000  Uiso   1.00
N548   N     0.11999   0.00209   0.17966   0.00000  Uiso   1.00
N549   N     0.02608   0.19472   0.48869   0.00000  Uiso   1.00
N550   N     0.10488   0.01115   0.91513   0.00000  Uiso   1.00
N551   N     0.17376   0.01930   0.23061   0.00000  Uiso   1.00
N552   N     0.07984   0.21192   0.53963   0.00000  Uiso   1.00
C553   C     0.56208   0.93901   0.25642   0.00000  Uiso   1.00
C554   C     0.54751   0.92860   0.36748   0.00000  Uiso   1.00
C555   C     0.52567   0.94979   0.43247   0.00000  Uiso   1.00
C556   C     0.51520   0.93540   0.53128   0.00000  Uiso   1.00
C557   C     0.49090   0.92445   0.69875   0.00000  Uiso   1.00
C558   C     0.54975   0.90961   0.17882   0.00000  Uiso   1.00
C559   C     0.52980   0.91484   0.08519   0.00000  Uiso   1.00
C560   C     0.52122   0.88447   0.02518   0.00000  Uiso   1.00
C561   C     0.50041   0.84404   0.89972   0.00000  Uiso   1.00
C562   C     0.60283   0.93550   0.26401   0.00000  Uiso   1.00
C563   C     0.62752   0.96249   0.24197   0.00000  Uiso   1.00
C564   C     0.66364   0.95391   0.25366   0.00000  Uiso   1.00
C565   C     0.72525   0.95367   0.26046   0.00000  Uiso   1.00
C566   C     0.58231   0.87578   0.31633   0.00000  Uiso   1.00
C567   C     0.55850   0.89425   0.40001   0.00000  Uiso   1.00
C568   C     0.54806   0.87983   0.49875   0.00000  Uiso   1.00
C569   C     0.52621   0.90100   0.56388   0.00000  Uiso   1.00
C570   C     0.56074   0.87527   0.21136   0.00000  Uiso   1.00
C571   C     0.55219   0.84489   0.15147   0.00000  Uiso   1.00
C572   C     0.53223   0.85007   0.05778   0.00000  Uiso   1.00
C573   C     0.61383   0.90115   0.29655   0.00000  Uiso   1.00
C574   C     0.64991   0.89253   0.30826   0.00000  Uiso   1.00
C575   C     0.67465   0.91950   0.28626   0.00000  Uiso   1.00
H576   H     0.55352   0.96575   0.23108   0.00000  Uiso   1.00
H577   H     0.51717   0.97636   0.40726   0.00000  Uiso   1.00
H578   H     0.52130   0.94142   0.06003   0.00000  Uiso   1.00
H579   H     0.61901   0.98906   0.21680   0.00000  Uiso   1.00
H580   H     0.48171   0.97298   0.61691   0.00000  Uiso   1.00
H581   H     0.49043   0.89930   0.88474   0.00000  Uiso   1.00
H582   H     0.69646   0.99976   0.21531   0.00000  Uiso   1.00
H583   H     0.59087   0.84904   0.34166   0.00000  Uiso   1.00
H584   H     0.55657   0.85325   0.52391   0.00000  Uiso   1.00
H585   H     0.56070   0.81831   0.17667   0.00000  Uiso   1.00
H586   H     0.65840   0.86595   0.33344   0.00000  Uiso   1.00
H587   H     0.51368   0.87306   0.71158   0.00000  Uiso   1.00
H588   H     0.52240   0.79939   0.97941   0.00000  Uiso   1.00
H589   H     0.72843   0.89984   0.30998   0.00000  Uiso   1.00
O590   O     0.47445   0.92789   0.78212   0.00000  Uiso   1.00
O591   O     0.48589   0.83123   0.82153   0.00000  Uiso   1.00
O592   O     0.75620   0.96303   0.25524   0.00000  Uiso   1.00
N593   N     0.49395   0.94889   0.61419   0.00000  Uiso   1.00
N594   N     0.50209   0.88001   0.92966   0.00000  Uiso   1.00
N595   N     0.69472   0.97392   0.23869   0.00000  Uiso   1.00
N596   N     0.51115   0.89512   0.66513   0.00000  Uiso   1.00
N597   N     0.51930   0.82624   0.98061   0.00000  Uiso   1.00
N598   N     0.71192   0.92016   0.28963   0.00000  Uiso   1.00
C599   C     0.06208   0.43901   0.75642   0.00000  Uiso   1.00
C600   C     0.04751   0.42860   0.86748   0.00000  Uiso   1.00
C601   C     0.02567   0.44979   0.93247   0.00000  Uiso   1.00
C602   C     0.01520   0.43540   0.03128   0.00000  Uiso   1.00
C603   C     0.99090   0.42445   0.19875   0.00000  Uiso   1.00
C604   C     0.04975   0.40961   0.67882   0.00000  Uiso   1.00
C605   C     0.02980   0.41484   0.58519   0.00000  Uiso   1.00
C606   C     0.02122   0.38447   0.52518   0.00000  Uiso   1.00
C607   C     0.00041   0.34404   0.39972   0.00000  Uiso   1.00
C608   C     0.10283   0.43550   0.76401   0.00000  Uiso   1.00
C609   C     0.12752   0.46249   0.74197   0.00000  Uiso   1.00
C610   C     0.16364   0.45391   0.75366   0.00000  Uiso   1.00
C611   C     0.22525   0.45367   0.76046   0.00000  Uiso   1.00
C612   C     0.08231   0.37578   0.81633   0.00000  Uiso   1.00
C613   C     0.05850   0.39425   0.90001   0.00000  Uiso   1.00
C614   C     0.04806   0.37983   0.99875   0.00000  Uiso   1.00
C615   C     0.02621   0.40100   0.06388   0.00000  Uiso   1.00
C616   C     0.06074   0.37527   0.71136   0.00000  Uiso   1.00
C617   C     0.05219   0.34489   0.65147   0.00000  Uiso   1.00
C618   C     0.03223   0.35007   0.55778   0.00000  Uiso   1.00
C619   C     0.11383   0.40115   0.79655   0.00000  Uiso   1.00
C620   C     0.14991   0.39253   0.80826   0.00000  Uiso   1.00
C621   C     0.17465   0.41950   0.78626   0.00000  Uiso   1.00
H622   H     0.05352   0.46575   0.73108   0.00000  Uiso   1.00
H623   H     0.01717   0.47636   0.90726   0.00000  Uiso   1.00
H624   H     0.02130   0.44142   0.56003   0.00000  Uiso   1.00
H625   H     0.11901   0.48906   0.71680   0.00000  Uiso   1.00
H626   H     0.98171   0.47298   0.11691   0.00000  Uiso   1.00
H627   H     0.99043   0.39930   0.38474   0.00000  Uiso   1.00
H628   H     0.19646   0.49976   0.71531   0.00000  Uiso   1.00
H629   H     0.09087   0.34904   0.84166   0.00000  Uiso   1.00
H630   H     0.05657   0.35325   0.02391   0.00000  Uiso   1.00
H631   H     0.06070   0.31831   0.67667   0.00000  Uiso   1.00
H632   H     0.15840   0.36595   0.83344   0.00000  Uiso   1.00
H633   H     0.01368   0.37306   0.21158   0.00000  Uiso   1.00
H634   H     0.02240   0.29939   0.47941   0.00000  Uiso   1.00
H635   H     0.22843   0.39984   0.80998   0.00000  Uiso   1.00
O636   O     0.97445   0.42789   0.28212   0.00000  Uiso   1.00
O637   O     0.98589   0.33123   0.32153   0.00000  Uiso   1.00
O638   O     0.25620   0.46303   0.75524   0.00000  Uiso   1.00
N639   N     0.99395   0.44889   0.11419   0.00000  Uiso   1.00
N640   N     0.00209   0.38001   0.42966   0.00000  Uiso   1.00
N641   N     0.19472   0.47392   0.73869   0.00000  Uiso   1.00
N642   N     0.01115   0.39512   0.16513   0.00000  Uiso   1.00
N643   N     0.01930   0.32624   0.48061   0.00000  Uiso   1.00
N644   N     0.21192   0.42016   0.78963   0.00000  Uiso   1.00
C645   C     0.93792   0.56099   0.75642   0.00000  Uiso   1.00
C646   C     0.95249   0.57140   0.86748   0.00000  Uiso   1.00
C647   C     0.97433   0.55021   0.93247   0.00000  Uiso   1.00
C648   C     0.98480   0.56460   0.03128   0.00000  Uiso   1.00
C649   C     0.00910   0.57555   0.19875   0.00000  Uiso   1.00
C650   C     0.95025   0.59039   0.67882   0.00000  Uiso   1.00
C651   C     0.97020   0.58516   0.58519   0.00000  Uiso   1.00
C652   C     0.97878   0.61553   0.52518   0.00000  Uiso   1.00
C653   C     0.99959   0.65596   0.39972   0.00000  Uiso   1.00
C654   C     0.89717   0.56450   0.76401   0.00000  Uiso   1.00
C655   C     0.87248   0.53751   0.74197   0.00000  Uiso   1.00
C656   C     0.83636   0.54609   0.75366   0.00000  Uiso   1.00
C657   C     0.77475   0.54633   0.76046   0.00000  Uiso   1.00
C658   C     0.91769   0.62422   0.81633   0.00000  Uiso   1.00
C659   C     0.94150   0.60575   0.90001   0.00000  Uiso   1.00
C660   C     0.95194   0.62017   0.99875   0.00000  Uiso   1.00
C661   C     0.97379   0.59900   0.06388   0.00000  Uiso   1.00
C662   C     0.93926   0.62473   0.71136   0.00000  Uiso   1.00
C663   C     0.94781   0.65511   0.65147   0.00000  Uiso   1.00
C664   C     0.96777   0.64993   0.55778   0.00000  Uiso   1.00
C665   C     0.88617   0.59885   0.79655   0.00000  Uiso   1.00
C666   C     0.85009   0.60747   0.80826   0.00000  Uiso   1.00
C667   C     0.82535   0.58050   0.78626   0.00000  Uiso   1.00
H668   H     0.94648   0.53425   0.73108   0.00000  Uiso   1.00
H669   H     0.98283   0.52364   0.90726   0.00000  Uiso   1.00
H670   H     0.97870   0.55858   0.56003   0.00000  Uiso   1.00
H671   H     0.88099   0.51094   0.71680   0.00000  Uiso   1.00
H672   H     0.01829   0.52702   0.11691   0.00000  Uiso   1.00
H673   H     0.00957   0.60070   0.38474   0.00000  Uiso   1.00
H674   H     0.80354   0.50024   0.71531   0.00000  Uiso   1.00
H675   H     0.90913   0.65096   0.84166   0.00000  Uiso   1.00
H676   H     0.94343   0.64675   0.02391   0.00000  Uiso   1.00
H677   H     0.93930   0.68169   0.67667   0.00000  Uiso   1.00
H678   H     0.84160   0.63405   0.83344   0.00000  Uiso   1.00
H679   H     0.98632   0.62694   0.21158   0.00000  Uiso   1.00
H680   H     0.97760   0.70061   0.47941   0.00000  Uiso   1.00
H681   H     0.77157   0.60016   0.80998   0.00000  Uiso   1.00
O682   O     0.02555   0.57211   0.28212   0.00000  Uiso   1.00
O683   O     0.01411   0.66877   0.32153   0.00000  Uiso   1.00
O684   O     0.74380   0.53697   0.75524   0.00000  Uiso   1.00
N685   N     0.00605   0.55111   0.11419   0.00000  Uiso   1.00
N686   N     0.99791   0.61999   0.42966   0.00000  Uiso   1.00
N687   N     0.80528   0.52608   0.73869   0.00000  Uiso   1.00
N688   N     0.98885   0.60488   0.16513   0.00000  Uiso   1.00
N689   N     0.98070   0.67376   0.48061   0.00000  Uiso   1.00
N690   N     0.78808   0.57984   0.78963   0.00000  Uiso   1.00
C691   C     0.43792   0.06099   0.25642   0.00000  Uiso   1.00
C692   C     0.45249   0.07140   0.36748   0.00000  Uiso   1.00
C693   C     0.47433   0.05021   0.43247   0.00000  Uiso   1.00
C694   C     0.48480   0.06460   0.53128   0.00000  Uiso   1.00
C695   C     0.50910   0.07555   0.69875   0.00000  Uiso   1.00
C696   C     0.45025   0.09039   0.17882   0.00000  Uiso   1.00
C697   C     0.47020   0.08516   0.08519   0.00000  Uiso   1.00
C698   C     0.47878   0.11553   0.02518   0.00000  Uiso   1.00
C699   C     0.49959   0.15596   0.89972   0.00000  Uiso   1.00
C700   C     0.39717   0.06450   0.26401   0.00000  Uiso   1.00
C701   C     0.37248   0.03751   0.24197   0.00000  Uiso   1.00
C702   C     0.33636   0.04609   0.25366   0.00000  Uiso   1.00
C703   C     0.27475   0.04633   0.26046   0.00000  Uiso   1.00
C704   C     0.41769   0.12422   0.31633   0.00000  Uiso   1.00
C705   C     0.44150   0.10575   0.40001   0.00000  Uiso   1.00
C706   C     0.45194   0.12017   0.49875   0.00000  Uiso   1.00
C707   C     0.47379   0.09900   0.56388   0.00000  Uiso   1.00
C708   C     0.43926   0.12473   0.21136   0.00000  Uiso   1.00
C709   C     0.44781   0.15511   0.15147   0.00000  Uiso   1.00
C710   C     0.46777   0.14993   0.05778   0.00000  Uiso   1.00
C711   C     0.38617   0.09885   0.29655   0.00000  Uiso   1.00
C712   C     0.35009   0.10747   0.30826   0.00000  Uiso   1.00
C713   C     0.32535   0.08050   0.28626   0.00000  Uiso   1.00
H714   H     0.44648   0.03425   0.23108   0.00000  Uiso   1.00
H715   H     0.48283   0.02364   0.40726   0.00000  Uiso   1.00
H716   H     0.47870   0.05858   0.06003   0.00000  Uiso   1.00
H717   H     0.38099   0.01094   0.21680   0.00000  Uiso   1.00
H718   H     0.51829   0.02702   0.61691   0.00000  Uiso   1.00
H719   H     0.50957   0.10070   0.88474   0.00000  Uiso   1.00
H720   H     0.30354   0.00024   0.21531   0.00000  Uiso   1.00
H721   H     0.40913   0.15096   0.34166   0.00000  Uiso   1.00
H722   H     0.44343   0.14675   0.52391   0.00000  Uiso   1.00
H723   H     0.43930   0.18169   0.17667   0.00000  Uiso   1.00
H724   H     0.34160   0.13405   0.33344   0.00000  Uiso   1.00
H725   H     0.48632   0.12694   0.71158   0.00000  Uiso   1.00
H726   H     0.47760   0.20061   0.97941   0.00000  Uiso   1.00
H727   H     0.27157   0.10016   0.30998   0.00000  Uiso   1.00
O728   O     0.52555   0.07211   0.78212   0.00000  Uiso   1.00
O729   O     0.51411   0.16877   0.82153   0.00000  Uiso   1.00
O730   O     0.24380   0.03697   0.25524   0.00000  Uiso   1.00
N731   N     0.50605   0.05111   0.61419   0.00000  Uiso   1.00
N732   N     0.49791   0.11999   0.92966   0.00000  Uiso   1.00
N733   N     0.30528   0.02608   0.23869   0.00000  Uiso   1.00
N734   N     0.48885   0.10488   0.66513   0.00000  Uiso   1.00
N735   N     0.48070   0.17376   0.98061   0.00000  Uiso   1.00
N736   N     0.28808   0.07984   0.28963   0.00000  Uiso   1.00
