data_job_03275
_audit_creation_date              2018-12-19
_audit_creation_method            'Materials Studio'
_symmetry_space_group_name_H-M    'P1'
_symmetry_Int_Tables_number       1
_symmetry_cell_setting            triclinic
loop_
_symmetry_equiv_pos_as_xyz
  x,y,z
_cell_length_a                    35.6010
_cell_length_b                    47.2573
_cell_length_c                    13.2868
_cell_angle_alpha                 90.0000
_cell_angle_beta                  90.0000
_cell_angle_gamma                 90.0000
loop_
_atom_site_label
_atom_site_type_symbol
_atom_site_fract_x
_atom_site_fract_y
_atom_site_fract_z
_atom_site_U_iso_or_equiv
_atom_site_adp_type
_atom_site_occupancy
C1     C     0.83479   0.37189   0.04544   0.00000  Uiso   1.00
C2     C     0.81795   0.34745   0.98562   0.00000  Uiso   1.00
C3     C     0.79179   0.32813   0.02133   0.00000  Uiso   1.00
C4     C     0.77986   0.30732   0.95486   0.00000  Uiso   1.00
C5     C     0.75163   0.26957   0.87699   0.00000  Uiso   1.00
C6     C     0.87726   0.36784   0.04133   0.00000  Uiso   1.00
C7     C     0.90097   0.36567   0.12388   0.00000  Uiso   1.00
C8     C     0.93897   0.36203   0.10430   0.00000  Uiso   1.00
C9     C     0.00282   0.35597   0.11293   0.00000  Uiso   1.00
C10    C     0.82653   0.39860   0.98495   0.00000  Uiso   1.00
C11    C     0.80759   0.42229   0.02010   0.00000  Uiso   1.00
C12    C     0.80289   0.44455   0.95305   0.00000  Uiso   1.00
C13    C     0.78798   0.48623   0.87413   0.00000  Uiso   1.00
C14    C     0.86012   0.36929   0.86388   0.00000  Uiso   1.00
C15    C     0.83171   0.34604   0.88701   0.00000  Uiso   1.00
C16    C     0.81981   0.32525   0.82046   0.00000  Uiso   1.00
C17    C     0.79364   0.30590   0.85606   0.00000  Uiso   1.00
C18    C     0.89102   0.36643   0.94272   0.00000  Uiso   1.00
C19    C     0.92899   0.36279   0.92301   0.00000  Uiso   1.00
C20    C     0.95276   0.36062   0.00551   0.00000  Uiso   1.00
C21    C     0.84029   0.39718   0.88633   0.00000  Uiso   1.00
C22    C     0.83562   0.41941   0.81922   0.00000  Uiso   1.00
C23    C     0.81668   0.44313   0.85426   0.00000  Uiso   1.00
H24    H     0.82408   0.37299   0.12222   0.00000  Uiso   1.00
H25    H     0.78115   0.32923   0.09766   0.00000  Uiso   1.00
H26    H     0.89031   0.36677   0.20019   0.00000  Uiso   1.00
H27    H     0.79695   0.42337   0.09641   0.00000  Uiso   1.00
H28    H     0.73963   0.28008   0.02695   0.00000  Uiso   1.00
H29    H     0.96981   0.35925   0.24314   0.00000  Uiso   1.00
H30    H     0.77294   0.47861   0.02432   0.00000  Uiso   1.00
H31    H     0.87083   0.36819   0.78711   0.00000  Uiso   1.00
H32    H     0.83047   0.32416   0.74415   0.00000  Uiso   1.00
H33    H     0.93963   0.36170   0.84669   0.00000  Uiso   1.00
H34    H     0.84627   0.41831   0.74291   0.00000  Uiso   1.00
H35    H     0.77966   0.27596   0.74003   0.00000  Uiso   1.00
H36    H     0.00984   0.35514   0.95623   0.00000  Uiso   1.00
H37    H     0.81297   0.47450   0.73740   0.00000  Uiso   1.00
O38    O     0.73226   0.24914   0.86129   0.00000  Uiso   1.00
O39    O     0.03424   0.35301   0.14493   0.00000  Uiso   1.00
O40    O     0.77595   0.50961   0.85784   0.00000  Uiso   1.00
N41    N     0.75459   0.28515   0.96531   0.00000  Uiso   1.00
N42    N     0.96979   0.35917   0.16744   0.00000  Uiso   1.00
N43    N     0.78574   0.47077   0.96287   0.00000  Uiso   1.00
N44    N     0.77613   0.28294   0.81092   0.00000  Uiso   1.00
N45    N     0.99133   0.35696   0.01305   0.00000  Uiso   1.00
N46    N     0.80728   0.46856   0.80848   0.00000  Uiso   1.00
C47    C     0.18280   0.36894   0.44789   0.00000  Uiso   1.00
C48    C     0.19901   0.34444   0.50867   0.00000  Uiso   1.00
C49    C     0.22347   0.32396   0.47255   0.00000  Uiso   1.00
C50    C     0.23508   0.30331   0.54006   0.00000  Uiso   1.00
C51    C     0.26212   0.26528   0.61920   0.00000  Uiso   1.00
C52    C     0.14022   0.36640   0.45660   0.00000  Uiso   1.00
C53    C     0.11525   0.36438   0.37670   0.00000  Uiso   1.00
C54    C     0.07738   0.36222   0.40038   0.00000  Uiso   1.00
C55    C     0.01315   0.35830   0.39868   0.00000  Uiso   1.00
C56    C     0.19349   0.39582   0.50458   0.00000  Uiso   1.00
C57    C     0.21330   0.41853   0.46503   0.00000  Uiso   1.00
C58    C     0.22026   0.44114   0.52910   0.00000  Uiso   1.00
C59    C     0.23874   0.48290   0.60191   0.00000  Uiso   1.00
C60    C     0.15993   0.36871   0.63201   0.00000  Uiso   1.00
C61    C     0.18658   0.34431   0.60867   0.00000  Uiso   1.00
C62    C     0.19816   0.32369   0.67625   0.00000  Uiso   1.00
C63    C     0.22263   0.30318   0.64024   0.00000  Uiso   1.00
C64    C     0.12780   0.36627   0.55660   0.00000  Uiso   1.00
C65    C     0.08995   0.36412   0.58040   0.00000  Uiso   1.00
C66    C     0.06493   0.36209   0.50056   0.00000  Uiso   1.00
C67    C     0.18107   0.39569   0.60459   0.00000  Uiso   1.00
C68    C     0.18800   0.41827   0.66873   0.00000  Uiso   1.00
C69    C     0.20782   0.44101   0.62929   0.00000  Uiso   1.00
H70    H     0.19247   0.36904   0.37003   0.00000  Uiso   1.00
H71    H     0.23307   0.32406   0.39515   0.00000  Uiso   1.00
H72    H     0.12488   0.36448   0.29932   0.00000  Uiso   1.00
H73    H     0.22291   0.41863   0.38764   0.00000  Uiso   1.00
H74    H     0.27260   0.27413   0.46709   0.00000  Uiso   1.00
H75    H     0.04446   0.35937   0.26502   0.00000  Uiso   1.00
H76    H     0.25118   0.47354   0.45125   0.00000  Uiso   1.00
H77    H     0.15025   0.36860   0.70987   0.00000  Uiso   1.00
H78    H     0.18854   0.32360   0.75364   0.00000  Uiso   1.00
H79    H     0.08034   0.36402   0.65780   0.00000  Uiso   1.00
H80    H     0.17838   0.41816   0.74612   0.00000  Uiso   1.00
H81    H     0.23645   0.27375   0.75805   0.00000  Uiso   1.00
H82    H     0.00832   0.35899   0.55597   0.00000  Uiso   1.00
H83    H     0.21504   0.47316   0.74221   0.00000  Uiso   1.00
O84    O     0.28046   0.24433   0.63522   0.00000  Uiso   1.00
O85    O     0.98116   0.35617   0.37011   0.00000  Uiso   1.00
O86    O     0.25237   0.50596   0.61445   0.00000  Uiso   1.00
N87    N     0.25884   0.28022   0.52957   0.00000  Uiso   1.00
N88    N     0.04555   0.35991   0.34064   0.00000  Uiso   1.00
N89    N     0.23881   0.46665   0.51475   0.00000  Uiso   1.00
N90    N     0.23939   0.28002   0.68613   0.00000  Uiso   1.00
N91    N     0.02610   0.35971   0.49720   0.00000  Uiso   1.00
N92    N     0.21936   0.46645   0.67131   0.00000  Uiso   1.00
C93    C     0.83479   0.87189   0.54544   0.00000  Uiso   1.00
C94    C     0.81795   0.84745   0.48562   0.00000  Uiso   1.00
C95    C     0.79179   0.82813   0.52133   0.00000  Uiso   1.00
C96    C     0.77986   0.80732   0.45486   0.00000  Uiso   1.00
C97    C     0.75163   0.76957   0.37699   0.00000  Uiso   1.00
C98    C     0.87726   0.86784   0.54133   0.00000  Uiso   1.00
C99    C     0.90097   0.86567   0.62388   0.00000  Uiso   1.00
C100   C     0.93897   0.86203   0.60430   0.00000  Uiso   1.00
C101   C     0.00282   0.85597   0.61293   0.00000  Uiso   1.00
C102   C     0.82653   0.89860   0.48495   0.00000  Uiso   1.00
C103   C     0.80759   0.92229   0.52010   0.00000  Uiso   1.00
C104   C     0.80289   0.94455   0.45305   0.00000  Uiso   1.00
C105   C     0.78798   0.98623   0.37413   0.00000  Uiso   1.00
C106   C     0.86012   0.86929   0.36388   0.00000  Uiso   1.00
C107   C     0.83171   0.84604   0.38701   0.00000  Uiso   1.00
C108   C     0.81981   0.82525   0.32046   0.00000  Uiso   1.00
C109   C     0.79364   0.80590   0.35606   0.00000  Uiso   1.00
C110   C     0.89102   0.86643   0.44272   0.00000  Uiso   1.00
C111   C     0.92899   0.86279   0.42301   0.00000  Uiso   1.00
C112   C     0.95276   0.86062   0.50551   0.00000  Uiso   1.00
C113   C     0.84029   0.89718   0.38633   0.00000  Uiso   1.00
C114   C     0.83562   0.91941   0.31922   0.00000  Uiso   1.00
C115   C     0.81668   0.94313   0.35426   0.00000  Uiso   1.00
H116   H     0.82408   0.87299   0.62222   0.00000  Uiso   1.00
H117   H     0.78115   0.82923   0.59766   0.00000  Uiso   1.00
H118   H     0.89031   0.86677   0.70019   0.00000  Uiso   1.00
H119   H     0.79695   0.92337   0.59641   0.00000  Uiso   1.00
H120   H     0.73963   0.78008   0.52695   0.00000  Uiso   1.00
H121   H     0.96981   0.85925   0.74314   0.00000  Uiso   1.00
H122   H     0.77294   0.97861   0.52432   0.00000  Uiso   1.00
H123   H     0.87083   0.86819   0.28711   0.00000  Uiso   1.00
H124   H     0.83047   0.82416   0.24415   0.00000  Uiso   1.00
H125   H     0.93963   0.86170   0.34669   0.00000  Uiso   1.00
H126   H     0.84627   0.91831   0.24291   0.00000  Uiso   1.00
H127   H     0.77966   0.77596   0.24003   0.00000  Uiso   1.00
H128   H     0.00984   0.85514   0.45623   0.00000  Uiso   1.00
H129   H     0.81297   0.97450   0.23740   0.00000  Uiso   1.00
O130   O     0.73226   0.74914   0.36129   0.00000  Uiso   1.00
O131   O     0.03424   0.85301   0.64493   0.00000  Uiso   1.00
O132   O     0.77595   0.00961   0.35784   0.00000  Uiso   1.00
N133   N     0.75459   0.78515   0.46531   0.00000  Uiso   1.00
N134   N     0.96979   0.85917   0.66744   0.00000  Uiso   1.00
N135   N     0.78574   0.97077   0.46287   0.00000  Uiso   1.00
N136   N     0.77613   0.78294   0.31092   0.00000  Uiso   1.00
N137   N     0.99133   0.85696   0.51305   0.00000  Uiso   1.00
N138   N     0.80728   0.96856   0.30848   0.00000  Uiso   1.00
C139   C     0.18280   0.86894   0.94789   0.00000  Uiso   1.00
C140   C     0.19901   0.84444   0.00867   0.00000  Uiso   1.00
C141   C     0.22347   0.82396   0.97255   0.00000  Uiso   1.00
C142   C     0.23508   0.80331   0.04006   0.00000  Uiso   1.00
C143   C     0.26212   0.76528   0.11920   0.00000  Uiso   1.00
C144   C     0.14022   0.86640   0.95660   0.00000  Uiso   1.00
C145   C     0.11525   0.86438   0.87670   0.00000  Uiso   1.00
C146   C     0.07738   0.86222   0.90038   0.00000  Uiso   1.00
C147   C     0.01315   0.85830   0.89868   0.00000  Uiso   1.00
C148   C     0.19349   0.89582   0.00458   0.00000  Uiso   1.00
C149   C     0.21330   0.91853   0.96503   0.00000  Uiso   1.00
C150   C     0.22026   0.94114   0.02910   0.00000  Uiso   1.00
C151   C     0.23874   0.98290   0.10191   0.00000  Uiso   1.00
C152   C     0.15993   0.86871   0.13201   0.00000  Uiso   1.00
C153   C     0.18658   0.84431   0.10867   0.00000  Uiso   1.00
C154   C     0.19816   0.82369   0.17625   0.00000  Uiso   1.00
C155   C     0.22263   0.80318   0.14024   0.00000  Uiso   1.00
C156   C     0.12780   0.86627   0.05660   0.00000  Uiso   1.00
C157   C     0.08995   0.86412   0.08040   0.00000  Uiso   1.00
C158   C     0.06493   0.86209   0.00056   0.00000  Uiso   1.00
C159   C     0.18107   0.89569   0.10459   0.00000  Uiso   1.00
C160   C     0.18800   0.91827   0.16873   0.00000  Uiso   1.00
C161   C     0.20782   0.94101   0.12929   0.00000  Uiso   1.00
H162   H     0.19247   0.86904   0.87003   0.00000  Uiso   1.00
H163   H     0.23307   0.82406   0.89515   0.00000  Uiso   1.00
H164   H     0.12488   0.86448   0.79932   0.00000  Uiso   1.00
H165   H     0.22291   0.91863   0.88764   0.00000  Uiso   1.00
H166   H     0.27260   0.77413   0.96709   0.00000  Uiso   1.00
H167   H     0.04446   0.85937   0.76502   0.00000  Uiso   1.00
H168   H     0.25118   0.97354   0.95125   0.00000  Uiso   1.00
H169   H     0.15025   0.86860   0.20987   0.00000  Uiso   1.00
H170   H     0.18854   0.82360   0.25364   0.00000  Uiso   1.00
H171   H     0.08034   0.86402   0.15780   0.00000  Uiso   1.00
H172   H     0.17838   0.91816   0.24612   0.00000  Uiso   1.00
H173   H     0.23645   0.77375   0.25805   0.00000  Uiso   1.00
H174   H     0.00832   0.85899   0.05597   0.00000  Uiso   1.00
H175   H     0.21504   0.97316   0.24221   0.00000  Uiso   1.00
O176   O     0.28046   0.74433   0.13522   0.00000  Uiso   1.00
O177   O     0.98116   0.85617   0.87011   0.00000  Uiso   1.00
O178   O     0.25237   0.00596   0.11445   0.00000  Uiso   1.00
N179   N     0.25884   0.78022   0.02957   0.00000  Uiso   1.00
N180   N     0.04555   0.85991   0.84064   0.00000  Uiso   1.00
N181   N     0.23881   0.96665   0.01475   0.00000  Uiso   1.00
N182   N     0.23939   0.78002   0.18613   0.00000  Uiso   1.00
N183   N     0.02610   0.85971   0.99720   0.00000  Uiso   1.00
N184   N     0.21936   0.96645   0.17131   0.00000  Uiso   1.00
C185   C     0.16521   0.62811   0.04544   0.00000  Uiso   1.00
C186   C     0.18205   0.65255   0.98562   0.00000  Uiso   1.00
C187   C     0.20821   0.67187   0.02133   0.00000  Uiso   1.00
C188   C     0.22014   0.69268   0.95486   0.00000  Uiso   1.00
C189   C     0.24837   0.73043   0.87699   0.00000  Uiso   1.00
C190   C     0.12274   0.63216   0.04133   0.00000  Uiso   1.00
C191   C     0.09903   0.63433   0.12388   0.00000  Uiso   1.00
C192   C     0.06103   0.63797   0.10430   0.00000  Uiso   1.00
C193   C     0.99718   0.64403   0.11293   0.00000  Uiso   1.00
C194   C     0.17347   0.60140   0.98495   0.00000  Uiso   1.00
C195   C     0.19241   0.57771   0.02010   0.00000  Uiso   1.00
C196   C     0.19711   0.55545   0.95305   0.00000  Uiso   1.00
C197   C     0.21202   0.51377   0.87413   0.00000  Uiso   1.00
C198   C     0.13988   0.63071   0.86388   0.00000  Uiso   1.00
C199   C     0.16829   0.65396   0.88701   0.00000  Uiso   1.00
C200   C     0.18019   0.67475   0.82046   0.00000  Uiso   1.00
C201   C     0.20636   0.69410   0.85606   0.00000  Uiso   1.00
C202   C     0.10898   0.63357   0.94272   0.00000  Uiso   1.00
C203   C     0.07101   0.63721   0.92301   0.00000  Uiso   1.00
C204   C     0.04724   0.63938   0.00551   0.00000  Uiso   1.00
C205   C     0.15971   0.60282   0.88633   0.00000  Uiso   1.00
C206   C     0.16438   0.58059   0.81922   0.00000  Uiso   1.00
C207   C     0.18332   0.55687   0.85426   0.00000  Uiso   1.00
H208   H     0.17592   0.62701   0.12222   0.00000  Uiso   1.00
H209   H     0.21885   0.67077   0.09766   0.00000  Uiso   1.00
H210   H     0.10969   0.63323   0.20019   0.00000  Uiso   1.00
H211   H     0.20305   0.57663   0.09641   0.00000  Uiso   1.00
H212   H     0.26037   0.71992   0.02695   0.00000  Uiso   1.00
H213   H     0.03019   0.64075   0.24314   0.00000  Uiso   1.00
H214   H     0.22706   0.52139   0.02432   0.00000  Uiso   1.00
H215   H     0.12917   0.63181   0.78711   0.00000  Uiso   1.00
H216   H     0.16953   0.67584   0.74415   0.00000  Uiso   1.00
H217   H     0.06037   0.63830   0.84669   0.00000  Uiso   1.00
H218   H     0.15373   0.58169   0.74291   0.00000  Uiso   1.00
H219   H     0.22034   0.72404   0.74003   0.00000  Uiso   1.00
H220   H     0.99016   0.64486   0.95623   0.00000  Uiso   1.00
H221   H     0.18703   0.52550   0.73740   0.00000  Uiso   1.00
O222   O     0.26774   0.75086   0.86129   0.00000  Uiso   1.00
O223   O     0.96576   0.64699   0.14493   0.00000  Uiso   1.00
O224   O     0.22405   0.49039   0.85784   0.00000  Uiso   1.00
N225   N     0.24541   0.71485   0.96531   0.00000  Uiso   1.00
N226   N     0.03021   0.64083   0.16744   0.00000  Uiso   1.00
N227   N     0.21426   0.52923   0.96287   0.00000  Uiso   1.00
N228   N     0.22387   0.71706   0.81092   0.00000  Uiso   1.00
N229   N     0.00867   0.64304   0.01305   0.00000  Uiso   1.00
N230   N     0.19272   0.53144   0.80848   0.00000  Uiso   1.00
C231   C     0.81720   0.63106   0.44789   0.00000  Uiso   1.00
C232   C     0.80099   0.65556   0.50867   0.00000  Uiso   1.00
C233   C     0.77653   0.67604   0.47255   0.00000  Uiso   1.00
C234   C     0.76492   0.69669   0.54006   0.00000  Uiso   1.00
C235   C     0.73788   0.73472   0.61920   0.00000  Uiso   1.00
C236   C     0.85978   0.63360   0.45660   0.00000  Uiso   1.00
C237   C     0.88475   0.63562   0.37670   0.00000  Uiso   1.00
C238   C     0.92262   0.63778   0.40038   0.00000  Uiso   1.00
C239   C     0.98685   0.64170   0.39868   0.00000  Uiso   1.00
C240   C     0.80651   0.60418   0.50458   0.00000  Uiso   1.00
C241   C     0.78670   0.58147   0.46503   0.00000  Uiso   1.00
C242   C     0.77974   0.55886   0.52910   0.00000  Uiso   1.00
C243   C     0.76126   0.51710   0.60191   0.00000  Uiso   1.00
C244   C     0.84007   0.63129   0.63201   0.00000  Uiso   1.00
C245   C     0.81342   0.65569   0.60867   0.00000  Uiso   1.00
C246   C     0.80184   0.67631   0.67625   0.00000  Uiso   1.00
C247   C     0.77737   0.69682   0.64024   0.00000  Uiso   1.00
C248   C     0.87220   0.63373   0.55660   0.00000  Uiso   1.00
C249   C     0.91005   0.63588   0.58040   0.00000  Uiso   1.00
C250   C     0.93507   0.63791   0.50056   0.00000  Uiso   1.00
C251   C     0.81893   0.60431   0.60459   0.00000  Uiso   1.00
C252   C     0.81200   0.58173   0.66873   0.00000  Uiso   1.00
C253   C     0.79218   0.55899   0.62929   0.00000  Uiso   1.00
H254   H     0.80753   0.63096   0.37003   0.00000  Uiso   1.00
H255   H     0.76693   0.67594   0.39515   0.00000  Uiso   1.00
H256   H     0.87512   0.63552   0.29932   0.00000  Uiso   1.00
H257   H     0.77709   0.58137   0.38764   0.00000  Uiso   1.00
H258   H     0.72740   0.72587   0.46709   0.00000  Uiso   1.00
H259   H     0.95554   0.64063   0.26502   0.00000  Uiso   1.00
H260   H     0.74882   0.52646   0.45125   0.00000  Uiso   1.00
H261   H     0.84975   0.63140   0.70987   0.00000  Uiso   1.00
H262   H     0.81146   0.67640   0.75364   0.00000  Uiso   1.00
H263   H     0.91966   0.63598   0.65780   0.00000  Uiso   1.00
H264   H     0.82162   0.58184   0.74612   0.00000  Uiso   1.00
H265   H     0.76355   0.72625   0.75805   0.00000  Uiso   1.00
H266   H     0.99168   0.64101   0.55597   0.00000  Uiso   1.00
H267   H     0.78496   0.52684   0.74221   0.00000  Uiso   1.00
O268   O     0.71954   0.75567   0.63522   0.00000  Uiso   1.00
O269   O     0.01884   0.64383   0.37011   0.00000  Uiso   1.00
O270   O     0.74763   0.49404   0.61445   0.00000  Uiso   1.00
N271   N     0.74116   0.71978   0.52957   0.00000  Uiso   1.00
N272   N     0.95445   0.64009   0.34064   0.00000  Uiso   1.00
N273   N     0.76119   0.53335   0.51475   0.00000  Uiso   1.00
N274   N     0.76061   0.71998   0.68613   0.00000  Uiso   1.00
N275   N     0.97390   0.64029   0.49720   0.00000  Uiso   1.00
N276   N     0.78064   0.53355   0.67131   0.00000  Uiso   1.00
C277   C     0.16521   0.12811   0.54544   0.00000  Uiso   1.00
C278   C     0.18205   0.15255   0.48562   0.00000  Uiso   1.00
C279   C     0.20821   0.17187   0.52133   0.00000  Uiso   1.00
C280   C     0.22014   0.19268   0.45486   0.00000  Uiso   1.00
C281   C     0.24837   0.23043   0.37699   0.00000  Uiso   1.00
C282   C     0.12274   0.13216   0.54133   0.00000  Uiso   1.00
C283   C     0.09903   0.13433   0.62388   0.00000  Uiso   1.00
C284   C     0.06103   0.13797   0.60430   0.00000  Uiso   1.00
C285   C     0.99718   0.14403   0.61293   0.00000  Uiso   1.00
C286   C     0.17347   0.10140   0.48495   0.00000  Uiso   1.00
C287   C     0.19241   0.07771   0.52010   0.00000  Uiso   1.00
C288   C     0.19711   0.05545   0.45305   0.00000  Uiso   1.00
C289   C     0.21202   0.01377   0.37413   0.00000  Uiso   1.00
C290   C     0.13988   0.13071   0.36388   0.00000  Uiso   1.00
C291   C     0.16829   0.15396   0.38701   0.00000  Uiso   1.00
C292   C     0.18019   0.17475   0.32046   0.00000  Uiso   1.00
C293   C     0.20636   0.19410   0.35606   0.00000  Uiso   1.00
C294   C     0.10898   0.13357   0.44272   0.00000  Uiso   1.00
C295   C     0.07101   0.13721   0.42301   0.00000  Uiso   1.00
C296   C     0.04724   0.13938   0.50551   0.00000  Uiso   1.00
C297   C     0.15971   0.10282   0.38633   0.00000  Uiso   1.00
C298   C     0.16438   0.08059   0.31922   0.00000  Uiso   1.00
C299   C     0.18332   0.05687   0.35426   0.00000  Uiso   1.00
H300   H     0.17592   0.12701   0.62222   0.00000  Uiso   1.00
H301   H     0.21885   0.17077   0.59766   0.00000  Uiso   1.00
H302   H     0.10969   0.13323   0.70019   0.00000  Uiso   1.00
H303   H     0.20305   0.07663   0.59641   0.00000  Uiso   1.00
H304   H     0.26037   0.21992   0.52695   0.00000  Uiso   1.00
H305   H     0.03019   0.14075   0.74314   0.00000  Uiso   1.00
H306   H     0.22706   0.02139   0.52432   0.00000  Uiso   1.00
H307   H     0.12917   0.13181   0.28711   0.00000  Uiso   1.00
H308   H     0.16953   0.17584   0.24415   0.00000  Uiso   1.00
H309   H     0.06037   0.13830   0.34669   0.00000  Uiso   1.00
H310   H     0.15373   0.08169   0.24291   0.00000  Uiso   1.00
H311   H     0.22034   0.22404   0.24003   0.00000  Uiso   1.00
H312   H     0.99016   0.14486   0.45623   0.00000  Uiso   1.00
H313   H     0.18703   0.02550   0.23740   0.00000  Uiso   1.00
O314   O     0.26774   0.25086   0.36129   0.00000  Uiso   1.00
O315   O     0.96576   0.14699   0.64493   0.00000  Uiso   1.00
O316   O     0.22405   0.99039   0.35784   0.00000  Uiso   1.00
N317   N     0.24541   0.21485   0.46531   0.00000  Uiso   1.00
N318   N     0.03021   0.14083   0.66744   0.00000  Uiso   1.00
N319   N     0.21426   0.02923   0.46287   0.00000  Uiso   1.00
N320   N     0.22387   0.21706   0.31092   0.00000  Uiso   1.00
N321   N     0.00867   0.14304   0.51305   0.00000  Uiso   1.00
N322   N     0.19272   0.03144   0.30848   0.00000  Uiso   1.00
C323   C     0.81720   0.13106   0.94789   0.00000  Uiso   1.00
C324   C     0.80099   0.15556   0.00867   0.00000  Uiso   1.00
C325   C     0.77653   0.17604   0.97255   0.00000  Uiso   1.00
C326   C     0.76492   0.19669   0.04006   0.00000  Uiso   1.00
C327   C     0.73788   0.23472   0.11920   0.00000  Uiso   1.00
C328   C     0.85978   0.13360   0.95660   0.00000  Uiso   1.00
C329   C     0.88475   0.13562   0.87670   0.00000  Uiso   1.00
C330   C     0.92262   0.13778   0.90038   0.00000  Uiso   1.00
C331   C     0.98685   0.14170   0.89868   0.00000  Uiso   1.00
C332   C     0.80651   0.10418   0.00458   0.00000  Uiso   1.00
C333   C     0.78670   0.08147   0.96503   0.00000  Uiso   1.00
C334   C     0.77974   0.05886   0.02910   0.00000  Uiso   1.00
C335   C     0.76126   0.01710   0.10191   0.00000  Uiso   1.00
C336   C     0.84007   0.13129   0.13201   0.00000  Uiso   1.00
C337   C     0.81342   0.15569   0.10867   0.00000  Uiso   1.00
C338   C     0.80184   0.17631   0.17625   0.00000  Uiso   1.00
C339   C     0.77737   0.19682   0.14024   0.00000  Uiso   1.00
C340   C     0.87220   0.13373   0.05660   0.00000  Uiso   1.00
C341   C     0.91005   0.13588   0.08040   0.00000  Uiso   1.00
C342   C     0.93507   0.13791   0.00056   0.00000  Uiso   1.00
C343   C     0.81893   0.10431   0.10459   0.00000  Uiso   1.00
C344   C     0.81200   0.08173   0.16873   0.00000  Uiso   1.00
C345   C     0.79218   0.05899   0.12929   0.00000  Uiso   1.00
H346   H     0.80753   0.13096   0.87003   0.00000  Uiso   1.00
H347   H     0.76693   0.17594   0.89515   0.00000  Uiso   1.00
H348   H     0.87512   0.13552   0.79932   0.00000  Uiso   1.00
H349   H     0.77709   0.08137   0.88764   0.00000  Uiso   1.00
H350   H     0.72740   0.22587   0.96709   0.00000  Uiso   1.00
H351   H     0.95554   0.14063   0.76502   0.00000  Uiso   1.00
H352   H     0.74882   0.02646   0.95125   0.00000  Uiso   1.00
H353   H     0.84975   0.13140   0.20987   0.00000  Uiso   1.00
H354   H     0.81146   0.17640   0.25364   0.00000  Uiso   1.00
H355   H     0.91966   0.13598   0.15780   0.00000  Uiso   1.00
H356   H     0.82162   0.08184   0.24612   0.00000  Uiso   1.00
H357   H     0.76355   0.22625   0.25805   0.00000  Uiso   1.00
H358   H     0.99168   0.14101   0.05597   0.00000  Uiso   1.00
H359   H     0.78496   0.02684   0.24221   0.00000  Uiso   1.00
O360   O     0.71954   0.25567   0.13522   0.00000  Uiso   1.00
O361   O     0.01884   0.14383   0.87011   0.00000  Uiso   1.00
O362   O     0.74763   0.99404   0.11445   0.00000  Uiso   1.00
N363   N     0.74116   0.21978   0.02957   0.00000  Uiso   1.00
N364   N     0.95445   0.14009   0.84064   0.00000  Uiso   1.00
N365   N     0.76119   0.03335   0.01475   0.00000  Uiso   1.00
N366   N     0.76061   0.21998   0.18613   0.00000  Uiso   1.00
N367   N     0.97390   0.14029   0.99720   0.00000  Uiso   1.00
N368   N     0.78064   0.03355   0.17131   0.00000  Uiso   1.00
C369   C     0.33479   0.12811   0.04544   0.00000  Uiso   1.00
C370   C     0.31795   0.15255   0.98562   0.00000  Uiso   1.00
C371   C     0.29179   0.17187   0.02133   0.00000  Uiso   1.00
C372   C     0.27986   0.19268   0.95486   0.00000  Uiso   1.00
C373   C     0.25163   0.23043   0.87699   0.00000  Uiso   1.00
C374   C     0.37726   0.13216   0.04133   0.00000  Uiso   1.00
C375   C     0.40097   0.13433   0.12388   0.00000  Uiso   1.00
C376   C     0.43897   0.13797   0.10430   0.00000  Uiso   1.00
C377   C     0.50282   0.14403   0.11293   0.00000  Uiso   1.00
C378   C     0.32653   0.10140   0.98495   0.00000  Uiso   1.00
C379   C     0.30759   0.07771   0.02010   0.00000  Uiso   1.00
C380   C     0.30289   0.05545   0.95305   0.00000  Uiso   1.00
C381   C     0.28798   0.01377   0.87413   0.00000  Uiso   1.00
C382   C     0.36012   0.13071   0.86388   0.00000  Uiso   1.00
C383   C     0.33171   0.15396   0.88701   0.00000  Uiso   1.00
C384   C     0.31981   0.17475   0.82046   0.00000  Uiso   1.00
C385   C     0.29364   0.19410   0.85606   0.00000  Uiso   1.00
C386   C     0.39102   0.13357   0.94272   0.00000  Uiso   1.00
C387   C     0.42899   0.13721   0.92301   0.00000  Uiso   1.00
C388   C     0.45276   0.13938   0.00551   0.00000  Uiso   1.00
C389   C     0.34029   0.10282   0.88633   0.00000  Uiso   1.00
C390   C     0.33562   0.08059   0.81922   0.00000  Uiso   1.00
C391   C     0.31668   0.05687   0.85426   0.00000  Uiso   1.00
H392   H     0.32408   0.12701   0.12222   0.00000  Uiso   1.00
H393   H     0.28115   0.17077   0.09766   0.00000  Uiso   1.00
H394   H     0.39031   0.13323   0.20019   0.00000  Uiso   1.00
H395   H     0.29695   0.07663   0.09641   0.00000  Uiso   1.00
H396   H     0.23963   0.21992   0.02695   0.00000  Uiso   1.00
H397   H     0.46981   0.14075   0.24314   0.00000  Uiso   1.00
H398   H     0.27294   0.02139   0.02432   0.00000  Uiso   1.00
H399   H     0.37083   0.13181   0.78711   0.00000  Uiso   1.00
H400   H     0.33047   0.17584   0.74415   0.00000  Uiso   1.00
H401   H     0.43963   0.13830   0.84669   0.00000  Uiso   1.00
H402   H     0.34627   0.08169   0.74291   0.00000  Uiso   1.00
H403   H     0.27966   0.22404   0.74003   0.00000  Uiso   1.00
H404   H     0.50984   0.14486   0.95623   0.00000  Uiso   1.00
H405   H     0.31297   0.02550   0.73740   0.00000  Uiso   1.00
O406   O     0.23226   0.25086   0.86129   0.00000  Uiso   1.00
O407   O     0.53424   0.14699   0.14493   0.00000  Uiso   1.00
O408   O     0.27595   0.99039   0.85784   0.00000  Uiso   1.00
N409   N     0.25459   0.21485   0.96531   0.00000  Uiso   1.00
N410   N     0.46979   0.14083   0.16744   0.00000  Uiso   1.00
N411   N     0.28574   0.02923   0.96287   0.00000  Uiso   1.00
N412   N     0.27613   0.21706   0.81092   0.00000  Uiso   1.00
N413   N     0.49133   0.14304   0.01305   0.00000  Uiso   1.00
N414   N     0.30728   0.03144   0.80848   0.00000  Uiso   1.00
C415   C     0.68280   0.13106   0.44789   0.00000  Uiso   1.00
C416   C     0.69901   0.15556   0.50867   0.00000  Uiso   1.00
C417   C     0.72347   0.17604   0.47255   0.00000  Uiso   1.00
C418   C     0.73508   0.19669   0.54006   0.00000  Uiso   1.00
C419   C     0.76212   0.23472   0.61920   0.00000  Uiso   1.00
C420   C     0.64022   0.13360   0.45660   0.00000  Uiso   1.00
C421   C     0.61525   0.13562   0.37670   0.00000  Uiso   1.00
C422   C     0.57738   0.13778   0.40038   0.00000  Uiso   1.00
C423   C     0.51315   0.14170   0.39868   0.00000  Uiso   1.00
C424   C     0.69349   0.10418   0.50458   0.00000  Uiso   1.00
C425   C     0.71330   0.08147   0.46503   0.00000  Uiso   1.00
C426   C     0.72026   0.05886   0.52910   0.00000  Uiso   1.00
C427   C     0.73874   0.01710   0.60191   0.00000  Uiso   1.00
C428   C     0.65993   0.13129   0.63201   0.00000  Uiso   1.00
C429   C     0.68658   0.15569   0.60867   0.00000  Uiso   1.00
C430   C     0.69816   0.17631   0.67625   0.00000  Uiso   1.00
C431   C     0.72263   0.19682   0.64024   0.00000  Uiso   1.00
C432   C     0.62780   0.13373   0.55660   0.00000  Uiso   1.00
C433   C     0.58995   0.13588   0.58040   0.00000  Uiso   1.00
C434   C     0.56493   0.13791   0.50056   0.00000  Uiso   1.00
C435   C     0.68107   0.10431   0.60459   0.00000  Uiso   1.00
C436   C     0.68800   0.08173   0.66873   0.00000  Uiso   1.00
C437   C     0.70782   0.05899   0.62929   0.00000  Uiso   1.00
H438   H     0.69247   0.13096   0.37003   0.00000  Uiso   1.00
H439   H     0.73307   0.17594   0.39515   0.00000  Uiso   1.00
H440   H     0.62488   0.13552   0.29932   0.00000  Uiso   1.00
H441   H     0.72291   0.08137   0.38764   0.00000  Uiso   1.00
H442   H     0.77260   0.22587   0.46709   0.00000  Uiso   1.00
H443   H     0.54446   0.14063   0.26502   0.00000  Uiso   1.00
H444   H     0.75118   0.02646   0.45125   0.00000  Uiso   1.00
H445   H     0.65025   0.13140   0.70987   0.00000  Uiso   1.00
H446   H     0.68854   0.17640   0.75364   0.00000  Uiso   1.00
H447   H     0.58034   0.13598   0.65780   0.00000  Uiso   1.00
H448   H     0.67838   0.08184   0.74612   0.00000  Uiso   1.00
H449   H     0.73645   0.22625   0.75805   0.00000  Uiso   1.00
H450   H     0.50832   0.14101   0.55597   0.00000  Uiso   1.00
H451   H     0.71504   0.02684   0.74221   0.00000  Uiso   1.00
O452   O     0.78046   0.25567   0.63522   0.00000  Uiso   1.00
O453   O     0.48116   0.14383   0.37011   0.00000  Uiso   1.00
O454   O     0.75237   0.99404   0.61445   0.00000  Uiso   1.00
N455   N     0.75884   0.21978   0.52957   0.00000  Uiso   1.00
N456   N     0.54555   0.14009   0.34064   0.00000  Uiso   1.00
N457   N     0.73881   0.03335   0.51475   0.00000  Uiso   1.00
N458   N     0.73939   0.21998   0.68613   0.00000  Uiso   1.00
N459   N     0.52610   0.14029   0.49720   0.00000  Uiso   1.00
N460   N     0.71936   0.03355   0.67131   0.00000  Uiso   1.00
C461   C     0.33479   0.62811   0.54544   0.00000  Uiso   1.00
C462   C     0.31795   0.65255   0.48562   0.00000  Uiso   1.00
C463   C     0.29179   0.67187   0.52133   0.00000  Uiso   1.00
C464   C     0.27986   0.69268   0.45486   0.00000  Uiso   1.00
C465   C     0.25163   0.73043   0.37699   0.00000  Uiso   1.00
C466   C     0.37726   0.63216   0.54133   0.00000  Uiso   1.00
C467   C     0.40097   0.63433   0.62388   0.00000  Uiso   1.00
C468   C     0.43897   0.63797   0.60430   0.00000  Uiso   1.00
C469   C     0.50282   0.64403   0.61293   0.00000  Uiso   1.00
C470   C     0.32653   0.60140   0.48495   0.00000  Uiso   1.00
C471   C     0.30759   0.57771   0.52010   0.00000  Uiso   1.00
C472   C     0.30289   0.55545   0.45305   0.00000  Uiso   1.00
C473   C     0.28798   0.51377   0.37413   0.00000  Uiso   1.00
C474   C     0.36012   0.63071   0.36388   0.00000  Uiso   1.00
C475   C     0.33171   0.65396   0.38701   0.00000  Uiso   1.00
C476   C     0.31981   0.67475   0.32046   0.00000  Uiso   1.00
C477   C     0.29364   0.69410   0.35606   0.00000  Uiso   1.00
C478   C     0.39102   0.63357   0.44272   0.00000  Uiso   1.00
C479   C     0.42899   0.63721   0.42301   0.00000  Uiso   1.00
C480   C     0.45276   0.63938   0.50551   0.00000  Uiso   1.00
C481   C     0.34029   0.60282   0.38633   0.00000  Uiso   1.00
C482   C     0.33562   0.58059   0.31922   0.00000  Uiso   1.00
C483   C     0.31668   0.55687   0.35426   0.00000  Uiso   1.00
H484   H     0.32408   0.62701   0.62222   0.00000  Uiso   1.00
H485   H     0.28115   0.67077   0.59766   0.00000  Uiso   1.00
H486   H     0.39031   0.63323   0.70019   0.00000  Uiso   1.00
H487   H     0.29695   0.57663   0.59641   0.00000  Uiso   1.00
H488   H     0.23963   0.71992   0.52695   0.00000  Uiso   1.00
H489   H     0.46981   0.64075   0.74314   0.00000  Uiso   1.00
H490   H     0.27294   0.52139   0.52432   0.00000  Uiso   1.00
H491   H     0.37083   0.63181   0.28711   0.00000  Uiso   1.00
H492   H     0.33047   0.67584   0.24415   0.00000  Uiso   1.00
H493   H     0.43963   0.63830   0.34669   0.00000  Uiso   1.00
H494   H     0.34627   0.58169   0.24291   0.00000  Uiso   1.00
H495   H     0.27966   0.72404   0.24003   0.00000  Uiso   1.00
H496   H     0.50984   0.64486   0.45623   0.00000  Uiso   1.00
H497   H     0.31297   0.52550   0.23740   0.00000  Uiso   1.00
O498   O     0.23226   0.75086   0.36129   0.00000  Uiso   1.00
O499   O     0.53424   0.64699   0.64493   0.00000  Uiso   1.00
O500   O     0.27595   0.49039   0.35784   0.00000  Uiso   1.00
N501   N     0.25459   0.71485   0.46531   0.00000  Uiso   1.00
N502   N     0.46979   0.64083   0.66744   0.00000  Uiso   1.00
N503   N     0.28574   0.52923   0.46287   0.00000  Uiso   1.00
N504   N     0.27613   0.71706   0.31092   0.00000  Uiso   1.00
N505   N     0.49133   0.64304   0.51305   0.00000  Uiso   1.00
N506   N     0.30728   0.53144   0.30848   0.00000  Uiso   1.00
C507   C     0.68280   0.63106   0.94789   0.00000  Uiso   1.00
C508   C     0.69901   0.65556   0.00867   0.00000  Uiso   1.00
C509   C     0.72347   0.67604   0.97255   0.00000  Uiso   1.00
C510   C     0.73508   0.69669   0.04006   0.00000  Uiso   1.00
C511   C     0.76212   0.73472   0.11920   0.00000  Uiso   1.00
C512   C     0.64022   0.63360   0.95660   0.00000  Uiso   1.00
C513   C     0.61525   0.63562   0.87670   0.00000  Uiso   1.00
C514   C     0.57738   0.63778   0.90038   0.00000  Uiso   1.00
C515   C     0.51315   0.64170   0.89868   0.00000  Uiso   1.00
C516   C     0.69349   0.60418   0.00458   0.00000  Uiso   1.00
C517   C     0.71330   0.58147   0.96503   0.00000  Uiso   1.00
C518   C     0.72026   0.55886   0.02910   0.00000  Uiso   1.00
C519   C     0.73874   0.51710   0.10191   0.00000  Uiso   1.00
C520   C     0.65993   0.63129   0.13201   0.00000  Uiso   1.00
C521   C     0.68658   0.65569   0.10867   0.00000  Uiso   1.00
C522   C     0.69816   0.67631   0.17625   0.00000  Uiso   1.00
C523   C     0.72263   0.69682   0.14024   0.00000  Uiso   1.00
C524   C     0.62780   0.63373   0.05660   0.00000  Uiso   1.00
C525   C     0.58995   0.63588   0.08040   0.00000  Uiso   1.00
C526   C     0.56493   0.63791   0.00056   0.00000  Uiso   1.00
C527   C     0.68107   0.60431   0.10459   0.00000  Uiso   1.00
C528   C     0.68800   0.58173   0.16873   0.00000  Uiso   1.00
C529   C     0.70782   0.55899   0.12929   0.00000  Uiso   1.00
H530   H     0.69247   0.63096   0.87003   0.00000  Uiso   1.00
H531   H     0.73307   0.67594   0.89515   0.00000  Uiso   1.00
H532   H     0.62488   0.63552   0.79932   0.00000  Uiso   1.00
H533   H     0.72291   0.58137   0.88764   0.00000  Uiso   1.00
H534   H     0.77260   0.72587   0.96709   0.00000  Uiso   1.00
H535   H     0.54446   0.64063   0.76502   0.00000  Uiso   1.00
H536   H     0.75118   0.52646   0.95125   0.00000  Uiso   1.00
H537   H     0.65025   0.63140   0.20987   0.00000  Uiso   1.00
H538   H     0.68854   0.67640   0.25364   0.00000  Uiso   1.00
H539   H     0.58034   0.63598   0.15780   0.00000  Uiso   1.00
H540   H     0.67838   0.58184   0.24612   0.00000  Uiso   1.00
H541   H     0.73645   0.72625   0.25805   0.00000  Uiso   1.00
H542   H     0.50832   0.64101   0.05597   0.00000  Uiso   1.00
H543   H     0.71504   0.52684   0.24221   0.00000  Uiso   1.00
O544   O     0.78046   0.75567   0.13522   0.00000  Uiso   1.00
O545   O     0.48116   0.64383   0.87011   0.00000  Uiso   1.00
O546   O     0.75237   0.49404   0.11445   0.00000  Uiso   1.00
N547   N     0.75884   0.71978   0.02957   0.00000  Uiso   1.00
N548   N     0.54555   0.64009   0.84064   0.00000  Uiso   1.00
N549   N     0.73881   0.53335   0.01475   0.00000  Uiso   1.00
N550   N     0.73939   0.71998   0.18613   0.00000  Uiso   1.00
N551   N     0.52610   0.64029   0.99720   0.00000  Uiso   1.00
N552   N     0.71936   0.53355   0.17131   0.00000  Uiso   1.00
C553   C     0.66521   0.87189   0.04544   0.00000  Uiso   1.00
C554   C     0.68205   0.84745   0.98562   0.00000  Uiso   1.00
C555   C     0.70821   0.82813   0.02133   0.00000  Uiso   1.00
C556   C     0.72014   0.80732   0.95486   0.00000  Uiso   1.00
C557   C     0.74837   0.76957   0.87699   0.00000  Uiso   1.00
C558   C     0.62274   0.86784   0.04133   0.00000  Uiso   1.00
C559   C     0.59903   0.86567   0.12388   0.00000  Uiso   1.00
C560   C     0.56103   0.86203   0.10430   0.00000  Uiso   1.00
C561   C     0.49718   0.85597   0.11293   0.00000  Uiso   1.00
C562   C     0.67347   0.89860   0.98495   0.00000  Uiso   1.00
C563   C     0.69241   0.92229   0.02010   0.00000  Uiso   1.00
C564   C     0.69711   0.94455   0.95305   0.00000  Uiso   1.00
C565   C     0.71202   0.98623   0.87413   0.00000  Uiso   1.00
C566   C     0.63988   0.86929   0.86388   0.00000  Uiso   1.00
C567   C     0.66829   0.84604   0.88701   0.00000  Uiso   1.00
C568   C     0.68019   0.82525   0.82046   0.00000  Uiso   1.00
C569   C     0.70636   0.80590   0.85606   0.00000  Uiso   1.00
C570   C     0.60898   0.86643   0.94272   0.00000  Uiso   1.00
C571   C     0.57101   0.86279   0.92301   0.00000  Uiso   1.00
C572   C     0.54724   0.86062   0.00551   0.00000  Uiso   1.00
C573   C     0.65971   0.89718   0.88633   0.00000  Uiso   1.00
C574   C     0.66438   0.91941   0.81922   0.00000  Uiso   1.00
C575   C     0.68332   0.94313   0.85426   0.00000  Uiso   1.00
H576   H     0.67592   0.87299   0.12222   0.00000  Uiso   1.00
H577   H     0.71885   0.82923   0.09766   0.00000  Uiso   1.00
H578   H     0.60969   0.86677   0.20019   0.00000  Uiso   1.00
H579   H     0.70305   0.92337   0.09641   0.00000  Uiso   1.00
H580   H     0.76037   0.78008   0.02695   0.00000  Uiso   1.00
H581   H     0.53019   0.85925   0.24314   0.00000  Uiso   1.00
H582   H     0.72706   0.97861   0.02432   0.00000  Uiso   1.00
H583   H     0.62917   0.86819   0.78711   0.00000  Uiso   1.00
H584   H     0.66953   0.82416   0.74415   0.00000  Uiso   1.00
H585   H     0.56037   0.86170   0.84669   0.00000  Uiso   1.00
H586   H     0.65373   0.91831   0.74291   0.00000  Uiso   1.00
H587   H     0.72034   0.77596   0.74003   0.00000  Uiso   1.00
H588   H     0.49016   0.85514   0.95623   0.00000  Uiso   1.00
H589   H     0.68703   0.97450   0.73740   0.00000  Uiso   1.00
O590   O     0.76774   0.74914   0.86129   0.00000  Uiso   1.00
O591   O     0.46576   0.85301   0.14493   0.00000  Uiso   1.00
O592   O     0.72405   0.00961   0.85784   0.00000  Uiso   1.00
N593   N     0.74541   0.78515   0.96531   0.00000  Uiso   1.00
N594   N     0.53021   0.85917   0.16744   0.00000  Uiso   1.00
N595   N     0.71426   0.97077   0.96287   0.00000  Uiso   1.00
N596   N     0.72387   0.78294   0.81092   0.00000  Uiso   1.00
N597   N     0.50867   0.85696   0.01305   0.00000  Uiso   1.00
N598   N     0.69272   0.96856   0.80848   0.00000  Uiso   1.00
C599   C     0.31720   0.86894   0.44789   0.00000  Uiso   1.00
C600   C     0.30099   0.84444   0.50867   0.00000  Uiso   1.00
C601   C     0.27653   0.82396   0.47255   0.00000  Uiso   1.00
C602   C     0.26492   0.80331   0.54006   0.00000  Uiso   1.00
C603   C     0.23788   0.76528   0.61920   0.00000  Uiso   1.00
C604   C     0.35978   0.86640   0.45660   0.00000  Uiso   1.00
C605   C     0.38475   0.86438   0.37670   0.00000  Uiso   1.00
C606   C     0.42262   0.86222   0.40038   0.00000  Uiso   1.00
C607   C     0.48685   0.85830   0.39868   0.00000  Uiso   1.00
C608   C     0.30651   0.89582   0.50458   0.00000  Uiso   1.00
C609   C     0.28670   0.91853   0.46503   0.00000  Uiso   1.00
C610   C     0.27974   0.94114   0.52910   0.00000  Uiso   1.00
C611   C     0.26126   0.98290   0.60191   0.00000  Uiso   1.00
C612   C     0.34007   0.86871   0.63201   0.00000  Uiso   1.00
C613   C     0.31342   0.84431   0.60867   0.00000  Uiso   1.00
C614   C     0.30184   0.82369   0.67625   0.00000  Uiso   1.00
C615   C     0.27737   0.80318   0.64024   0.00000  Uiso   1.00
C616   C     0.37220   0.86627   0.55660   0.00000  Uiso   1.00
C617   C     0.41005   0.86412   0.58040   0.00000  Uiso   1.00
C618   C     0.43507   0.86209   0.50056   0.00000  Uiso   1.00
C619   C     0.31893   0.89569   0.60459   0.00000  Uiso   1.00
C620   C     0.31200   0.91827   0.66873   0.00000  Uiso   1.00
C621   C     0.29218   0.94101   0.62929   0.00000  Uiso   1.00
H622   H     0.30753   0.86904   0.37003   0.00000  Uiso   1.00
H623   H     0.26693   0.82406   0.39515   0.00000  Uiso   1.00
H624   H     0.37512   0.86448   0.29932   0.00000  Uiso   1.00
H625   H     0.27709   0.91863   0.38764   0.00000  Uiso   1.00
H626   H     0.22740   0.77413   0.46709   0.00000  Uiso   1.00
H627   H     0.45554   0.85937   0.26502   0.00000  Uiso   1.00
H628   H     0.24882   0.97354   0.45125   0.00000  Uiso   1.00
H629   H     0.34975   0.86860   0.70987   0.00000  Uiso   1.00
H630   H     0.31146   0.82360   0.75364   0.00000  Uiso   1.00
H631   H     0.41966   0.86402   0.65780   0.00000  Uiso   1.00
H632   H     0.32162   0.91816   0.74612   0.00000  Uiso   1.00
H633   H     0.26355   0.77375   0.75805   0.00000  Uiso   1.00
H634   H     0.49168   0.85899   0.55597   0.00000  Uiso   1.00
H635   H     0.28496   0.97316   0.74221   0.00000  Uiso   1.00
O636   O     0.21954   0.74433   0.63522   0.00000  Uiso   1.00
O637   O     0.51884   0.85617   0.37011   0.00000  Uiso   1.00
O638   O     0.24763   0.00596   0.61445   0.00000  Uiso   1.00
N639   N     0.24116   0.78022   0.52957   0.00000  Uiso   1.00
N640   N     0.45445   0.85991   0.34064   0.00000  Uiso   1.00
N641   N     0.26119   0.96665   0.51475   0.00000  Uiso   1.00
N642   N     0.26061   0.78002   0.68613   0.00000  Uiso   1.00
N643   N     0.47390   0.85971   0.49720   0.00000  Uiso   1.00
N644   N     0.28064   0.96645   0.67131   0.00000  Uiso   1.00
C645   C     0.66521   0.37189   0.54544   0.00000  Uiso   1.00
C646   C     0.68205   0.34745   0.48562   0.00000  Uiso   1.00
C647   C     0.70821   0.32813   0.52133   0.00000  Uiso   1.00
C648   C     0.72014   0.30732   0.45486   0.00000  Uiso   1.00
C649   C     0.74837   0.26957   0.37699   0.00000  Uiso   1.00
C650   C     0.62274   0.36784   0.54133   0.00000  Uiso   1.00
C651   C     0.59903   0.36567   0.62388   0.00000  Uiso   1.00
C652   C     0.56103   0.36203   0.60430   0.00000  Uiso   1.00
C653   C     0.49718   0.35597   0.61293   0.00000  Uiso   1.00
C654   C     0.67347   0.39860   0.48495   0.00000  Uiso   1.00
C655   C     0.69241   0.42229   0.52010   0.00000  Uiso   1.00
C656   C     0.69711   0.44455   0.45305   0.00000  Uiso   1.00
C657   C     0.71202   0.48623   0.37413   0.00000  Uiso   1.00
C658   C     0.63988   0.36929   0.36388   0.00000  Uiso   1.00
C659   C     0.66829   0.34604   0.38701   0.00000  Uiso   1.00
C660   C     0.68019   0.32525   0.32046   0.00000  Uiso   1.00
C661   C     0.70636   0.30590   0.35606   0.00000  Uiso   1.00
C662   C     0.60898   0.36643   0.44272   0.00000  Uiso   1.00
C663   C     0.57101   0.36279   0.42301   0.00000  Uiso   1.00
C664   C     0.54724   0.36062   0.50551   0.00000  Uiso   1.00
C665   C     0.65971   0.39718   0.38633   0.00000  Uiso   1.00
C666   C     0.66438   0.41941   0.31922   0.00000  Uiso   1.00
C667   C     0.68332   0.44313   0.35426   0.00000  Uiso   1.00
H668   H     0.67592   0.37299   0.62222   0.00000  Uiso   1.00
H669   H     0.71885   0.32923   0.59766   0.00000  Uiso   1.00
H670   H     0.60969   0.36677   0.70019   0.00000  Uiso   1.00
H671   H     0.70305   0.42337   0.59641   0.00000  Uiso   1.00
H672   H     0.76037   0.28008   0.52695   0.00000  Uiso   1.00
H673   H     0.53019   0.35925   0.74314   0.00000  Uiso   1.00
H674   H     0.72706   0.47861   0.52432   0.00000  Uiso   1.00
H675   H     0.62917   0.36819   0.28711   0.00000  Uiso   1.00
H676   H     0.66953   0.32416   0.24415   0.00000  Uiso   1.00
H677   H     0.56037   0.36170   0.34669   0.00000  Uiso   1.00
H678   H     0.65373   0.41831   0.24291   0.00000  Uiso   1.00
H679   H     0.72034   0.27596   0.24003   0.00000  Uiso   1.00
H680   H     0.49016   0.35514   0.45623   0.00000  Uiso   1.00
H681   H     0.68703   0.47450   0.23740   0.00000  Uiso   1.00
O682   O     0.76774   0.24914   0.36129   0.00000  Uiso   1.00
O683   O     0.46576   0.35301   0.64493   0.00000  Uiso   1.00
O684   O     0.72405   0.50961   0.35784   0.00000  Uiso   1.00
N685   N     0.74541   0.28515   0.46531   0.00000  Uiso   1.00
N686   N     0.53021   0.35917   0.66744   0.00000  Uiso   1.00
N687   N     0.71426   0.47077   0.46287   0.00000  Uiso   1.00
N688   N     0.72387   0.28294   0.31092   0.00000  Uiso   1.00
N689   N     0.50867   0.35696   0.51305   0.00000  Uiso   1.00
N690   N     0.69272   0.46856   0.30848   0.00000  Uiso   1.00
C691   C     0.31720   0.36894   0.94789   0.00000  Uiso   1.00
C692   C     0.30099   0.34444   0.00867   0.00000  Uiso   1.00
C693   C     0.27653   0.32396   0.97255   0.00000  Uiso   1.00
C694   C     0.26492   0.30331   0.04006   0.00000  Uiso   1.00
C695   C     0.23788   0.26528   0.11920   0.00000  Uiso   1.00
C696   C     0.35978   0.36640   0.95660   0.00000  Uiso   1.00
C697   C     0.38475   0.36438   0.87670   0.00000  Uiso   1.00
C698   C     0.42262   0.36222   0.90038   0.00000  Uiso   1.00
C699   C     0.48685   0.35830   0.89868   0.00000  Uiso   1.00
C700   C     0.30651   0.39582   0.00458   0.00000  Uiso   1.00
C701   C     0.28670   0.41853   0.96503   0.00000  Uiso   1.00
C702   C     0.27974   0.44114   0.02910   0.00000  Uiso   1.00
C703   C     0.26126   0.48290   0.10191   0.00000  Uiso   1.00
C704   C     0.34007   0.36871   0.13201   0.00000  Uiso   1.00
C705   C     0.31342   0.34431   0.10867   0.00000  Uiso   1.00
C706   C     0.30184   0.32369   0.17625   0.00000  Uiso   1.00
C707   C     0.27737   0.30318   0.14024   0.00000  Uiso   1.00
C708   C     0.37220   0.36627   0.05660   0.00000  Uiso   1.00
C709   C     0.41005   0.36412   0.08040   0.00000  Uiso   1.00
C710   C     0.43507   0.36209   0.00056   0.00000  Uiso   1.00
C711   C     0.31893   0.39569   0.10459   0.00000  Uiso   1.00
C712   C     0.31200   0.41827   0.16873   0.00000  Uiso   1.00
C713   C     0.29218   0.44101   0.12929   0.00000  Uiso   1.00
H714   H     0.30753   0.36904   0.87003   0.00000  Uiso   1.00
H715   H     0.26693   0.32406   0.89515   0.00000  Uiso   1.00
H716   H     0.37512   0.36448   0.79932   0.00000  Uiso   1.00
H717   H     0.27709   0.41863   0.88764   0.00000  Uiso   1.00
H718   H     0.22740   0.27413   0.96709   0.00000  Uiso   1.00
H719   H     0.45554   0.35937   0.76502   0.00000  Uiso   1.00
H720   H     0.24882   0.47354   0.95125   0.00000  Uiso   1.00
H721   H     0.34975   0.36860   0.20987   0.00000  Uiso   1.00
H722   H     0.31146   0.32360   0.25364   0.00000  Uiso   1.00
H723   H     0.41966   0.36402   0.15780   0.00000  Uiso   1.00
H724   H     0.32162   0.41816   0.24612   0.00000  Uiso   1.00
H725   H     0.26355   0.27375   0.25805   0.00000  Uiso   1.00
H726   H     0.49168   0.35899   0.05597   0.00000  Uiso   1.00
H727   H     0.28496   0.47316   0.24221   0.00000  Uiso   1.00
O728   O     0.21954   0.24433   0.13522   0.00000  Uiso   1.00
O729   O     0.51884   0.35617   0.87011   0.00000  Uiso   1.00
O730   O     0.24763   0.50596   0.11445   0.00000  Uiso   1.00
N731   N     0.24116   0.28022   0.02957   0.00000  Uiso   1.00
N732   N     0.45445   0.35991   0.84064   0.00000  Uiso   1.00
N733   N     0.26119   0.46665   0.01475   0.00000  Uiso   1.00
N734   N     0.26061   0.28002   0.18613   0.00000  Uiso   1.00
N735   N     0.47390   0.35971   0.99720   0.00000  Uiso   1.00
N736   N     0.28064   0.46645   0.17131   0.00000  Uiso   1.00
