data_job_06814
_audit_creation_date              2018-12-19
_audit_creation_method            'Materials Studio'
_symmetry_space_group_name_H-M    'P1'
_symmetry_Int_Tables_number       1
_symmetry_cell_setting            triclinic
loop_
_symmetry_equiv_pos_as_xyz
  x,y,z
_cell_length_a                    35.5464
_cell_length_b                    35.5464
_cell_length_c                    34.1721
_cell_angle_alpha                 90.0000
_cell_angle_beta                  90.0000
_cell_angle_gamma                 120.0000
loop_
_atom_site_label
_atom_site_type_symbol
_atom_site_fract_x
_atom_site_fract_y
_atom_site_fract_z
_atom_site_U_iso_or_equiv
_atom_site_adp_type
_atom_site_occupancy
C1     C     0.15282   0.92419   0.36697   0.00000  Uiso   1.00
C2     C     0.16216   0.96296   0.39271   0.00000  Uiso   1.00
C3     C     0.18060   0.00574   0.38029   0.00000  Uiso   1.00
C4     C     0.18649   0.03647   0.40836   0.00000  Uiso   1.00
C5     C     0.20285   0.09844   0.44239   0.00000  Uiso   1.00
C6     C     0.17653   0.90306   0.38589   0.00000  Uiso   1.00
C7     C     0.20704   0.89548   0.36773   0.00000  Uiso   1.00
C8     C     0.22502   0.87578   0.39004   0.00000  Uiso   1.00
C9     C     0.93034   0.17807   0.74681   0.00000  Uiso   1.00
C10    C     0.10447   0.89181   0.37159   0.00000  Uiso   1.00
C11    C     0.07440   0.87477   0.34140   0.00000  Uiso   1.00
C12    C     0.03171   0.84559   0.35168   0.00000  Uiso   1.00
C13    C     0.95848   0.79708   0.35290   0.00000  Uiso   1.00
C14    C     0.13049   0.90267   0.43888   0.00000  Uiso   1.00
C15    C     0.15003   0.95127   0.43177   0.00000  Uiso   1.00
C16    C     0.15589   0.98193   0.45986   0.00000  Uiso   1.00
C17    C     0.17433   0.02476   0.44749   0.00000  Uiso   1.00
C18    C     0.16440   0.89137   0.42495   0.00000  Uiso   1.00
C19    C     0.18233   0.87168   0.44729   0.00000  Uiso   1.00
C20    C     0.21287   0.86407   0.42918   0.00000  Uiso   1.00
C21    C     0.09234   0.88012   0.41065   0.00000  Uiso   1.00
C22    C     0.04969   0.85096   0.42097   0.00000  Uiso   1.00
C23    C     0.01956   0.83388   0.39081   0.00000  Uiso   1.00
H24    H     0.16227   0.93329   0.33655   0.00000  Uiso   1.00
H25    H     0.18998   0.01477   0.35006   0.00000  Uiso   1.00
H26    H     0.21642   0.90453   0.33750   0.00000  Uiso   1.00
H27    H     0.08380   0.88382   0.31118   0.00000  Uiso   1.00
H28    H     0.21538   0.09996   0.38227   0.00000  Uiso   1.00
H29    H     0.93778   0.20082   0.68910   0.00000  Uiso   1.00
H30    H     0.99145   0.82382   0.30027   0.00000  Uiso   1.00
H31    H     0.12104   0.89357   0.46930   0.00000  Uiso   1.00
H32    H     0.14650   0.97288   0.49009   0.00000  Uiso   1.00
H33    H     0.17294   0.86263   0.47752   0.00000  Uiso   1.00
H34    H     0.04031   0.84192   0.45120   0.00000  Uiso   1.00
H35    H     0.18009   0.06596   0.49592   0.00000  Uiso   1.00
H36    H     0.23582   0.83349   0.46942   0.00000  Uiso   1.00
H37    H     0.95616   0.78981   0.41392   0.00000  Uiso   1.00
O38    O     0.21524   0.13585   0.45038   0.00000  Uiso   1.00
O39    O     0.95501   0.16418   0.74894   0.00000  Uiso   1.00
O40    O     0.92144   0.77355   0.34279   0.00000  Uiso   1.00
N41    N     0.20357   0.08108   0.40616   0.00000  Uiso   1.00
N42    N     0.92235   0.19707   0.71472   0.00000  Uiso   1.00
N43    N     0.99423   0.82289   0.32950   0.00000  Uiso   1.00
N44    N     0.18458   0.06278   0.46731   0.00000  Uiso   1.00
N45    N     0.23669   0.84544   0.44254   0.00000  Uiso   1.00
N46    N     0.97523   0.80460   0.39065   0.00000  Uiso   1.00
C47    C     0.81949   0.25753   0.70030   0.00000  Uiso   1.00
C48    C     0.82883   0.29629   0.72604   0.00000  Uiso   1.00
C49    C     0.84726   0.33907   0.71363   0.00000  Uiso   1.00
C50    C     0.85315   0.36980   0.74169   0.00000  Uiso   1.00
C51    C     0.86952   0.43177   0.77573   0.00000  Uiso   1.00
C52    C     0.84320   0.23639   0.71922   0.00000  Uiso   1.00
C53    C     0.87371   0.22882   0.70106   0.00000  Uiso   1.00
C54    C     0.89168   0.20912   0.72338   0.00000  Uiso   1.00
C55    C     0.59700   0.51141   0.08014   0.00000  Uiso   1.00
C56    C     0.77114   0.22515   0.70492   0.00000  Uiso   1.00
C57    C     0.74106   0.20810   0.67473   0.00000  Uiso   1.00
C58    C     0.69837   0.17892   0.68501   0.00000  Uiso   1.00
C59    C     0.62515   0.13041   0.68624   0.00000  Uiso   1.00
C60    C     0.79715   0.23601   0.77222   0.00000  Uiso   1.00
C61    C     0.81670   0.28460   0.76511   0.00000  Uiso   1.00
C62    C     0.82256   0.31527   0.79320   0.00000  Uiso   1.00
C63    C     0.84100   0.35809   0.78082   0.00000  Uiso   1.00
C64    C     0.83107   0.22471   0.75828   0.00000  Uiso   1.00
C65    C     0.84900   0.20501   0.78063   0.00000  Uiso   1.00
C66    C     0.87953   0.19741   0.76251   0.00000  Uiso   1.00
C67    C     0.75901   0.21346   0.74398   0.00000  Uiso   1.00
C68    C     0.71636   0.18429   0.75430   0.00000  Uiso   1.00
C69    C     0.68622   0.16721   0.72414   0.00000  Uiso   1.00
H70    H     0.82893   0.26662   0.66989   0.00000  Uiso   1.00
H71    H     0.85665   0.34811   0.68340   0.00000  Uiso   1.00
H72    H     0.88308   0.23786   0.67083   0.00000  Uiso   1.00
H73    H     0.75046   0.21715   0.64451   0.00000  Uiso   1.00
H74    H     0.88205   0.43330   0.71560   0.00000  Uiso   1.00
H75    H     0.60444   0.53416   0.02244   0.00000  Uiso   1.00
H76    H     0.65812   0.15715   0.63360   0.00000  Uiso   1.00
H77    H     0.78771   0.22691   0.80263   0.00000  Uiso   1.00
H78    H     0.81317   0.30621   0.82342   0.00000  Uiso   1.00
H79    H     0.83960   0.19597   0.81086   0.00000  Uiso   1.00
H80    H     0.70698   0.17526   0.78454   0.00000  Uiso   1.00
H81    H     0.84676   0.39929   0.82925   0.00000  Uiso   1.00
H82    H     0.90248   0.16682   0.80275   0.00000  Uiso   1.00
H83    H     0.62282   0.12315   0.74725   0.00000  Uiso   1.00
O84    O     0.88191   0.46918   0.78371   0.00000  Uiso   1.00
O85    O     0.62168   0.49752   0.08228   0.00000  Uiso   1.00
O86    O     0.58811   0.10688   0.67613   0.00000  Uiso   1.00
N87    N     0.87024   0.41441   0.73949   0.00000  Uiso   1.00
N88    N     0.58901   0.53040   0.04805   0.00000  Uiso   1.00
N89    N     0.66089   0.15623   0.66283   0.00000  Uiso   1.00
N90    N     0.85125   0.39611   0.80065   0.00000  Uiso   1.00
N91    N     0.90336   0.17877   0.77587   0.00000  Uiso   1.00
N92    N     0.64190   0.13793   0.72398   0.00000  Uiso   1.00
C93    C     0.48615   0.59086   0.03363   0.00000  Uiso   1.00
C94    C     0.49549   0.62962   0.05938   0.00000  Uiso   1.00
C95    C     0.51393   0.67241   0.04696   0.00000  Uiso   1.00
C96    C     0.51982   0.70313   0.07502   0.00000  Uiso   1.00
C97    C     0.53619   0.76510   0.10906   0.00000  Uiso   1.00
C98    C     0.50986   0.56973   0.05255   0.00000  Uiso   1.00
C99    C     0.54037   0.56215   0.03439   0.00000  Uiso   1.00
C100   C     0.55835   0.54245   0.05671   0.00000  Uiso   1.00
C101   C     0.26367   0.84474   0.41348   0.00000  Uiso   1.00
C102   C     0.43780   0.55848   0.03825   0.00000  Uiso   1.00
C103   C     0.40773   0.54143   0.00807   0.00000  Uiso   1.00
C104   C     0.36504   0.51225   0.01834   0.00000  Uiso   1.00
C105   C     0.29181   0.46374   0.01957   0.00000  Uiso   1.00
C106   C     0.46382   0.56934   0.10555   0.00000  Uiso   1.00
C107   C     0.48336   0.61793   0.09844   0.00000  Uiso   1.00
C108   C     0.48922   0.64860   0.12653   0.00000  Uiso   1.00
C109   C     0.50766   0.69142   0.11416   0.00000  Uiso   1.00
C110   C     0.49773   0.55804   0.09161   0.00000  Uiso   1.00
C111   C     0.51567   0.53834   0.11396   0.00000  Uiso   1.00
C112   C     0.54620   0.53074   0.09584   0.00000  Uiso   1.00
C113   C     0.42567   0.54679   0.07731   0.00000  Uiso   1.00
C114   C     0.38302   0.51763   0.08764   0.00000  Uiso   1.00
C115   C     0.35289   0.50054   0.05748   0.00000  Uiso   1.00
H116   H     0.49560   0.59996   0.00322   0.00000  Uiso   1.00
H117   H     0.52332   0.68144   0.01673   0.00000  Uiso   1.00
H118   H     0.54975   0.57119   0.00416   0.00000  Uiso   1.00
H119   H     0.41713   0.55048   0.97784   0.00000  Uiso   1.00
H120   H     0.54871   0.76663   0.04893   0.00000  Uiso   1.00
H121   H     0.27111   0.86749   0.35577   0.00000  Uiso   1.00
H122   H     0.32478   0.49048   0.96693   0.00000  Uiso   1.00
H123   H     0.45438   0.56024   0.13596   0.00000  Uiso   1.00
H124   H     0.47983   0.63955   0.15676   0.00000  Uiso   1.00
H125   H     0.50627   0.52930   0.14419   0.00000  Uiso   1.00
H126   H     0.37365   0.50859   0.11787   0.00000  Uiso   1.00
H127   H     0.51342   0.73263   0.16259   0.00000  Uiso   1.00
H128   H     0.56915   0.50015   0.13608   0.00000  Uiso   1.00
H129   H     0.28949   0.45648   0.08058   0.00000  Uiso   1.00
O130   O     0.54857   0.80252   0.11705   0.00000  Uiso   1.00
O131   O     0.28834   0.83085   0.41561   0.00000  Uiso   1.00
O132   O     0.25477   0.44022   0.00946   0.00000  Uiso   1.00
N133   N     0.53691   0.74774   0.07283   0.00000  Uiso   1.00
N134   N     0.25568   0.86373   0.38139   0.00000  Uiso   1.00
N135   N     0.32756   0.48956   0.99616   0.00000  Uiso   1.00
N136   N     0.51792   0.72945   0.13398   0.00000  Uiso   1.00
N137   N     0.57002   0.51210   0.10921   0.00000  Uiso   1.00
N138   N     0.30857   0.47126   0.05732   0.00000  Uiso   1.00
C139   C     0.07581   0.22863   0.36697   0.00000  Uiso   1.00
C140   C     0.03704   0.19920   0.39271   0.00000  Uiso   1.00
C141   C     0.99426   0.17486   0.38029   0.00000  Uiso   1.00
C142   C     0.96353   0.15002   0.40836   0.00000  Uiso   1.00
C143   C     0.90156   0.10442   0.44239   0.00000  Uiso   1.00
C144   C     0.09694   0.27347   0.38589   0.00000  Uiso   1.00
C145   C     0.10452   0.31156   0.36773   0.00000  Uiso   1.00
C146   C     0.12422   0.34923   0.39004   0.00000  Uiso   1.00
C147   C     0.82193   0.75226   0.74681   0.00000  Uiso   1.00
C148   C     0.10819   0.21266   0.37159   0.00000  Uiso   1.00
C149   C     0.12523   0.19963   0.34140   0.00000  Uiso   1.00
C150   C     0.15441   0.18612   0.35168   0.00000  Uiso   1.00
C151   C     0.20292   0.16141   0.35290   0.00000  Uiso   1.00
C152   C     0.09733   0.22781   0.43888   0.00000  Uiso   1.00
C153   C     0.04873   0.19876   0.43177   0.00000  Uiso   1.00
C154   C     0.01807   0.17396   0.45986   0.00000  Uiso   1.00
C155   C     0.97524   0.14957   0.44749   0.00000  Uiso   1.00
C156   C     0.10863   0.27303   0.42495   0.00000  Uiso   1.00
C157   C     0.12832   0.31066   0.44729   0.00000  Uiso   1.00
C158   C     0.13593   0.34879   0.42918   0.00000  Uiso   1.00
C159   C     0.11988   0.21222   0.41065   0.00000  Uiso   1.00
C160   C     0.14904   0.19873   0.42097   0.00000  Uiso   1.00
C161   C     0.16612   0.18568   0.39081   0.00000  Uiso   1.00
H162   H     0.06671   0.22898   0.33655   0.00000  Uiso   1.00
H163   H     0.98523   0.17521   0.35006   0.00000  Uiso   1.00
H164   H     0.09547   0.31189   0.33750   0.00000  Uiso   1.00
H165   H     0.11618   0.19998   0.31118   0.00000  Uiso   1.00
H166   H     0.90004   0.11542   0.38227   0.00000  Uiso   1.00
H167   H     0.79918   0.73695   0.68910   0.00000  Uiso   1.00
H168   H     0.17618   0.16763   0.30027   0.00000  Uiso   1.00
H169   H     0.10643   0.22747   0.46930   0.00000  Uiso   1.00
H170   H     0.02712   0.17362   0.49009   0.00000  Uiso   1.00
H171   H     0.13737   0.31030   0.47752   0.00000  Uiso   1.00
H172   H     0.15808   0.19839   0.45120   0.00000  Uiso   1.00
H173   H     0.93404   0.11413   0.49592   0.00000  Uiso   1.00
H174   H     0.16651   0.40233   0.46942   0.00000  Uiso   1.00
H175   H     0.21019   0.16635   0.41392   0.00000  Uiso   1.00
O176   O     0.86415   0.07939   0.45038   0.00000  Uiso   1.00
O177   O     0.83582   0.79083   0.74894   0.00000  Uiso   1.00
O178   O     0.22645   0.14789   0.34279   0.00000  Uiso   1.00
N179   N     0.91892   0.12250   0.40616   0.00000  Uiso   1.00
N180   N     0.80293   0.72528   0.71472   0.00000  Uiso   1.00
N181   N     0.17711   0.17133   0.32950   0.00000  Uiso   1.00
N182   N     0.93722   0.12180   0.46731   0.00000  Uiso   1.00
N183   N     0.15456   0.39125   0.44254   0.00000  Uiso   1.00
N184   N     0.19540   0.17064   0.39065   0.00000  Uiso   1.00
C185   C     0.74247   0.56196   0.70030   0.00000  Uiso   1.00
C186   C     0.70371   0.53254   0.72604   0.00000  Uiso   1.00
C187   C     0.66093   0.50819   0.71363   0.00000  Uiso   1.00
C188   C     0.63020   0.48335   0.74169   0.00000  Uiso   1.00
C189   C     0.56823   0.43775   0.77573   0.00000  Uiso   1.00
C190   C     0.76361   0.60680   0.71922   0.00000  Uiso   1.00
C191   C     0.77118   0.64489   0.70106   0.00000  Uiso   1.00
C192   C     0.79088   0.68257   0.72338   0.00000  Uiso   1.00
C193   C     0.48859   0.08560   0.08014   0.00000  Uiso   1.00
C194   C     0.77485   0.54599   0.70492   0.00000  Uiso   1.00
C195   C     0.79190   0.53297   0.67473   0.00000  Uiso   1.00
C196   C     0.82108   0.51946   0.68501   0.00000  Uiso   1.00
C197   C     0.86959   0.49474   0.68624   0.00000  Uiso   1.00
C198   C     0.76399   0.56115   0.77222   0.00000  Uiso   1.00
C199   C     0.71540   0.53210   0.76511   0.00000  Uiso   1.00
C200   C     0.68473   0.50729   0.79320   0.00000  Uiso   1.00
C201   C     0.64191   0.48291   0.78082   0.00000  Uiso   1.00
C202   C     0.77529   0.60636   0.75828   0.00000  Uiso   1.00
C203   C     0.79499   0.64399   0.78063   0.00000  Uiso   1.00
C204   C     0.80259   0.68213   0.76251   0.00000  Uiso   1.00
C205   C     0.78654   0.54555   0.74398   0.00000  Uiso   1.00
C206   C     0.81571   0.53206   0.75430   0.00000  Uiso   1.00
C207   C     0.83279   0.51901   0.72414   0.00000  Uiso   1.00
H208   H     0.73338   0.56231   0.66989   0.00000  Uiso   1.00
H209   H     0.65189   0.50854   0.68340   0.00000  Uiso   1.00
H210   H     0.76214   0.64522   0.67083   0.00000  Uiso   1.00
H211   H     0.78285   0.53331   0.64451   0.00000  Uiso   1.00
H212   H     0.56670   0.44875   0.71560   0.00000  Uiso   1.00
H213   H     0.46584   0.07028   0.02244   0.00000  Uiso   1.00
H214   H     0.84285   0.50097   0.63360   0.00000  Uiso   1.00
H215   H     0.77309   0.56080   0.80263   0.00000  Uiso   1.00
H216   H     0.69379   0.50695   0.82342   0.00000  Uiso   1.00
H217   H     0.80403   0.64364   0.81086   0.00000  Uiso   1.00
H218   H     0.82474   0.53172   0.78454   0.00000  Uiso   1.00
H219   H     0.60071   0.44746   0.82925   0.00000  Uiso   1.00
H220   H     0.83318   0.73566   0.80275   0.00000  Uiso   1.00
H221   H     0.87685   0.49968   0.74725   0.00000  Uiso   1.00
O222   O     0.53082   0.41272   0.78371   0.00000  Uiso   1.00
O223   O     0.50248   0.12416   0.08228   0.00000  Uiso   1.00
O224   O     0.89312   0.48122   0.67613   0.00000  Uiso   1.00
N225   N     0.58559   0.45583   0.73949   0.00000  Uiso   1.00
N226   N     0.46960   0.05861   0.04805   0.00000  Uiso   1.00
N227   N     0.84377   0.50467   0.66283   0.00000  Uiso   1.00
N228   N     0.60389   0.45514   0.80065   0.00000  Uiso   1.00
N229   N     0.82123   0.72459   0.77587   0.00000  Uiso   1.00
N230   N     0.86207   0.50397   0.72398   0.00000  Uiso   1.00
C231   C     0.40914   0.89529   0.03363   0.00000  Uiso   1.00
C232   C     0.37038   0.86587   0.05938   0.00000  Uiso   1.00
C233   C     0.32759   0.84152   0.04696   0.00000  Uiso   1.00
C234   C     0.29687   0.81669   0.07502   0.00000  Uiso   1.00
C235   C     0.23490   0.77108   0.10906   0.00000  Uiso   1.00
C236   C     0.43027   0.94013   0.05255   0.00000  Uiso   1.00
C237   C     0.43785   0.97822   0.03439   0.00000  Uiso   1.00
C238   C     0.45755   0.01590   0.05671   0.00000  Uiso   1.00
C239   C     0.15526   0.41893   0.41348   0.00000  Uiso   1.00
C240   C     0.44152   0.87933   0.03825   0.00000  Uiso   1.00
C241   C     0.45857   0.86630   0.00807   0.00000  Uiso   1.00
C242   C     0.48775   0.85279   0.01834   0.00000  Uiso   1.00
C243   C     0.53626   0.82807   0.01957   0.00000  Uiso   1.00
C244   C     0.43066   0.89448   0.10555   0.00000  Uiso   1.00
C245   C     0.38207   0.86543   0.09844   0.00000  Uiso   1.00
C246   C     0.35140   0.84062   0.12653   0.00000  Uiso   1.00
C247   C     0.30858   0.81624   0.11416   0.00000  Uiso   1.00
C248   C     0.44196   0.93969   0.09161   0.00000  Uiso   1.00
C249   C     0.46166   0.97732   0.11396   0.00000  Uiso   1.00
C250   C     0.46926   0.01546   0.09584   0.00000  Uiso   1.00
C251   C     0.45321   0.87888   0.07731   0.00000  Uiso   1.00
C252   C     0.48237   0.86540   0.08764   0.00000  Uiso   1.00
C253   C     0.49946   0.85235   0.05748   0.00000  Uiso   1.00
H254   H     0.40004   0.89564   0.00322   0.00000  Uiso   1.00
H255   H     0.31856   0.84188   0.01673   0.00000  Uiso   1.00
H256   H     0.42881   0.97856   0.00416   0.00000  Uiso   1.00
H257   H     0.44952   0.86665   0.97784   0.00000  Uiso   1.00
H258   H     0.23337   0.78209   0.04893   0.00000  Uiso   1.00
H259   H     0.13251   0.40362   0.35577   0.00000  Uiso   1.00
H260   H     0.50952   0.83430   0.96693   0.00000  Uiso   1.00
H261   H     0.43976   0.89414   0.13596   0.00000  Uiso   1.00
H262   H     0.36045   0.84029   0.15676   0.00000  Uiso   1.00
H263   H     0.47070   0.97697   0.14419   0.00000  Uiso   1.00
H264   H     0.49141   0.86506   0.11787   0.00000  Uiso   1.00
H265   H     0.26737   0.78080   0.16259   0.00000  Uiso   1.00
H266   H     0.49985   0.06900   0.13608   0.00000  Uiso   1.00
H267   H     0.54352   0.83301   0.08058   0.00000  Uiso   1.00
O268   O     0.19748   0.74606   0.11705   0.00000  Uiso   1.00
O269   O     0.16915   0.45750   0.41561   0.00000  Uiso   1.00
O270   O     0.55978   0.81455   0.00946   0.00000  Uiso   1.00
N271   N     0.25226   0.78917   0.07283   0.00000  Uiso   1.00
N272   N     0.13627   0.39195   0.38139   0.00000  Uiso   1.00
N273   N     0.51044   0.83800   0.99616   0.00000  Uiso   1.00
N274   N     0.27055   0.78847   0.13398   0.00000  Uiso   1.00
N275   N     0.48790   0.05792   0.10921   0.00000  Uiso   1.00
N276   N     0.52874   0.83731   0.05732   0.00000  Uiso   1.00
C277   C     0.77137   0.84718   0.36697   0.00000  Uiso   1.00
C278   C     0.80080   0.83784   0.39271   0.00000  Uiso   1.00
C279   C     0.82514   0.81940   0.38029   0.00000  Uiso   1.00
C280   C     0.84998   0.81351   0.40836   0.00000  Uiso   1.00
C281   C     0.89558   0.79715   0.44239   0.00000  Uiso   1.00
C282   C     0.72653   0.82347   0.38589   0.00000  Uiso   1.00
C283   C     0.68844   0.79296   0.36773   0.00000  Uiso   1.00
C284   C     0.65077   0.77498   0.39004   0.00000  Uiso   1.00
C285   C     0.24774   0.06966   0.74681   0.00000  Uiso   1.00
C286   C     0.78734   0.89553   0.37159   0.00000  Uiso   1.00
C287   C     0.80037   0.92560   0.34140   0.00000  Uiso   1.00
C288   C     0.81388   0.96829   0.35168   0.00000  Uiso   1.00
C289   C     0.83859   0.04152   0.35290   0.00000  Uiso   1.00
C290   C     0.77219   0.86951   0.43888   0.00000  Uiso   1.00
C291   C     0.80124   0.84997   0.43177   0.00000  Uiso   1.00
C292   C     0.82604   0.84411   0.45986   0.00000  Uiso   1.00
C293   C     0.85043   0.82567   0.44749   0.00000  Uiso   1.00
C294   C     0.72697   0.83560   0.42495   0.00000  Uiso   1.00
C295   C     0.68934   0.81767   0.44729   0.00000  Uiso   1.00
C296   C     0.65121   0.78713   0.42918   0.00000  Uiso   1.00
C297   C     0.78778   0.90766   0.41065   0.00000  Uiso   1.00
C298   C     0.80127   0.95031   0.42097   0.00000  Uiso   1.00
C299   C     0.81432   0.98044   0.39081   0.00000  Uiso   1.00
H300   H     0.77102   0.83773   0.33655   0.00000  Uiso   1.00
H301   H     0.82479   0.81002   0.35006   0.00000  Uiso   1.00
H302   H     0.68811   0.78358   0.33750   0.00000  Uiso   1.00
H303   H     0.80002   0.91620   0.31118   0.00000  Uiso   1.00
H304   H     0.88458   0.78462   0.38227   0.00000  Uiso   1.00
H305   H     0.26305   0.06222   0.68910   0.00000  Uiso   1.00
H306   H     0.83237   0.00855   0.30027   0.00000  Uiso   1.00
H307   H     0.77253   0.87896   0.46930   0.00000  Uiso   1.00
H308   H     0.82638   0.85350   0.49009   0.00000  Uiso   1.00
H309   H     0.68970   0.82706   0.47752   0.00000  Uiso   1.00
H310   H     0.80161   0.95969   0.45120   0.00000  Uiso   1.00
H311   H     0.88587   0.81991   0.49592   0.00000  Uiso   1.00
H312   H     0.59767   0.76418   0.46942   0.00000  Uiso   1.00
H313   H     0.83365   0.04384   0.41392   0.00000  Uiso   1.00
O314   O     0.92061   0.78476   0.45038   0.00000  Uiso   1.00
O315   O     0.20917   0.04499   0.74894   0.00000  Uiso   1.00
O316   O     0.85211   0.07856   0.34279   0.00000  Uiso   1.00
N317   N     0.87750   0.79643   0.40616   0.00000  Uiso   1.00
N318   N     0.27472   0.07765   0.71472   0.00000  Uiso   1.00
N319   N     0.82867   0.00577   0.32950   0.00000  Uiso   1.00
N320   N     0.87820   0.81542   0.46731   0.00000  Uiso   1.00
N321   N     0.60875   0.76331   0.44254   0.00000  Uiso   1.00
N322   N     0.82936   0.02477   0.39065   0.00000  Uiso   1.00
C323   C     0.43804   0.18051   0.70030   0.00000  Uiso   1.00
C324   C     0.46746   0.17117   0.72604   0.00000  Uiso   1.00
C325   C     0.49181   0.15274   0.71363   0.00000  Uiso   1.00
C326   C     0.51665   0.14685   0.74169   0.00000  Uiso   1.00
C327   C     0.56225   0.13048   0.77573   0.00000  Uiso   1.00
C328   C     0.39320   0.15680   0.71922   0.00000  Uiso   1.00
C329   C     0.35511   0.12629   0.70106   0.00000  Uiso   1.00
C330   C     0.31743   0.10832   0.72338   0.00000  Uiso   1.00
C331   C     0.91440   0.40300   0.08014   0.00000  Uiso   1.00
C332   C     0.45401   0.22886   0.70492   0.00000  Uiso   1.00
C333   C     0.46703   0.25894   0.67473   0.00000  Uiso   1.00
C334   C     0.48054   0.30163   0.68501   0.00000  Uiso   1.00
C335   C     0.50526   0.37485   0.68624   0.00000  Uiso   1.00
C336   C     0.43885   0.20285   0.77222   0.00000  Uiso   1.00
C337   C     0.46790   0.18330   0.76511   0.00000  Uiso   1.00
C338   C     0.49271   0.17744   0.79320   0.00000  Uiso   1.00
C339   C     0.51709   0.15900   0.78082   0.00000  Uiso   1.00
C340   C     0.39364   0.16893   0.75828   0.00000  Uiso   1.00
C341   C     0.35601   0.15100   0.78063   0.00000  Uiso   1.00
C342   C     0.31787   0.12047   0.76251   0.00000  Uiso   1.00
C343   C     0.45445   0.24099   0.74398   0.00000  Uiso   1.00
C344   C     0.46794   0.28364   0.75430   0.00000  Uiso   1.00
C345   C     0.48099   0.31378   0.72414   0.00000  Uiso   1.00
H346   H     0.43769   0.17107   0.66989   0.00000  Uiso   1.00
H347   H     0.49146   0.14335   0.68340   0.00000  Uiso   1.00
H348   H     0.35478   0.11692   0.67083   0.00000  Uiso   1.00
H349   H     0.46669   0.24954   0.64451   0.00000  Uiso   1.00
H350   H     0.55125   0.11795   0.71560   0.00000  Uiso   1.00
H351   H     0.92972   0.39556   0.02244   0.00000  Uiso   1.00
H352   H     0.49903   0.34188   0.63360   0.00000  Uiso   1.00
H353   H     0.43920   0.21229   0.80263   0.00000  Uiso   1.00
H354   H     0.49305   0.18683   0.82342   0.00000  Uiso   1.00
H355   H     0.35636   0.16040   0.81086   0.00000  Uiso   1.00
H356   H     0.46828   0.29302   0.78454   0.00000  Uiso   1.00
H357   H     0.55254   0.15324   0.82925   0.00000  Uiso   1.00
H358   H     0.26434   0.09752   0.80275   0.00000  Uiso   1.00
H359   H     0.50032   0.37718   0.74725   0.00000  Uiso   1.00
O360   O     0.58728   0.11809   0.78371   0.00000  Uiso   1.00
O361   O     0.87584   0.37832   0.08228   0.00000  Uiso   1.00
O362   O     0.51878   0.41189   0.67613   0.00000  Uiso   1.00
N363   N     0.54417   0.12976   0.73949   0.00000  Uiso   1.00
N364   N     0.94139   0.41099   0.04805   0.00000  Uiso   1.00
N365   N     0.49533   0.33911   0.66283   0.00000  Uiso   1.00
N366   N     0.54486   0.14875   0.80065   0.00000  Uiso   1.00
N367   N     0.27541   0.09664   0.77587   0.00000  Uiso   1.00
N368   N     0.49603   0.35810   0.72398   0.00000  Uiso   1.00
C369   C     0.10471   0.51385   0.03363   0.00000  Uiso   1.00
C370   C     0.13413   0.50451   0.05938   0.00000  Uiso   1.00
C371   C     0.15848   0.48607   0.04696   0.00000  Uiso   1.00
C372   C     0.18331   0.48018   0.07502   0.00000  Uiso   1.00
C373   C     0.22892   0.46381   0.10906   0.00000  Uiso   1.00
C374   C     0.05987   0.49014   0.05255   0.00000  Uiso   1.00
C375   C     0.02178   0.45963   0.03439   0.00000  Uiso   1.00
C376   C     0.98410   0.44165   0.05671   0.00000  Uiso   1.00
C377   C     0.58107   0.73633   0.41348   0.00000  Uiso   1.00
C378   C     0.12067   0.56220   0.03825   0.00000  Uiso   1.00
C379   C     0.13370   0.59227   0.00807   0.00000  Uiso   1.00
C380   C     0.14721   0.63496   0.01834   0.00000  Uiso   1.00
C381   C     0.17193   0.70819   0.01957   0.00000  Uiso   1.00
C382   C     0.10552   0.53618   0.10555   0.00000  Uiso   1.00
C383   C     0.13457   0.51664   0.09844   0.00000  Uiso   1.00
C384   C     0.15938   0.51078   0.12653   0.00000  Uiso   1.00
C385   C     0.18376   0.49234   0.11416   0.00000  Uiso   1.00
C386   C     0.06031   0.50227   0.09161   0.00000  Uiso   1.00
C387   C     0.02268   0.48433   0.11396   0.00000  Uiso   1.00
C388   C     0.98454   0.45380   0.09584   0.00000  Uiso   1.00
C389   C     0.12112   0.57433   0.07731   0.00000  Uiso   1.00
C390   C     0.13460   0.61698   0.08764   0.00000  Uiso   1.00
C391   C     0.14765   0.64711   0.05748   0.00000  Uiso   1.00
H392   H     0.10436   0.50440   0.00322   0.00000  Uiso   1.00
H393   H     0.15812   0.47668   0.01673   0.00000  Uiso   1.00
H394   H     0.02144   0.45025   0.00416   0.00000  Uiso   1.00
H395   H     0.13335   0.58287   0.97784   0.00000  Uiso   1.00
H396   H     0.21791   0.45129   0.04893   0.00000  Uiso   1.00
H397   H     0.59638   0.72889   0.35577   0.00000  Uiso   1.00
H398   H     0.16570   0.67522   0.96693   0.00000  Uiso   1.00
H399   H     0.10586   0.54562   0.13596   0.00000  Uiso   1.00
H400   H     0.15971   0.52017   0.15676   0.00000  Uiso   1.00
H401   H     0.02303   0.49373   0.14419   0.00000  Uiso   1.00
H402   H     0.13494   0.62635   0.11787   0.00000  Uiso   1.00
H403   H     0.21920   0.48658   0.16259   0.00000  Uiso   1.00
H404   H     0.93100   0.43085   0.13608   0.00000  Uiso   1.00
H405   H     0.16699   0.71051   0.08058   0.00000  Uiso   1.00
O406   O     0.25394   0.45143   0.11705   0.00000  Uiso   1.00
O407   O     0.54250   0.71166   0.41561   0.00000  Uiso   1.00
O408   O     0.18545   0.74523   0.00946   0.00000  Uiso   1.00
N409   N     0.21083   0.46309   0.07283   0.00000  Uiso   1.00
N410   N     0.60805   0.74432   0.38139   0.00000  Uiso   1.00
N411   N     0.16200   0.67244   0.99616   0.00000  Uiso   1.00
N412   N     0.21153   0.48208   0.13398   0.00000  Uiso   1.00
N413   N     0.94208   0.42998   0.10921   0.00000  Uiso   1.00
N414   N     0.16269   0.69143   0.05732   0.00000  Uiso   1.00
C415   C     0.92419   0.15282   0.13303   0.00000  Uiso   1.00
C416   C     0.96296   0.16216   0.10729   0.00000  Uiso   1.00
C417   C     0.00574   0.18060   0.11971   0.00000  Uiso   1.00
C418   C     0.03647   0.18649   0.09164   0.00000  Uiso   1.00
C419   C     0.09844   0.20285   0.05761   0.00000  Uiso   1.00
C420   C     0.90306   0.17653   0.11411   0.00000  Uiso   1.00
C421   C     0.89548   0.20704   0.13227   0.00000  Uiso   1.00
C422   C     0.87578   0.22502   0.10996   0.00000  Uiso   1.00
C423   C     0.17807   0.93034   0.75319   0.00000  Uiso   1.00
C424   C     0.89181   0.10447   0.12841   0.00000  Uiso   1.00
C425   C     0.87477   0.07440   0.15860   0.00000  Uiso   1.00
C426   C     0.84559   0.03171   0.14832   0.00000  Uiso   1.00
C427   C     0.79708   0.95848   0.14710   0.00000  Uiso   1.00
C428   C     0.90267   0.13049   0.06112   0.00000  Uiso   1.00
C429   C     0.95127   0.15003   0.06823   0.00000  Uiso   1.00
C430   C     0.98193   0.15589   0.04014   0.00000  Uiso   1.00
C431   C     0.02476   0.17433   0.05251   0.00000  Uiso   1.00
C432   C     0.89137   0.16440   0.07505   0.00000  Uiso   1.00
C433   C     0.87168   0.18233   0.05271   0.00000  Uiso   1.00
C434   C     0.86407   0.21287   0.07082   0.00000  Uiso   1.00
C435   C     0.88012   0.09234   0.08935   0.00000  Uiso   1.00
C436   C     0.85096   0.04969   0.07903   0.00000  Uiso   1.00
C437   C     0.83388   0.01956   0.10919   0.00000  Uiso   1.00
H438   H     0.93329   0.16227   0.16345   0.00000  Uiso   1.00
H439   H     0.01477   0.18998   0.14994   0.00000  Uiso   1.00
H440   H     0.90453   0.21642   0.16250   0.00000  Uiso   1.00
H441   H     0.88382   0.08380   0.18882   0.00000  Uiso   1.00
H442   H     0.09996   0.21538   0.11773   0.00000  Uiso   1.00
H443   H     0.20082   0.93778   0.81090   0.00000  Uiso   1.00
H444   H     0.82382   0.99145   0.19973   0.00000  Uiso   1.00
H445   H     0.89357   0.12104   0.03070   0.00000  Uiso   1.00
H446   H     0.97288   0.14650   0.00991   0.00000  Uiso   1.00
H447   H     0.86263   0.17294   0.02248   0.00000  Uiso   1.00
H448   H     0.84192   0.04031   0.04880   0.00000  Uiso   1.00
H449   H     0.06596   0.18009   0.00408   0.00000  Uiso   1.00
H450   H     0.83349   0.23582   0.03058   0.00000  Uiso   1.00
H451   H     0.78981   0.95616   0.08608   0.00000  Uiso   1.00
O452   O     0.13585   0.21524   0.04962   0.00000  Uiso   1.00
O453   O     0.16418   0.95501   0.75106   0.00000  Uiso   1.00
O454   O     0.77355   0.92144   0.15721   0.00000  Uiso   1.00
N455   N     0.08108   0.20357   0.09384   0.00000  Uiso   1.00
N456   N     0.19707   0.92235   0.78528   0.00000  Uiso   1.00
N457   N     0.82289   0.99423   0.17050   0.00000  Uiso   1.00
N458   N     0.06278   0.18458   0.03269   0.00000  Uiso   1.00
N459   N     0.84544   0.23669   0.05746   0.00000  Uiso   1.00
N460   N     0.80460   0.97523   0.10935   0.00000  Uiso   1.00
C461   C     0.59086   0.48615   0.46637   0.00000  Uiso   1.00
C462   C     0.62962   0.49549   0.44062   0.00000  Uiso   1.00
C463   C     0.67241   0.51393   0.45304   0.00000  Uiso   1.00
C464   C     0.70313   0.51982   0.42498   0.00000  Uiso   1.00
C465   C     0.76510   0.53619   0.39094   0.00000  Uiso   1.00
C466   C     0.56973   0.50986   0.44745   0.00000  Uiso   1.00
C467   C     0.56215   0.54037   0.46561   0.00000  Uiso   1.00
C468   C     0.54245   0.55835   0.44329   0.00000  Uiso   1.00
C469   C     0.84474   0.26367   0.08652   0.00000  Uiso   1.00
C470   C     0.55848   0.43780   0.46175   0.00000  Uiso   1.00
C471   C     0.54143   0.40773   0.49193   0.00000  Uiso   1.00
C472   C     0.51225   0.36504   0.48166   0.00000  Uiso   1.00
C473   C     0.46374   0.29181   0.48043   0.00000  Uiso   1.00
C474   C     0.56934   0.46382   0.39445   0.00000  Uiso   1.00
C475   C     0.61793   0.48336   0.40156   0.00000  Uiso   1.00
C476   C     0.64860   0.48922   0.37347   0.00000  Uiso   1.00
C477   C     0.69142   0.50766   0.38584   0.00000  Uiso   1.00
C478   C     0.55804   0.49773   0.40839   0.00000  Uiso   1.00
C479   C     0.53834   0.51567   0.38604   0.00000  Uiso   1.00
C480   C     0.53074   0.54620   0.40416   0.00000  Uiso   1.00
C481   C     0.54679   0.42567   0.42269   0.00000  Uiso   1.00
C482   C     0.51763   0.38302   0.41236   0.00000  Uiso   1.00
C483   C     0.50054   0.35289   0.44252   0.00000  Uiso   1.00
H484   H     0.59996   0.49560   0.49678   0.00000  Uiso   1.00
H485   H     0.68144   0.52332   0.48327   0.00000  Uiso   1.00
H486   H     0.57119   0.54975   0.49584   0.00000  Uiso   1.00
H487   H     0.55048   0.41713   0.52216   0.00000  Uiso   1.00
H488   H     0.76663   0.54871   0.45107   0.00000  Uiso   1.00
H489   H     0.86749   0.27111   0.14423   0.00000  Uiso   1.00
H490   H     0.49048   0.32478   0.53307   0.00000  Uiso   1.00
H491   H     0.56024   0.45438   0.36404   0.00000  Uiso   1.00
H492   H     0.63955   0.47983   0.34324   0.00000  Uiso   1.00
H493   H     0.52930   0.50627   0.35581   0.00000  Uiso   1.00
H494   H     0.50859   0.37365   0.38213   0.00000  Uiso   1.00
H495   H     0.73263   0.51342   0.33741   0.00000  Uiso   1.00
H496   H     0.50015   0.56915   0.36392   0.00000  Uiso   1.00
H497   H     0.45648   0.28949   0.41942   0.00000  Uiso   1.00
O498   O     0.80252   0.54857   0.38295   0.00000  Uiso   1.00
O499   O     0.83085   0.28834   0.08439   0.00000  Uiso   1.00
O500   O     0.44022   0.25477   0.49054   0.00000  Uiso   1.00
N501   N     0.74774   0.53691   0.42717   0.00000  Uiso   1.00
N502   N     0.86373   0.25568   0.11861   0.00000  Uiso   1.00
N503   N     0.48956   0.32756   0.50384   0.00000  Uiso   1.00
N504   N     0.72945   0.51792   0.36602   0.00000  Uiso   1.00
N505   N     0.51210   0.57002   0.39079   0.00000  Uiso   1.00
N506   N     0.47126   0.30857   0.44268   0.00000  Uiso   1.00
C507   C     0.25753   0.81949   0.79970   0.00000  Uiso   1.00
C508   C     0.29629   0.82883   0.77396   0.00000  Uiso   1.00
C509   C     0.33907   0.84726   0.78637   0.00000  Uiso   1.00
C510   C     0.36980   0.85315   0.75831   0.00000  Uiso   1.00
C511   C     0.43177   0.86952   0.72427   0.00000  Uiso   1.00
C512   C     0.23639   0.84320   0.78078   0.00000  Uiso   1.00
C513   C     0.22882   0.87371   0.79894   0.00000  Uiso   1.00
C514   C     0.20912   0.89168   0.77662   0.00000  Uiso   1.00
C515   C     0.51141   0.59700   0.41986   0.00000  Uiso   1.00
C516   C     0.22515   0.77114   0.79508   0.00000  Uiso   1.00
C517   C     0.20810   0.74106   0.82527   0.00000  Uiso   1.00
C518   C     0.17892   0.69837   0.81499   0.00000  Uiso   1.00
C519   C     0.13041   0.62515   0.81376   0.00000  Uiso   1.00
C520   C     0.23601   0.79715   0.72778   0.00000  Uiso   1.00
C521   C     0.28460   0.81670   0.73489   0.00000  Uiso   1.00
C522   C     0.31527   0.82256   0.70680   0.00000  Uiso   1.00
C523   C     0.35809   0.84100   0.71918   0.00000  Uiso   1.00
C524   C     0.22471   0.83107   0.74172   0.00000  Uiso   1.00
C525   C     0.20501   0.84900   0.71937   0.00000  Uiso   1.00
C526   C     0.19741   0.87953   0.73749   0.00000  Uiso   1.00
C527   C     0.21346   0.75901   0.75602   0.00000  Uiso   1.00
C528   C     0.18429   0.71636   0.74570   0.00000  Uiso   1.00
C529   C     0.16721   0.68622   0.77586   0.00000  Uiso   1.00
H530   H     0.26662   0.82893   0.83011   0.00000  Uiso   1.00
H531   H     0.34811   0.85665   0.81660   0.00000  Uiso   1.00
H532   H     0.23786   0.88308   0.82917   0.00000  Uiso   1.00
H533   H     0.21715   0.75046   0.85549   0.00000  Uiso   1.00
H534   H     0.43330   0.88205   0.78440   0.00000  Uiso   1.00
H535   H     0.53416   0.60444   0.47756   0.00000  Uiso   1.00
H536   H     0.15715   0.65812   0.86640   0.00000  Uiso   1.00
H537   H     0.22691   0.78771   0.69737   0.00000  Uiso   1.00
H538   H     0.30621   0.81317   0.67658   0.00000  Uiso   1.00
H539   H     0.19597   0.83960   0.68914   0.00000  Uiso   1.00
H540   H     0.17526   0.70698   0.71546   0.00000  Uiso   1.00
H541   H     0.39929   0.84676   0.67075   0.00000  Uiso   1.00
H542   H     0.16682   0.90248   0.69725   0.00000  Uiso   1.00
H543   H     0.12315   0.62282   0.75275   0.00000  Uiso   1.00
O544   O     0.46918   0.88191   0.71629   0.00000  Uiso   1.00
O545   O     0.49752   0.62168   0.41772   0.00000  Uiso   1.00
O546   O     0.10688   0.58811   0.82387   0.00000  Uiso   1.00
N547   N     0.41441   0.87024   0.76051   0.00000  Uiso   1.00
N548   N     0.53040   0.58901   0.45195   0.00000  Uiso   1.00
N549   N     0.15623   0.66089   0.83717   0.00000  Uiso   1.00
N550   N     0.39611   0.85125   0.69935   0.00000  Uiso   1.00
N551   N     0.17877   0.90336   0.72413   0.00000  Uiso   1.00
N552   N     0.13793   0.64190   0.77602   0.00000  Uiso   1.00
C553   C     0.22863   0.07581   0.13303   0.00000  Uiso   1.00
C554   C     0.19920   0.03704   0.10729   0.00000  Uiso   1.00
C555   C     0.17486   0.99426   0.11971   0.00000  Uiso   1.00
C556   C     0.15002   0.96353   0.09164   0.00000  Uiso   1.00
C557   C     0.10442   0.90156   0.05761   0.00000  Uiso   1.00
C558   C     0.27347   0.09694   0.11411   0.00000  Uiso   1.00
C559   C     0.31156   0.10452   0.13227   0.00000  Uiso   1.00
C560   C     0.34923   0.12422   0.10996   0.00000  Uiso   1.00
C561   C     0.75226   0.82193   0.75319   0.00000  Uiso   1.00
C562   C     0.21266   0.10819   0.12841   0.00000  Uiso   1.00
C563   C     0.19963   0.12523   0.15860   0.00000  Uiso   1.00
C564   C     0.18612   0.15441   0.14832   0.00000  Uiso   1.00
C565   C     0.16141   0.20292   0.14710   0.00000  Uiso   1.00
C566   C     0.22781   0.09733   0.06112   0.00000  Uiso   1.00
C567   C     0.19876   0.04873   0.06823   0.00000  Uiso   1.00
C568   C     0.17396   0.01807   0.04014   0.00000  Uiso   1.00
C569   C     0.14957   0.97524   0.05251   0.00000  Uiso   1.00
C570   C     0.27303   0.10863   0.07505   0.00000  Uiso   1.00
C571   C     0.31066   0.12832   0.05271   0.00000  Uiso   1.00
C572   C     0.34879   0.13593   0.07082   0.00000  Uiso   1.00
C573   C     0.21222   0.11988   0.08935   0.00000  Uiso   1.00
C574   C     0.19873   0.14904   0.07903   0.00000  Uiso   1.00
C575   C     0.18568   0.16612   0.10919   0.00000  Uiso   1.00
H576   H     0.22898   0.06671   0.16345   0.00000  Uiso   1.00
H577   H     0.17521   0.98523   0.14994   0.00000  Uiso   1.00
H578   H     0.31189   0.09547   0.16250   0.00000  Uiso   1.00
H579   H     0.19998   0.11618   0.18882   0.00000  Uiso   1.00
H580   H     0.11542   0.90004   0.11773   0.00000  Uiso   1.00
H581   H     0.73695   0.79918   0.81090   0.00000  Uiso   1.00
H582   H     0.16763   0.17618   0.19973   0.00000  Uiso   1.00
H583   H     0.22747   0.10643   0.03070   0.00000  Uiso   1.00
H584   H     0.17362   0.02712   0.00991   0.00000  Uiso   1.00
H585   H     0.31030   0.13737   0.02248   0.00000  Uiso   1.00
H586   H     0.19839   0.15808   0.04880   0.00000  Uiso   1.00
H587   H     0.11413   0.93404   0.00408   0.00000  Uiso   1.00
H588   H     0.40233   0.16651   0.03058   0.00000  Uiso   1.00
H589   H     0.16635   0.21019   0.08608   0.00000  Uiso   1.00
O590   O     0.07939   0.86415   0.04962   0.00000  Uiso   1.00
O591   O     0.79083   0.83582   0.75106   0.00000  Uiso   1.00
O592   O     0.14789   0.22645   0.15721   0.00000  Uiso   1.00
N593   N     0.12250   0.91892   0.09384   0.00000  Uiso   1.00
N594   N     0.72528   0.80293   0.78528   0.00000  Uiso   1.00
N595   N     0.17133   0.17711   0.17050   0.00000  Uiso   1.00
N596   N     0.12180   0.93722   0.03269   0.00000  Uiso   1.00
N597   N     0.39125   0.15456   0.05746   0.00000  Uiso   1.00
N598   N     0.17064   0.19540   0.10935   0.00000  Uiso   1.00
C599   C     0.89529   0.40914   0.46637   0.00000  Uiso   1.00
C600   C     0.86587   0.37038   0.44062   0.00000  Uiso   1.00
C601   C     0.84152   0.32759   0.45304   0.00000  Uiso   1.00
C602   C     0.81669   0.29687   0.42498   0.00000  Uiso   1.00
C603   C     0.77108   0.23490   0.39094   0.00000  Uiso   1.00
C604   C     0.94013   0.43027   0.44745   0.00000  Uiso   1.00
C605   C     0.97822   0.43785   0.46561   0.00000  Uiso   1.00
C606   C     0.01590   0.45755   0.44329   0.00000  Uiso   1.00
C607   C     0.41893   0.15526   0.08652   0.00000  Uiso   1.00
C608   C     0.87933   0.44152   0.46175   0.00000  Uiso   1.00
C609   C     0.86630   0.45857   0.49193   0.00000  Uiso   1.00
C610   C     0.85279   0.48775   0.48166   0.00000  Uiso   1.00
C611   C     0.82807   0.53626   0.48043   0.00000  Uiso   1.00
C612   C     0.89448   0.43066   0.39445   0.00000  Uiso   1.00
C613   C     0.86543   0.38207   0.40156   0.00000  Uiso   1.00
C614   C     0.84062   0.35140   0.37347   0.00000  Uiso   1.00
C615   C     0.81624   0.30858   0.38584   0.00000  Uiso   1.00
C616   C     0.93969   0.44196   0.40839   0.00000  Uiso   1.00
C617   C     0.97732   0.46166   0.38604   0.00000  Uiso   1.00
C618   C     0.01546   0.46926   0.40416   0.00000  Uiso   1.00
C619   C     0.87888   0.45321   0.42269   0.00000  Uiso   1.00
C620   C     0.86540   0.48237   0.41236   0.00000  Uiso   1.00
C621   C     0.85235   0.49946   0.44252   0.00000  Uiso   1.00
H622   H     0.89564   0.40004   0.49678   0.00000  Uiso   1.00
H623   H     0.84188   0.31856   0.48327   0.00000  Uiso   1.00
H624   H     0.97856   0.42881   0.49584   0.00000  Uiso   1.00
H625   H     0.86665   0.44952   0.52216   0.00000  Uiso   1.00
H626   H     0.78209   0.23337   0.45107   0.00000  Uiso   1.00
H627   H     0.40362   0.13251   0.14423   0.00000  Uiso   1.00
H628   H     0.83430   0.50952   0.53307   0.00000  Uiso   1.00
H629   H     0.89414   0.43976   0.36404   0.00000  Uiso   1.00
H630   H     0.84029   0.36045   0.34324   0.00000  Uiso   1.00
H631   H     0.97697   0.47070   0.35581   0.00000  Uiso   1.00
H632   H     0.86506   0.49141   0.38213   0.00000  Uiso   1.00
H633   H     0.78080   0.26737   0.33741   0.00000  Uiso   1.00
H634   H     0.06900   0.49985   0.36392   0.00000  Uiso   1.00
H635   H     0.83301   0.54352   0.41942   0.00000  Uiso   1.00
O636   O     0.74606   0.19748   0.38295   0.00000  Uiso   1.00
O637   O     0.45750   0.16915   0.08439   0.00000  Uiso   1.00
O638   O     0.81455   0.55978   0.49054   0.00000  Uiso   1.00
N639   N     0.78917   0.25226   0.42717   0.00000  Uiso   1.00
N640   N     0.39195   0.13627   0.11861   0.00000  Uiso   1.00
N641   N     0.83800   0.51044   0.50384   0.00000  Uiso   1.00
N642   N     0.78847   0.27055   0.36602   0.00000  Uiso   1.00
N643   N     0.05792   0.48790   0.39079   0.00000  Uiso   1.00
N644   N     0.83731   0.52874   0.44268   0.00000  Uiso   1.00
C645   C     0.56196   0.74247   0.79970   0.00000  Uiso   1.00
C646   C     0.53254   0.70371   0.77396   0.00000  Uiso   1.00
C647   C     0.50819   0.66093   0.78637   0.00000  Uiso   1.00
C648   C     0.48335   0.63020   0.75831   0.00000  Uiso   1.00
C649   C     0.43775   0.56823   0.72427   0.00000  Uiso   1.00
C650   C     0.60680   0.76361   0.78078   0.00000  Uiso   1.00
C651   C     0.64489   0.77118   0.79894   0.00000  Uiso   1.00
C652   C     0.68257   0.79088   0.77662   0.00000  Uiso   1.00
C653   C     0.08560   0.48859   0.41986   0.00000  Uiso   1.00
C654   C     0.54599   0.77485   0.79508   0.00000  Uiso   1.00
C655   C     0.53297   0.79190   0.82527   0.00000  Uiso   1.00
C656   C     0.51946   0.82108   0.81499   0.00000  Uiso   1.00
C657   C     0.49474   0.86959   0.81376   0.00000  Uiso   1.00
C658   C     0.56115   0.76399   0.72778   0.00000  Uiso   1.00
C659   C     0.53210   0.71540   0.73489   0.00000  Uiso   1.00
C660   C     0.50729   0.68473   0.70680   0.00000  Uiso   1.00
C661   C     0.48291   0.64191   0.71918   0.00000  Uiso   1.00
C662   C     0.60636   0.77529   0.74172   0.00000  Uiso   1.00
C663   C     0.64399   0.79499   0.71937   0.00000  Uiso   1.00
C664   C     0.68213   0.80259   0.73749   0.00000  Uiso   1.00
C665   C     0.54555   0.78654   0.75602   0.00000  Uiso   1.00
C666   C     0.53206   0.81571   0.74570   0.00000  Uiso   1.00
C667   C     0.51901   0.83279   0.77586   0.00000  Uiso   1.00
H668   H     0.56231   0.73338   0.83011   0.00000  Uiso   1.00
H669   H     0.50854   0.65189   0.81660   0.00000  Uiso   1.00
H670   H     0.64522   0.76214   0.82917   0.00000  Uiso   1.00
H671   H     0.53331   0.78285   0.85549   0.00000  Uiso   1.00
H672   H     0.44875   0.56670   0.78440   0.00000  Uiso   1.00
H673   H     0.07028   0.46584   0.47756   0.00000  Uiso   1.00
H674   H     0.50097   0.84285   0.86640   0.00000  Uiso   1.00
H675   H     0.56080   0.77309   0.69737   0.00000  Uiso   1.00
H676   H     0.50695   0.69379   0.67658   0.00000  Uiso   1.00
H677   H     0.64364   0.80403   0.68914   0.00000  Uiso   1.00
H678   H     0.53172   0.82474   0.71546   0.00000  Uiso   1.00
H679   H     0.44746   0.60071   0.67075   0.00000  Uiso   1.00
H680   H     0.73566   0.83318   0.69725   0.00000  Uiso   1.00
H681   H     0.49968   0.87685   0.75275   0.00000  Uiso   1.00
O682   O     0.41272   0.53082   0.71629   0.00000  Uiso   1.00
O683   O     0.12416   0.50248   0.41772   0.00000  Uiso   1.00
O684   O     0.48122   0.89312   0.82387   0.00000  Uiso   1.00
N685   N     0.45583   0.58559   0.76051   0.00000  Uiso   1.00
N686   N     0.05861   0.46960   0.45195   0.00000  Uiso   1.00
N687   N     0.50467   0.84377   0.83717   0.00000  Uiso   1.00
N688   N     0.45514   0.60389   0.69935   0.00000  Uiso   1.00
N689   N     0.72459   0.82123   0.72413   0.00000  Uiso   1.00
N690   N     0.50397   0.86207   0.77602   0.00000  Uiso   1.00
C691   C     0.84718   0.77137   0.13303   0.00000  Uiso   1.00
C692   C     0.83784   0.80080   0.10729   0.00000  Uiso   1.00
C693   C     0.81940   0.82514   0.11971   0.00000  Uiso   1.00
C694   C     0.81351   0.84998   0.09164   0.00000  Uiso   1.00
C695   C     0.79715   0.89558   0.05761   0.00000  Uiso   1.00
C696   C     0.82347   0.72653   0.11411   0.00000  Uiso   1.00
C697   C     0.79296   0.68844   0.13227   0.00000  Uiso   1.00
C698   C     0.77498   0.65077   0.10996   0.00000  Uiso   1.00
C699   C     0.06966   0.24774   0.75319   0.00000  Uiso   1.00
C700   C     0.89553   0.78734   0.12841   0.00000  Uiso   1.00
C701   C     0.92560   0.80037   0.15860   0.00000  Uiso   1.00
C702   C     0.96829   0.81388   0.14832   0.00000  Uiso   1.00
C703   C     0.04152   0.83859   0.14710   0.00000  Uiso   1.00
C704   C     0.86951   0.77219   0.06112   0.00000  Uiso   1.00
C705   C     0.84997   0.80124   0.06823   0.00000  Uiso   1.00
C706   C     0.84411   0.82604   0.04014   0.00000  Uiso   1.00
C707   C     0.82567   0.85043   0.05251   0.00000  Uiso   1.00
C708   C     0.83560   0.72697   0.07505   0.00000  Uiso   1.00
C709   C     0.81767   0.68934   0.05271   0.00000  Uiso   1.00
C710   C     0.78713   0.65121   0.07082   0.00000  Uiso   1.00
C711   C     0.90766   0.78778   0.08935   0.00000  Uiso   1.00
C712   C     0.95031   0.80127   0.07903   0.00000  Uiso   1.00
C713   C     0.98044   0.81432   0.10919   0.00000  Uiso   1.00
H714   H     0.83773   0.77102   0.16345   0.00000  Uiso   1.00
H715   H     0.81002   0.82479   0.14994   0.00000  Uiso   1.00
H716   H     0.78358   0.68811   0.16250   0.00000  Uiso   1.00
H717   H     0.91620   0.80002   0.18882   0.00000  Uiso   1.00
H718   H     0.78462   0.88458   0.11773   0.00000  Uiso   1.00
H719   H     0.06222   0.26305   0.81090   0.00000  Uiso   1.00
H720   H     0.00855   0.83237   0.19973   0.00000  Uiso   1.00
H721   H     0.87896   0.77253   0.03070   0.00000  Uiso   1.00
H722   H     0.85350   0.82638   0.00991   0.00000  Uiso   1.00
H723   H     0.82706   0.68970   0.02248   0.00000  Uiso   1.00
H724   H     0.95969   0.80161   0.04880   0.00000  Uiso   1.00
H725   H     0.81991   0.88587   0.00408   0.00000  Uiso   1.00
H726   H     0.76418   0.59767   0.03058   0.00000  Uiso   1.00
H727   H     0.04384   0.83365   0.08608   0.00000  Uiso   1.00
O728   O     0.78476   0.92061   0.04962   0.00000  Uiso   1.00
O729   O     0.04499   0.20917   0.75106   0.00000  Uiso   1.00
O730   O     0.07856   0.85211   0.15721   0.00000  Uiso   1.00
N731   N     0.79643   0.87750   0.09384   0.00000  Uiso   1.00
N732   N     0.07765   0.27472   0.78528   0.00000  Uiso   1.00
N733   N     0.00577   0.82867   0.17050   0.00000  Uiso   1.00
N734   N     0.81542   0.87820   0.03269   0.00000  Uiso   1.00
N735   N     0.76331   0.60875   0.05746   0.00000  Uiso   1.00
N736   N     0.02477   0.82936   0.10935   0.00000  Uiso   1.00
C737   C     0.51385   0.10471   0.46637   0.00000  Uiso   1.00
C738   C     0.50451   0.13413   0.44062   0.00000  Uiso   1.00
C739   C     0.48607   0.15848   0.45304   0.00000  Uiso   1.00
C740   C     0.48018   0.18331   0.42498   0.00000  Uiso   1.00
C741   C     0.46381   0.22892   0.39094   0.00000  Uiso   1.00
C742   C     0.49014   0.05987   0.44745   0.00000  Uiso   1.00
C743   C     0.45963   0.02178   0.46561   0.00000  Uiso   1.00
C744   C     0.44165   0.98410   0.44329   0.00000  Uiso   1.00
C745   C     0.73633   0.58107   0.08652   0.00000  Uiso   1.00
C746   C     0.56220   0.12067   0.46175   0.00000  Uiso   1.00
C747   C     0.59227   0.13370   0.49193   0.00000  Uiso   1.00
C748   C     0.63496   0.14721   0.48166   0.00000  Uiso   1.00
C749   C     0.70819   0.17193   0.48043   0.00000  Uiso   1.00
C750   C     0.53618   0.10552   0.39445   0.00000  Uiso   1.00
C751   C     0.51664   0.13457   0.40156   0.00000  Uiso   1.00
C752   C     0.51078   0.15938   0.37347   0.00000  Uiso   1.00
C753   C     0.49234   0.18376   0.38584   0.00000  Uiso   1.00
C754   C     0.50227   0.06031   0.40839   0.00000  Uiso   1.00
C755   C     0.48433   0.02268   0.38604   0.00000  Uiso   1.00
C756   C     0.45380   0.98454   0.40416   0.00000  Uiso   1.00
C757   C     0.57433   0.12112   0.42269   0.00000  Uiso   1.00
C758   C     0.61698   0.13460   0.41236   0.00000  Uiso   1.00
C759   C     0.64711   0.14765   0.44252   0.00000  Uiso   1.00
H760   H     0.50440   0.10436   0.49678   0.00000  Uiso   1.00
H761   H     0.47668   0.15812   0.48327   0.00000  Uiso   1.00
H762   H     0.45025   0.02144   0.49584   0.00000  Uiso   1.00
H763   H     0.58287   0.13335   0.52216   0.00000  Uiso   1.00
H764   H     0.45129   0.21791   0.45107   0.00000  Uiso   1.00
H765   H     0.72889   0.59638   0.14423   0.00000  Uiso   1.00
H766   H     0.67522   0.16570   0.53307   0.00000  Uiso   1.00
H767   H     0.54562   0.10586   0.36404   0.00000  Uiso   1.00
H768   H     0.52017   0.15971   0.34324   0.00000  Uiso   1.00
H769   H     0.49373   0.02303   0.35581   0.00000  Uiso   1.00
H770   H     0.62635   0.13494   0.38213   0.00000  Uiso   1.00
H771   H     0.48658   0.21920   0.33741   0.00000  Uiso   1.00
H772   H     0.43085   0.93100   0.36392   0.00000  Uiso   1.00
H773   H     0.71051   0.16699   0.41942   0.00000  Uiso   1.00
O774   O     0.45143   0.25394   0.38295   0.00000  Uiso   1.00
O775   O     0.71166   0.54250   0.08439   0.00000  Uiso   1.00
O776   O     0.74523   0.18545   0.49054   0.00000  Uiso   1.00
N777   N     0.46309   0.21083   0.42717   0.00000  Uiso   1.00
N778   N     0.74432   0.60805   0.11861   0.00000  Uiso   1.00
N779   N     0.67244   0.16200   0.50384   0.00000  Uiso   1.00
N780   N     0.48208   0.21153   0.36602   0.00000  Uiso   1.00
N781   N     0.42998   0.94208   0.39079   0.00000  Uiso   1.00
N782   N     0.69143   0.16269   0.44268   0.00000  Uiso   1.00
C783   C     0.18051   0.43804   0.79970   0.00000  Uiso   1.00
C784   C     0.17117   0.46746   0.77396   0.00000  Uiso   1.00
C785   C     0.15274   0.49181   0.78637   0.00000  Uiso   1.00
C786   C     0.14685   0.51665   0.75831   0.00000  Uiso   1.00
C787   C     0.13048   0.56225   0.72427   0.00000  Uiso   1.00
C788   C     0.15680   0.39320   0.78078   0.00000  Uiso   1.00
C789   C     0.12629   0.35511   0.79894   0.00000  Uiso   1.00
C790   C     0.10832   0.31743   0.77662   0.00000  Uiso   1.00
C791   C     0.40300   0.91440   0.41986   0.00000  Uiso   1.00
C792   C     0.22886   0.45401   0.79508   0.00000  Uiso   1.00
C793   C     0.25894   0.46703   0.82527   0.00000  Uiso   1.00
C794   C     0.30163   0.48054   0.81499   0.00000  Uiso   1.00
C795   C     0.37485   0.50526   0.81376   0.00000  Uiso   1.00
C796   C     0.20285   0.43885   0.72778   0.00000  Uiso   1.00
C797   C     0.18330   0.46790   0.73489   0.00000  Uiso   1.00
C798   C     0.17744   0.49271   0.70680   0.00000  Uiso   1.00
C799   C     0.15900   0.51709   0.71918   0.00000  Uiso   1.00
C800   C     0.16893   0.39364   0.74172   0.00000  Uiso   1.00
C801   C     0.15100   0.35601   0.71937   0.00000  Uiso   1.00
C802   C     0.12047   0.31787   0.73749   0.00000  Uiso   1.00
C803   C     0.24099   0.45445   0.75602   0.00000  Uiso   1.00
C804   C     0.28364   0.46794   0.74570   0.00000  Uiso   1.00
C805   C     0.31378   0.48099   0.77586   0.00000  Uiso   1.00
H806   H     0.17107   0.43769   0.83011   0.00000  Uiso   1.00
H807   H     0.14335   0.49146   0.81660   0.00000  Uiso   1.00
H808   H     0.11692   0.35478   0.82917   0.00000  Uiso   1.00
H809   H     0.24954   0.46669   0.85549   0.00000  Uiso   1.00
H810   H     0.11795   0.55125   0.78440   0.00000  Uiso   1.00
H811   H     0.39556   0.92972   0.47756   0.00000  Uiso   1.00
H812   H     0.34188   0.49903   0.86640   0.00000  Uiso   1.00
H813   H     0.21229   0.43920   0.69737   0.00000  Uiso   1.00
H814   H     0.18683   0.49305   0.67658   0.00000  Uiso   1.00
H815   H     0.16040   0.35636   0.68914   0.00000  Uiso   1.00
H816   H     0.29302   0.46828   0.71546   0.00000  Uiso   1.00
H817   H     0.15324   0.55254   0.67075   0.00000  Uiso   1.00
H818   H     0.09752   0.26434   0.69725   0.00000  Uiso   1.00
H819   H     0.37718   0.50032   0.75275   0.00000  Uiso   1.00
O820   O     0.11809   0.58728   0.71629   0.00000  Uiso   1.00
O821   O     0.37832   0.87584   0.41772   0.00000  Uiso   1.00
O822   O     0.41189   0.51878   0.82387   0.00000  Uiso   1.00
N823   N     0.12976   0.54417   0.76051   0.00000  Uiso   1.00
N824   N     0.41099   0.94139   0.45195   0.00000  Uiso   1.00
N825   N     0.33911   0.49533   0.83717   0.00000  Uiso   1.00
N826   N     0.14875   0.54486   0.69935   0.00000  Uiso   1.00
N827   N     0.09664   0.27541   0.72413   0.00000  Uiso   1.00
N828   N     0.35810   0.49603   0.77602   0.00000  Uiso   1.00
C829   C     0.84718   0.07581   0.63303   0.00000  Uiso   1.00
C830   C     0.83784   0.03704   0.60729   0.00000  Uiso   1.00
C831   C     0.81940   0.99426   0.61971   0.00000  Uiso   1.00
C832   C     0.81351   0.96353   0.59164   0.00000  Uiso   1.00
C833   C     0.79715   0.90156   0.55761   0.00000  Uiso   1.00
C834   C     0.82347   0.09694   0.61411   0.00000  Uiso   1.00
C835   C     0.79296   0.10452   0.63227   0.00000  Uiso   1.00
C836   C     0.77498   0.12422   0.60996   0.00000  Uiso   1.00
C837   C     0.06966   0.82193   0.25319   0.00000  Uiso   1.00
C838   C     0.89553   0.10819   0.62841   0.00000  Uiso   1.00
C839   C     0.92560   0.12523   0.65860   0.00000  Uiso   1.00
C840   C     0.96829   0.15441   0.64832   0.00000  Uiso   1.00
C841   C     0.04152   0.20292   0.64710   0.00000  Uiso   1.00
C842   C     0.86951   0.09733   0.56112   0.00000  Uiso   1.00
C843   C     0.84997   0.04873   0.56823   0.00000  Uiso   1.00
C844   C     0.84411   0.01807   0.54014   0.00000  Uiso   1.00
C845   C     0.82567   0.97524   0.55251   0.00000  Uiso   1.00
C846   C     0.83560   0.10863   0.57505   0.00000  Uiso   1.00
C847   C     0.81767   0.12832   0.55271   0.00000  Uiso   1.00
C848   C     0.78713   0.13593   0.57082   0.00000  Uiso   1.00
C849   C     0.90766   0.11988   0.58935   0.00000  Uiso   1.00
C850   C     0.95031   0.14904   0.57903   0.00000  Uiso   1.00
C851   C     0.98044   0.16612   0.60919   0.00000  Uiso   1.00
H852   H     0.83773   0.06671   0.66345   0.00000  Uiso   1.00
H853   H     0.81002   0.98523   0.64994   0.00000  Uiso   1.00
H854   H     0.78358   0.09547   0.66250   0.00000  Uiso   1.00
H855   H     0.91620   0.11618   0.68882   0.00000  Uiso   1.00
H856   H     0.78462   0.90004   0.61773   0.00000  Uiso   1.00
H857   H     0.06222   0.79918   0.31090   0.00000  Uiso   1.00
H858   H     0.00855   0.17618   0.69973   0.00000  Uiso   1.00
H859   H     0.87896   0.10643   0.53070   0.00000  Uiso   1.00
H860   H     0.85350   0.02712   0.50991   0.00000  Uiso   1.00
H861   H     0.82706   0.13737   0.52248   0.00000  Uiso   1.00
H862   H     0.95969   0.15808   0.54880   0.00000  Uiso   1.00
H863   H     0.81991   0.93404   0.50408   0.00000  Uiso   1.00
H864   H     0.76418   0.16651   0.53058   0.00000  Uiso   1.00
H865   H     0.04384   0.21019   0.58608   0.00000  Uiso   1.00
O866   O     0.78476   0.86415   0.54962   0.00000  Uiso   1.00
O867   O     0.04499   0.83582   0.25106   0.00000  Uiso   1.00
O868   O     0.07856   0.22645   0.65721   0.00000  Uiso   1.00
N869   N     0.79643   0.91892   0.59384   0.00000  Uiso   1.00
N870   N     0.07765   0.80293   0.28528   0.00000  Uiso   1.00
N871   N     0.00577   0.17711   0.67050   0.00000  Uiso   1.00
N872   N     0.81542   0.93722   0.53269   0.00000  Uiso   1.00
N873   N     0.76331   0.15456   0.55746   0.00000  Uiso   1.00
N874   N     0.02477   0.19540   0.60935   0.00000  Uiso   1.00
C875   C     0.51385   0.40914   0.96637   0.00000  Uiso   1.00
C876   C     0.50451   0.37038   0.94062   0.00000  Uiso   1.00
C877   C     0.48607   0.32759   0.95304   0.00000  Uiso   1.00
C878   C     0.48018   0.29687   0.92498   0.00000  Uiso   1.00
C879   C     0.46381   0.23490   0.89094   0.00000  Uiso   1.00
C880   C     0.49014   0.43027   0.94745   0.00000  Uiso   1.00
C881   C     0.45963   0.43785   0.96561   0.00000  Uiso   1.00
C882   C     0.44165   0.45755   0.94329   0.00000  Uiso   1.00
C883   C     0.73633   0.15526   0.58652   0.00000  Uiso   1.00
C884   C     0.56220   0.44152   0.96175   0.00000  Uiso   1.00
C885   C     0.59227   0.45857   0.99193   0.00000  Uiso   1.00
C886   C     0.63496   0.48775   0.98166   0.00000  Uiso   1.00
C887   C     0.70819   0.53626   0.98043   0.00000  Uiso   1.00
C888   C     0.53618   0.43066   0.89445   0.00000  Uiso   1.00
C889   C     0.51664   0.38207   0.90156   0.00000  Uiso   1.00
C890   C     0.51078   0.35140   0.87347   0.00000  Uiso   1.00
C891   C     0.49234   0.30858   0.88584   0.00000  Uiso   1.00
C892   C     0.50227   0.44196   0.90839   0.00000  Uiso   1.00
C893   C     0.48433   0.46166   0.88604   0.00000  Uiso   1.00
C894   C     0.45380   0.46926   0.90416   0.00000  Uiso   1.00
C895   C     0.57433   0.45321   0.92269   0.00000  Uiso   1.00
C896   C     0.61698   0.48237   0.91236   0.00000  Uiso   1.00
C897   C     0.64711   0.49946   0.94252   0.00000  Uiso   1.00
H898   H     0.50440   0.40004   0.99678   0.00000  Uiso   1.00
H899   H     0.47668   0.31856   0.98327   0.00000  Uiso   1.00
H900   H     0.45025   0.42881   0.99584   0.00000  Uiso   1.00
H901   H     0.58287   0.44952   0.02216   0.00000  Uiso   1.00
H902   H     0.45129   0.23337   0.95107   0.00000  Uiso   1.00
H903   H     0.72889   0.13251   0.64423   0.00000  Uiso   1.00
H904   H     0.67522   0.50952   0.03307   0.00000  Uiso   1.00
H905   H     0.54562   0.43976   0.86404   0.00000  Uiso   1.00
H906   H     0.52017   0.36045   0.84324   0.00000  Uiso   1.00
H907   H     0.49373   0.47070   0.85581   0.00000  Uiso   1.00
H908   H     0.62635   0.49141   0.88213   0.00000  Uiso   1.00
H909   H     0.48658   0.26737   0.83741   0.00000  Uiso   1.00
H910   H     0.43085   0.49985   0.86392   0.00000  Uiso   1.00
H911   H     0.71051   0.54352   0.91942   0.00000  Uiso   1.00
O912   O     0.45143   0.19748   0.88295   0.00000  Uiso   1.00
O913   O     0.71166   0.16915   0.58439   0.00000  Uiso   1.00
O914   O     0.74523   0.55978   0.99054   0.00000  Uiso   1.00
N915   N     0.46309   0.25226   0.92717   0.00000  Uiso   1.00
N916   N     0.74432   0.13627   0.61861   0.00000  Uiso   1.00
N917   N     0.67244   0.51044   0.00384   0.00000  Uiso   1.00
N918   N     0.48208   0.27055   0.86602   0.00000  Uiso   1.00
N919   N     0.42998   0.48790   0.89079   0.00000  Uiso   1.00
N920   N     0.69143   0.52874   0.94268   0.00000  Uiso   1.00
C921   C     0.18051   0.74247   0.29970   0.00000  Uiso   1.00
C922   C     0.17117   0.70371   0.27396   0.00000  Uiso   1.00
C923   C     0.15274   0.66093   0.28637   0.00000  Uiso   1.00
C924   C     0.14685   0.63020   0.25831   0.00000  Uiso   1.00
C925   C     0.13048   0.56823   0.22427   0.00000  Uiso   1.00
C926   C     0.15680   0.76361   0.28078   0.00000  Uiso   1.00
C927   C     0.12629   0.77118   0.29894   0.00000  Uiso   1.00
C928   C     0.10832   0.79088   0.27662   0.00000  Uiso   1.00
C929   C     0.40300   0.48859   0.91986   0.00000  Uiso   1.00
C930   C     0.22886   0.77485   0.29508   0.00000  Uiso   1.00
C931   C     0.25894   0.79190   0.32527   0.00000  Uiso   1.00
C932   C     0.30163   0.82108   0.31499   0.00000  Uiso   1.00
C933   C     0.37485   0.86959   0.31376   0.00000  Uiso   1.00
C934   C     0.20285   0.76399   0.22778   0.00000  Uiso   1.00
C935   C     0.18330   0.71540   0.23489   0.00000  Uiso   1.00
C936   C     0.17744   0.68473   0.20680   0.00000  Uiso   1.00
C937   C     0.15900   0.64191   0.21918   0.00000  Uiso   1.00
C938   C     0.16893   0.77529   0.24172   0.00000  Uiso   1.00
C939   C     0.15100   0.79499   0.21937   0.00000  Uiso   1.00
C940   C     0.12047   0.80259   0.23749   0.00000  Uiso   1.00
C941   C     0.24099   0.78654   0.25602   0.00000  Uiso   1.00
C942   C     0.28364   0.81571   0.24570   0.00000  Uiso   1.00
C943   C     0.31378   0.83279   0.27586   0.00000  Uiso   1.00
H944   H     0.17107   0.73338   0.33011   0.00000  Uiso   1.00
H945   H     0.14335   0.65189   0.31660   0.00000  Uiso   1.00
H946   H     0.11692   0.76214   0.32917   0.00000  Uiso   1.00
H947   H     0.24954   0.78285   0.35549   0.00000  Uiso   1.00
H948   H     0.11795   0.56670   0.28440   0.00000  Uiso   1.00
H949   H     0.39556   0.46584   0.97756   0.00000  Uiso   1.00
H950   H     0.34188   0.84285   0.36640   0.00000  Uiso   1.00
H951   H     0.21229   0.77309   0.19737   0.00000  Uiso   1.00
H952   H     0.18683   0.69379   0.17658   0.00000  Uiso   1.00
H953   H     0.16040   0.80403   0.18914   0.00000  Uiso   1.00
H954   H     0.29302   0.82474   0.21546   0.00000  Uiso   1.00
H955   H     0.15324   0.60071   0.17075   0.00000  Uiso   1.00
H956   H     0.09752   0.83318   0.19725   0.00000  Uiso   1.00
H957   H     0.37718   0.87685   0.25275   0.00000  Uiso   1.00
O958   O     0.11809   0.53082   0.21629   0.00000  Uiso   1.00
O959   O     0.37832   0.50248   0.91772   0.00000  Uiso   1.00
O960   O     0.41189   0.89312   0.32387   0.00000  Uiso   1.00
N961   N     0.12976   0.58559   0.26051   0.00000  Uiso   1.00
N962   N     0.41099   0.46960   0.95195   0.00000  Uiso   1.00
N963   N     0.33911   0.84377   0.33717   0.00000  Uiso   1.00
N964   N     0.14875   0.60389   0.19935   0.00000  Uiso   1.00
N965   N     0.09664   0.82123   0.22413   0.00000  Uiso   1.00
N966   N     0.35810   0.86207   0.27602   0.00000  Uiso   1.00
C967   C     0.92419   0.77137   0.63303   0.00000  Uiso   1.00
C968   C     0.96296   0.80080   0.60729   0.00000  Uiso   1.00
C969   C     0.00574   0.82514   0.61971   0.00000  Uiso   1.00
C970   C     0.03647   0.84998   0.59164   0.00000  Uiso   1.00
C971   C     0.09844   0.89558   0.55761   0.00000  Uiso   1.00
C972   C     0.90306   0.72653   0.61411   0.00000  Uiso   1.00
C973   C     0.89548   0.68844   0.63227   0.00000  Uiso   1.00
C974   C     0.87578   0.65077   0.60996   0.00000  Uiso   1.00
C975   C     0.17807   0.24774   0.25319   0.00000  Uiso   1.00
C976   C     0.89181   0.78734   0.62841   0.00000  Uiso   1.00
C977   C     0.87477   0.80037   0.65860   0.00000  Uiso   1.00
C978   C     0.84559   0.81388   0.64832   0.00000  Uiso   1.00
C979   C     0.79708   0.83859   0.64710   0.00000  Uiso   1.00
C980   C     0.90267   0.77219   0.56112   0.00000  Uiso   1.00
C981   C     0.95127   0.80124   0.56823   0.00000  Uiso   1.00
C982   C     0.98193   0.82604   0.54014   0.00000  Uiso   1.00
C983   C     0.02476   0.85043   0.55251   0.00000  Uiso   1.00
C984   C     0.89137   0.72697   0.57505   0.00000  Uiso   1.00
C985   C     0.87168   0.68934   0.55271   0.00000  Uiso   1.00
C986   C     0.86407   0.65121   0.57082   0.00000  Uiso   1.00
C987   C     0.88012   0.78778   0.58935   0.00000  Uiso   1.00
C988   C     0.85096   0.80127   0.57903   0.00000  Uiso   1.00
C989   C     0.83388   0.81432   0.60919   0.00000  Uiso   1.00
H990   H     0.93329   0.77102   0.66345   0.00000  Uiso   1.00
H991   H     0.01477   0.82479   0.64994   0.00000  Uiso   1.00
H992   H     0.90453   0.68811   0.66250   0.00000  Uiso   1.00
H993   H     0.88382   0.80002   0.68882   0.00000  Uiso   1.00
H994   H     0.09996   0.88458   0.61773   0.00000  Uiso   1.00
H995   H     0.20082   0.26305   0.31090   0.00000  Uiso   1.00
H996   H     0.82382   0.83237   0.69973   0.00000  Uiso   1.00
H997   H     0.89357   0.77253   0.53070   0.00000  Uiso   1.00
H998   H     0.97288   0.82638   0.50991   0.00000  Uiso   1.00
H999   H     0.86263   0.68970   0.52248   0.00000  Uiso   1.00
H1000  H     0.84192   0.80161   0.54880   0.00000  Uiso   1.00
H1001  H     0.06596   0.88587   0.50408   0.00000  Uiso   1.00
H1002  H     0.83349   0.59767   0.53058   0.00000  Uiso   1.00
H1003  H     0.78981   0.83365   0.58608   0.00000  Uiso   1.00
O1004  O     0.13585   0.92061   0.54962   0.00000  Uiso   1.00
O1005  O     0.16418   0.20917   0.25106   0.00000  Uiso   1.00
O1006  O     0.77355   0.85211   0.65721   0.00000  Uiso   1.00
N1007  N     0.08108   0.87750   0.59384   0.00000  Uiso   1.00
N1008  N     0.19707   0.27472   0.28528   0.00000  Uiso   1.00
N1009  N     0.82289   0.82867   0.67050   0.00000  Uiso   1.00
N1010  N     0.06278   0.87820   0.53269   0.00000  Uiso   1.00
N1011  N     0.84544   0.60875   0.55746   0.00000  Uiso   1.00
N1012  N     0.80460   0.82936   0.60935   0.00000  Uiso   1.00
C1013  C     0.59086   0.10471   0.96637   0.00000  Uiso   1.00
C1014  C     0.62962   0.13413   0.94062   0.00000  Uiso   1.00
C1015  C     0.67241   0.15848   0.95304   0.00000  Uiso   1.00
C1016  C     0.70313   0.18331   0.92498   0.00000  Uiso   1.00
C1017  C     0.76510   0.22892   0.89094   0.00000  Uiso   1.00
C1018  C     0.56973   0.05987   0.94745   0.00000  Uiso   1.00
C1019  C     0.56215   0.02178   0.96561   0.00000  Uiso   1.00
C1020  C     0.54245   0.98410   0.94329   0.00000  Uiso   1.00
C1021  C     0.84474   0.58107   0.58652   0.00000  Uiso   1.00
C1022  C     0.55848   0.12067   0.96175   0.00000  Uiso   1.00
C1023  C     0.54143   0.13370   0.99193   0.00000  Uiso   1.00
C1024  C     0.51225   0.14721   0.98166   0.00000  Uiso   1.00
C1025  C     0.46374   0.17193   0.98043   0.00000  Uiso   1.00
C1026  C     0.56934   0.10552   0.89445   0.00000  Uiso   1.00
C1027  C     0.61793   0.13457   0.90156   0.00000  Uiso   1.00
C1028  C     0.64860   0.15938   0.87347   0.00000  Uiso   1.00
C1029  C     0.69142   0.18376   0.88584   0.00000  Uiso   1.00
C1030  C     0.55804   0.06031   0.90839   0.00000  Uiso   1.00
C1031  C     0.53834   0.02268   0.88604   0.00000  Uiso   1.00
C1032  C     0.53074   0.98454   0.90416   0.00000  Uiso   1.00
C1033  C     0.54679   0.12112   0.92269   0.00000  Uiso   1.00
C1034  C     0.51763   0.13460   0.91236   0.00000  Uiso   1.00
C1035  C     0.50054   0.14765   0.94252   0.00000  Uiso   1.00
H1036  H     0.59996   0.10436   0.99678   0.00000  Uiso   1.00
H1037  H     0.68144   0.15812   0.98327   0.00000  Uiso   1.00
H1038  H     0.57119   0.02144   0.99584   0.00000  Uiso   1.00
H1039  H     0.55048   0.13335   0.02216   0.00000  Uiso   1.00
H1040  H     0.76663   0.21791   0.95107   0.00000  Uiso   1.00
H1041  H     0.86749   0.59638   0.64423   0.00000  Uiso   1.00
H1042  H     0.49048   0.16570   0.03307   0.00000  Uiso   1.00
H1043  H     0.56024   0.10586   0.86404   0.00000  Uiso   1.00
H1044  H     0.63955   0.15971   0.84324   0.00000  Uiso   1.00
H1045  H     0.52930   0.02303   0.85581   0.00000  Uiso   1.00
H1046  H     0.50859   0.13494   0.88213   0.00000  Uiso   1.00
H1047  H     0.73263   0.21920   0.83741   0.00000  Uiso   1.00
H1048  H     0.50015   0.93100   0.86392   0.00000  Uiso   1.00
H1049  H     0.45648   0.16699   0.91942   0.00000  Uiso   1.00
O1050  O     0.80252   0.25394   0.88295   0.00000  Uiso   1.00
O1051  O     0.83085   0.54250   0.58439   0.00000  Uiso   1.00
O1052  O     0.44022   0.18545   0.99054   0.00000  Uiso   1.00
N1053  N     0.74774   0.21083   0.92717   0.00000  Uiso   1.00
N1054  N     0.86373   0.60805   0.61861   0.00000  Uiso   1.00
N1055  N     0.48956   0.16200   0.00384   0.00000  Uiso   1.00
N1056  N     0.72945   0.21153   0.86602   0.00000  Uiso   1.00
N1057  N     0.51210   0.94208   0.89079   0.00000  Uiso   1.00
N1058  N     0.47126   0.16269   0.94268   0.00000  Uiso   1.00
C1059  C     0.25753   0.43804   0.29970   0.00000  Uiso   1.00
C1060  C     0.29629   0.46746   0.27396   0.00000  Uiso   1.00
C1061  C     0.33907   0.49181   0.28637   0.00000  Uiso   1.00
C1062  C     0.36980   0.51665   0.25831   0.00000  Uiso   1.00
C1063  C     0.43177   0.56225   0.22427   0.00000  Uiso   1.00
C1064  C     0.23639   0.39320   0.28078   0.00000  Uiso   1.00
C1065  C     0.22882   0.35511   0.29894   0.00000  Uiso   1.00
C1066  C     0.20912   0.31743   0.27662   0.00000  Uiso   1.00
C1067  C     0.51141   0.91440   0.91986   0.00000  Uiso   1.00
C1068  C     0.22515   0.45401   0.29508   0.00000  Uiso   1.00
C1069  C     0.20810   0.46703   0.32527   0.00000  Uiso   1.00
C1070  C     0.17892   0.48054   0.31499   0.00000  Uiso   1.00
C1071  C     0.13041   0.50526   0.31376   0.00000  Uiso   1.00
C1072  C     0.23601   0.43885   0.22778   0.00000  Uiso   1.00
C1073  C     0.28460   0.46790   0.23489   0.00000  Uiso   1.00
C1074  C     0.31527   0.49271   0.20680   0.00000  Uiso   1.00
C1075  C     0.35809   0.51709   0.21918   0.00000  Uiso   1.00
C1076  C     0.22471   0.39364   0.24172   0.00000  Uiso   1.00
C1077  C     0.20501   0.35601   0.21937   0.00000  Uiso   1.00
C1078  C     0.19741   0.31787   0.23749   0.00000  Uiso   1.00
C1079  C     0.21346   0.45445   0.25602   0.00000  Uiso   1.00
C1080  C     0.18429   0.46794   0.24570   0.00000  Uiso   1.00
C1081  C     0.16721   0.48099   0.27586   0.00000  Uiso   1.00
H1082  H     0.26662   0.43769   0.33011   0.00000  Uiso   1.00
H1083  H     0.34811   0.49146   0.31660   0.00000  Uiso   1.00
H1084  H     0.23786   0.35478   0.32917   0.00000  Uiso   1.00
H1085  H     0.21715   0.46669   0.35549   0.00000  Uiso   1.00
H1086  H     0.43330   0.55125   0.28440   0.00000  Uiso   1.00
H1087  H     0.53416   0.92972   0.97756   0.00000  Uiso   1.00
H1088  H     0.15715   0.49903   0.36640   0.00000  Uiso   1.00
H1089  H     0.22691   0.43920   0.19737   0.00000  Uiso   1.00
H1090  H     0.30621   0.49305   0.17658   0.00000  Uiso   1.00
H1091  H     0.19597   0.35636   0.18914   0.00000  Uiso   1.00
H1092  H     0.17526   0.46828   0.21546   0.00000  Uiso   1.00
H1093  H     0.39929   0.55254   0.17075   0.00000  Uiso   1.00
H1094  H     0.16682   0.26434   0.19725   0.00000  Uiso   1.00
H1095  H     0.12315   0.50032   0.25275   0.00000  Uiso   1.00
O1096  O     0.46918   0.58728   0.21629   0.00000  Uiso   1.00
O1097  O     0.49752   0.87584   0.91772   0.00000  Uiso   1.00
O1098  O     0.10688   0.51878   0.32387   0.00000  Uiso   1.00
N1099  N     0.41441   0.54417   0.26051   0.00000  Uiso   1.00
N1100  N     0.53040   0.94139   0.95195   0.00000  Uiso   1.00
N1101  N     0.15623   0.49533   0.33717   0.00000  Uiso   1.00
N1102  N     0.39611   0.54486   0.19935   0.00000  Uiso   1.00
N1103  N     0.17877   0.27541   0.22413   0.00000  Uiso   1.00
N1104  N     0.13793   0.49603   0.27602   0.00000  Uiso   1.00
C1105  C     0.22863   0.15282   0.63303   0.00000  Uiso   1.00
C1106  C     0.19920   0.16216   0.60729   0.00000  Uiso   1.00
C1107  C     0.17486   0.18060   0.61971   0.00000  Uiso   1.00
C1108  C     0.15002   0.18649   0.59164   0.00000  Uiso   1.00
C1109  C     0.10442   0.20285   0.55761   0.00000  Uiso   1.00
C1110  C     0.27347   0.17653   0.61411   0.00000  Uiso   1.00
C1111  C     0.31156   0.20704   0.63227   0.00000  Uiso   1.00
C1112  C     0.34923   0.22502   0.60996   0.00000  Uiso   1.00
C1113  C     0.75226   0.93034   0.25319   0.00000  Uiso   1.00
C1114  C     0.21266   0.10447   0.62841   0.00000  Uiso   1.00
C1115  C     0.19963   0.07440   0.65860   0.00000  Uiso   1.00
C1116  C     0.18612   0.03171   0.64832   0.00000  Uiso   1.00
C1117  C     0.16141   0.95848   0.64710   0.00000  Uiso   1.00
C1118  C     0.22781   0.13049   0.56112   0.00000  Uiso   1.00
C1119  C     0.19876   0.15003   0.56823   0.00000  Uiso   1.00
C1120  C     0.17396   0.15589   0.54014   0.00000  Uiso   1.00
C1121  C     0.14957   0.17433   0.55251   0.00000  Uiso   1.00
C1122  C     0.27303   0.16440   0.57505   0.00000  Uiso   1.00
C1123  C     0.31066   0.18233   0.55271   0.00000  Uiso   1.00
C1124  C     0.34879   0.21287   0.57082   0.00000  Uiso   1.00
C1125  C     0.21222   0.09234   0.58935   0.00000  Uiso   1.00
C1126  C     0.19873   0.04969   0.57903   0.00000  Uiso   1.00
C1127  C     0.18568   0.01956   0.60919   0.00000  Uiso   1.00
H1128  H     0.22898   0.16227   0.66345   0.00000  Uiso   1.00
H1129  H     0.17521   0.18998   0.64994   0.00000  Uiso   1.00
H1130  H     0.31189   0.21642   0.66250   0.00000  Uiso   1.00
H1131  H     0.19998   0.08380   0.68882   0.00000  Uiso   1.00
H1132  H     0.11542   0.21538   0.61773   0.00000  Uiso   1.00
H1133  H     0.73695   0.93778   0.31090   0.00000  Uiso   1.00
H1134  H     0.16763   0.99145   0.69973   0.00000  Uiso   1.00
H1135  H     0.22747   0.12104   0.53070   0.00000  Uiso   1.00
H1136  H     0.17362   0.14650   0.50991   0.00000  Uiso   1.00
H1137  H     0.31030   0.17294   0.52248   0.00000  Uiso   1.00
H1138  H     0.19839   0.04031   0.54880   0.00000  Uiso   1.00
H1139  H     0.11413   0.18009   0.50408   0.00000  Uiso   1.00
H1140  H     0.40233   0.23582   0.53058   0.00000  Uiso   1.00
H1141  H     0.16635   0.95616   0.58608   0.00000  Uiso   1.00
O1142  O     0.07939   0.21524   0.54962   0.00000  Uiso   1.00
O1143  O     0.79083   0.95501   0.25106   0.00000  Uiso   1.00
O1144  O     0.14789   0.92144   0.65721   0.00000  Uiso   1.00
N1145  N     0.12250   0.20357   0.59384   0.00000  Uiso   1.00
N1146  N     0.72528   0.92235   0.28528   0.00000  Uiso   1.00
N1147  N     0.17133   0.99423   0.67050   0.00000  Uiso   1.00
N1148  N     0.12180   0.18458   0.53269   0.00000  Uiso   1.00
N1149  N     0.39125   0.23669   0.55746   0.00000  Uiso   1.00
N1150  N     0.17064   0.97523   0.60935   0.00000  Uiso   1.00
C1151  C     0.89529   0.48615   0.96637   0.00000  Uiso   1.00
C1152  C     0.86587   0.49549   0.94062   0.00000  Uiso   1.00
C1153  C     0.84152   0.51393   0.95304   0.00000  Uiso   1.00
C1154  C     0.81669   0.51982   0.92498   0.00000  Uiso   1.00
C1155  C     0.77108   0.53619   0.89094   0.00000  Uiso   1.00
C1156  C     0.94013   0.50986   0.94745   0.00000  Uiso   1.00
C1157  C     0.97822   0.54037   0.96561   0.00000  Uiso   1.00
C1158  C     0.01590   0.55835   0.94329   0.00000  Uiso   1.00
C1159  C     0.41893   0.26367   0.58652   0.00000  Uiso   1.00
C1160  C     0.87933   0.43780   0.96175   0.00000  Uiso   1.00
C1161  C     0.86630   0.40773   0.99193   0.00000  Uiso   1.00
C1162  C     0.85279   0.36504   0.98166   0.00000  Uiso   1.00
C1163  C     0.82807   0.29181   0.98043   0.00000  Uiso   1.00
C1164  C     0.89448   0.46382   0.89445   0.00000  Uiso   1.00
C1165  C     0.86543   0.48336   0.90156   0.00000  Uiso   1.00
C1166  C     0.84062   0.48922   0.87347   0.00000  Uiso   1.00
C1167  C     0.81624   0.50766   0.88584   0.00000  Uiso   1.00
C1168  C     0.93969   0.49773   0.90839   0.00000  Uiso   1.00
C1169  C     0.97732   0.51567   0.88604   0.00000  Uiso   1.00
C1170  C     0.01546   0.54620   0.90416   0.00000  Uiso   1.00
C1171  C     0.87888   0.42567   0.92269   0.00000  Uiso   1.00
C1172  C     0.86540   0.38302   0.91236   0.00000  Uiso   1.00
C1173  C     0.85235   0.35289   0.94252   0.00000  Uiso   1.00
H1174  H     0.89564   0.49560   0.99678   0.00000  Uiso   1.00
H1175  H     0.84188   0.52332   0.98327   0.00000  Uiso   1.00
H1176  H     0.97856   0.54975   0.99584   0.00000  Uiso   1.00
H1177  H     0.86665   0.41713   0.02216   0.00000  Uiso   1.00
H1178  H     0.78209   0.54871   0.95107   0.00000  Uiso   1.00
H1179  H     0.40362   0.27111   0.64423   0.00000  Uiso   1.00
H1180  H     0.83430   0.32478   0.03307   0.00000  Uiso   1.00
H1181  H     0.89414   0.45438   0.86404   0.00000  Uiso   1.00
H1182  H     0.84029   0.47983   0.84324   0.00000  Uiso   1.00
H1183  H     0.97697   0.50627   0.85581   0.00000  Uiso   1.00
H1184  H     0.86506   0.37365   0.88213   0.00000  Uiso   1.00
H1185  H     0.78080   0.51342   0.83741   0.00000  Uiso   1.00
H1186  H     0.06900   0.56915   0.86392   0.00000  Uiso   1.00
H1187  H     0.83301   0.28949   0.91942   0.00000  Uiso   1.00
O1188  O     0.74606   0.54857   0.88295   0.00000  Uiso   1.00
O1189  O     0.45750   0.28834   0.58439   0.00000  Uiso   1.00
O1190  O     0.81455   0.25477   0.99054   0.00000  Uiso   1.00
N1191  N     0.78917   0.53691   0.92717   0.00000  Uiso   1.00
N1192  N     0.39195   0.25568   0.61861   0.00000  Uiso   1.00
N1193  N     0.83800   0.32756   0.00384   0.00000  Uiso   1.00
N1194  N     0.78847   0.51792   0.86602   0.00000  Uiso   1.00
N1195  N     0.05792   0.57002   0.89079   0.00000  Uiso   1.00
N1196  N     0.83731   0.30857   0.94268   0.00000  Uiso   1.00
C1197  C     0.56196   0.81949   0.29970   0.00000  Uiso   1.00
C1198  C     0.53254   0.82883   0.27396   0.00000  Uiso   1.00
C1199  C     0.50819   0.84726   0.28637   0.00000  Uiso   1.00
C1200  C     0.48335   0.85315   0.25831   0.00000  Uiso   1.00
C1201  C     0.43775   0.86952   0.22427   0.00000  Uiso   1.00
C1202  C     0.60680   0.84320   0.28078   0.00000  Uiso   1.00
C1203  C     0.64489   0.87371   0.29894   0.00000  Uiso   1.00
C1204  C     0.68257   0.89168   0.27662   0.00000  Uiso   1.00
C1205  C     0.08560   0.59700   0.91986   0.00000  Uiso   1.00
C1206  C     0.54599   0.77114   0.29508   0.00000  Uiso   1.00
C1207  C     0.53297   0.74106   0.32527   0.00000  Uiso   1.00
C1208  C     0.51946   0.69837   0.31499   0.00000  Uiso   1.00
C1209  C     0.49474   0.62515   0.31376   0.00000  Uiso   1.00
C1210  C     0.56115   0.79715   0.22778   0.00000  Uiso   1.00
C1211  C     0.53210   0.81670   0.23489   0.00000  Uiso   1.00
C1212  C     0.50729   0.82256   0.20680   0.00000  Uiso   1.00
C1213  C     0.48291   0.84100   0.21918   0.00000  Uiso   1.00
C1214  C     0.60636   0.83107   0.24172   0.00000  Uiso   1.00
C1215  C     0.64399   0.84900   0.21937   0.00000  Uiso   1.00
C1216  C     0.68213   0.87953   0.23749   0.00000  Uiso   1.00
C1217  C     0.54555   0.75901   0.25602   0.00000  Uiso   1.00
C1218  C     0.53206   0.71636   0.24570   0.00000  Uiso   1.00
C1219  C     0.51901   0.68622   0.27586   0.00000  Uiso   1.00
H1220  H     0.56231   0.82893   0.33011   0.00000  Uiso   1.00
H1221  H     0.50854   0.85665   0.31660   0.00000  Uiso   1.00
H1222  H     0.64522   0.88308   0.32917   0.00000  Uiso   1.00
H1223  H     0.53331   0.75046   0.35549   0.00000  Uiso   1.00
H1224  H     0.44875   0.88205   0.28440   0.00000  Uiso   1.00
H1225  H     0.07028   0.60444   0.97756   0.00000  Uiso   1.00
H1226  H     0.50097   0.65812   0.36640   0.00000  Uiso   1.00
H1227  H     0.56080   0.78771   0.19737   0.00000  Uiso   1.00
H1228  H     0.50695   0.81317   0.17658   0.00000  Uiso   1.00
H1229  H     0.64364   0.83960   0.18914   0.00000  Uiso   1.00
H1230  H     0.53172   0.70698   0.21546   0.00000  Uiso   1.00
H1231  H     0.44746   0.84676   0.17075   0.00000  Uiso   1.00
H1232  H     0.73566   0.90248   0.19725   0.00000  Uiso   1.00
H1233  H     0.49968   0.62282   0.25275   0.00000  Uiso   1.00
O1234  O     0.41272   0.88191   0.21629   0.00000  Uiso   1.00
O1235  O     0.12416   0.62168   0.91772   0.00000  Uiso   1.00
O1236  O     0.48122   0.58811   0.32387   0.00000  Uiso   1.00
N1237  N     0.45583   0.87024   0.26051   0.00000  Uiso   1.00
N1238  N     0.05861   0.58901   0.95195   0.00000  Uiso   1.00
N1239  N     0.50467   0.66089   0.33717   0.00000  Uiso   1.00
N1240  N     0.45514   0.85125   0.19935   0.00000  Uiso   1.00
N1241  N     0.72459   0.90336   0.22413   0.00000  Uiso   1.00
N1242  N     0.50397   0.64190   0.27602   0.00000  Uiso   1.00
C1243  C     0.07581   0.84718   0.86697   0.00000  Uiso   1.00
C1244  C     0.03704   0.83784   0.89271   0.00000  Uiso   1.00
C1245  C     0.99426   0.81940   0.88029   0.00000  Uiso   1.00
C1246  C     0.96353   0.81351   0.90836   0.00000  Uiso   1.00
C1247  C     0.90156   0.79715   0.94239   0.00000  Uiso   1.00
C1248  C     0.09694   0.82347   0.88589   0.00000  Uiso   1.00
C1249  C     0.10452   0.79296   0.86773   0.00000  Uiso   1.00
C1250  C     0.12422   0.77498   0.89004   0.00000  Uiso   1.00
C1251  C     0.82193   0.06966   0.24681   0.00000  Uiso   1.00
C1252  C     0.10819   0.89553   0.87159   0.00000  Uiso   1.00
C1253  C     0.12523   0.92560   0.84140   0.00000  Uiso   1.00
C1254  C     0.15441   0.96829   0.85168   0.00000  Uiso   1.00
C1255  C     0.20292   0.04152   0.85290   0.00000  Uiso   1.00
C1256  C     0.09733   0.86951   0.93888   0.00000  Uiso   1.00
C1257  C     0.04873   0.84997   0.93177   0.00000  Uiso   1.00
C1258  C     0.01807   0.84411   0.95986   0.00000  Uiso   1.00
C1259  C     0.97524   0.82567   0.94749   0.00000  Uiso   1.00
C1260  C     0.10863   0.83560   0.92495   0.00000  Uiso   1.00
C1261  C     0.12832   0.81767   0.94729   0.00000  Uiso   1.00
C1262  C     0.13593   0.78713   0.92918   0.00000  Uiso   1.00
C1263  C     0.11988   0.90766   0.91065   0.00000  Uiso   1.00
C1264  C     0.14904   0.95031   0.92097   0.00000  Uiso   1.00
C1265  C     0.16612   0.98044   0.89081   0.00000  Uiso   1.00
H1266  H     0.06671   0.83773   0.83655   0.00000  Uiso   1.00
H1267  H     0.98523   0.81002   0.85006   0.00000  Uiso   1.00
H1268  H     0.09547   0.78358   0.83750   0.00000  Uiso   1.00
H1269  H     0.11618   0.91620   0.81118   0.00000  Uiso   1.00
H1270  H     0.90004   0.78462   0.88227   0.00000  Uiso   1.00
H1271  H     0.79918   0.06222   0.18910   0.00000  Uiso   1.00
H1272  H     0.17618   0.00855   0.80027   0.00000  Uiso   1.00
H1273  H     0.10643   0.87896   0.96930   0.00000  Uiso   1.00
H1274  H     0.02712   0.85350   0.99009   0.00000  Uiso   1.00
H1275  H     0.13737   0.82706   0.97752   0.00000  Uiso   1.00
H1276  H     0.15808   0.95969   0.95120   0.00000  Uiso   1.00
H1277  H     0.93404   0.81991   0.99592   0.00000  Uiso   1.00
H1278  H     0.16651   0.76418   0.96942   0.00000  Uiso   1.00
H1279  H     0.21019   0.04384   0.91392   0.00000  Uiso   1.00
O1280  O     0.86415   0.78476   0.95038   0.00000  Uiso   1.00
O1281  O     0.83582   0.04499   0.24894   0.00000  Uiso   1.00
O1282  O     0.22645   0.07856   0.84279   0.00000  Uiso   1.00
N1283  N     0.91892   0.79643   0.90616   0.00000  Uiso   1.00
N1284  N     0.80293   0.07765   0.21472   0.00000  Uiso   1.00
N1285  N     0.17711   0.00577   0.82950   0.00000  Uiso   1.00
N1286  N     0.93722   0.81542   0.96731   0.00000  Uiso   1.00
N1287  N     0.15456   0.76331   0.94254   0.00000  Uiso   1.00
N1288  N     0.19540   0.02477   0.89065   0.00000  Uiso   1.00
C1289  C     0.74247   0.18051   0.20030   0.00000  Uiso   1.00
C1290  C     0.70371   0.17117   0.22604   0.00000  Uiso   1.00
C1291  C     0.66093   0.15274   0.21363   0.00000  Uiso   1.00
C1292  C     0.63020   0.14685   0.24169   0.00000  Uiso   1.00
C1293  C     0.56823   0.13048   0.27573   0.00000  Uiso   1.00
C1294  C     0.76361   0.15680   0.21922   0.00000  Uiso   1.00
C1295  C     0.77118   0.12629   0.20106   0.00000  Uiso   1.00
C1296  C     0.79088   0.10832   0.22338   0.00000  Uiso   1.00
C1297  C     0.48859   0.40300   0.58014   0.00000  Uiso   1.00
C1298  C     0.77485   0.22886   0.20492   0.00000  Uiso   1.00
C1299  C     0.79190   0.25894   0.17473   0.00000  Uiso   1.00
C1300  C     0.82108   0.30163   0.18501   0.00000  Uiso   1.00
C1301  C     0.86959   0.37485   0.18624   0.00000  Uiso   1.00
C1302  C     0.76399   0.20285   0.27222   0.00000  Uiso   1.00
C1303  C     0.71540   0.18330   0.26511   0.00000  Uiso   1.00
C1304  C     0.68473   0.17744   0.29320   0.00000  Uiso   1.00
C1305  C     0.64191   0.15900   0.28082   0.00000  Uiso   1.00
C1306  C     0.77529   0.16893   0.25828   0.00000  Uiso   1.00
C1307  C     0.79499   0.15100   0.28063   0.00000  Uiso   1.00
C1308  C     0.80259   0.12047   0.26251   0.00000  Uiso   1.00
C1309  C     0.78654   0.24099   0.24398   0.00000  Uiso   1.00
C1310  C     0.81571   0.28364   0.25430   0.00000  Uiso   1.00
C1311  C     0.83279   0.31378   0.22414   0.00000  Uiso   1.00
H1312  H     0.73338   0.17107   0.16989   0.00000  Uiso   1.00
H1313  H     0.65189   0.14335   0.18340   0.00000  Uiso   1.00
H1314  H     0.76214   0.11692   0.17083   0.00000  Uiso   1.00
H1315  H     0.78285   0.24954   0.14451   0.00000  Uiso   1.00
H1316  H     0.56670   0.11795   0.21560   0.00000  Uiso   1.00
H1317  H     0.46584   0.39556   0.52244   0.00000  Uiso   1.00
H1318  H     0.84285   0.34188   0.13360   0.00000  Uiso   1.00
H1319  H     0.77309   0.21229   0.30263   0.00000  Uiso   1.00
H1320  H     0.69379   0.18683   0.32342   0.00000  Uiso   1.00
H1321  H     0.80403   0.16040   0.31086   0.00000  Uiso   1.00
H1322  H     0.82474   0.29302   0.28454   0.00000  Uiso   1.00
H1323  H     0.60071   0.15324   0.32925   0.00000  Uiso   1.00
H1324  H     0.83318   0.09752   0.30275   0.00000  Uiso   1.00
H1325  H     0.87685   0.37718   0.24725   0.00000  Uiso   1.00
O1326  O     0.53082   0.11809   0.28371   0.00000  Uiso   1.00
O1327  O     0.50248   0.37832   0.58228   0.00000  Uiso   1.00
O1328  O     0.89312   0.41189   0.17613   0.00000  Uiso   1.00
N1329  N     0.58559   0.12976   0.23949   0.00000  Uiso   1.00
N1330  N     0.46960   0.41099   0.54805   0.00000  Uiso   1.00
N1331  N     0.84377   0.33911   0.16283   0.00000  Uiso   1.00
N1332  N     0.60389   0.14875   0.30065   0.00000  Uiso   1.00
N1333  N     0.82123   0.09664   0.27587   0.00000  Uiso   1.00
N1334  N     0.86207   0.35810   0.22398   0.00000  Uiso   1.00
C1335  C     0.40914   0.51385   0.53363   0.00000  Uiso   1.00
C1336  C     0.37038   0.50451   0.55938   0.00000  Uiso   1.00
C1337  C     0.32759   0.48607   0.54696   0.00000  Uiso   1.00
C1338  C     0.29687   0.48018   0.57502   0.00000  Uiso   1.00
C1339  C     0.23490   0.46381   0.60906   0.00000  Uiso   1.00
C1340  C     0.43027   0.49014   0.55255   0.00000  Uiso   1.00
C1341  C     0.43785   0.45963   0.53439   0.00000  Uiso   1.00
C1342  C     0.45755   0.44165   0.55671   0.00000  Uiso   1.00
C1343  C     0.15526   0.73633   0.91348   0.00000  Uiso   1.00
C1344  C     0.44152   0.56220   0.53825   0.00000  Uiso   1.00
C1345  C     0.45857   0.59227   0.50807   0.00000  Uiso   1.00
C1346  C     0.48775   0.63496   0.51834   0.00000  Uiso   1.00
C1347  C     0.53626   0.70819   0.51957   0.00000  Uiso   1.00
C1348  C     0.43066   0.53618   0.60555   0.00000  Uiso   1.00
C1349  C     0.38207   0.51664   0.59844   0.00000  Uiso   1.00
C1350  C     0.35140   0.51078   0.62653   0.00000  Uiso   1.00
C1351  C     0.30858   0.49234   0.61416   0.00000  Uiso   1.00
C1352  C     0.44196   0.50227   0.59161   0.00000  Uiso   1.00
C1353  C     0.46166   0.48433   0.61396   0.00000  Uiso   1.00
C1354  C     0.46926   0.45380   0.59584   0.00000  Uiso   1.00
C1355  C     0.45321   0.57433   0.57731   0.00000  Uiso   1.00
C1356  C     0.48237   0.61698   0.58764   0.00000  Uiso   1.00
C1357  C     0.49946   0.64711   0.55748   0.00000  Uiso   1.00
H1358  H     0.40004   0.50440   0.50322   0.00000  Uiso   1.00
H1359  H     0.31856   0.47668   0.51673   0.00000  Uiso   1.00
H1360  H     0.42881   0.45025   0.50416   0.00000  Uiso   1.00
H1361  H     0.44952   0.58287   0.47784   0.00000  Uiso   1.00
H1362  H     0.23337   0.45129   0.54893   0.00000  Uiso   1.00
H1363  H     0.13251   0.72889   0.85577   0.00000  Uiso   1.00
H1364  H     0.50952   0.67522   0.46693   0.00000  Uiso   1.00
H1365  H     0.43976   0.54562   0.63596   0.00000  Uiso   1.00
H1366  H     0.36045   0.52017   0.65676   0.00000  Uiso   1.00
H1367  H     0.47070   0.49373   0.64419   0.00000  Uiso   1.00
H1368  H     0.49141   0.62635   0.61787   0.00000  Uiso   1.00
H1369  H     0.26737   0.48658   0.66259   0.00000  Uiso   1.00
H1370  H     0.49985   0.43085   0.63608   0.00000  Uiso   1.00
H1371  H     0.54352   0.71051   0.58058   0.00000  Uiso   1.00
O1372  O     0.19748   0.45143   0.61705   0.00000  Uiso   1.00
O1373  O     0.16915   0.71166   0.91561   0.00000  Uiso   1.00
O1374  O     0.55978   0.74523   0.50946   0.00000  Uiso   1.00
N1375  N     0.25226   0.46309   0.57283   0.00000  Uiso   1.00
N1376  N     0.13627   0.74432   0.88139   0.00000  Uiso   1.00
N1377  N     0.51044   0.67244   0.49616   0.00000  Uiso   1.00
N1378  N     0.27055   0.48208   0.63398   0.00000  Uiso   1.00
N1379  N     0.48790   0.42998   0.60921   0.00000  Uiso   1.00
N1380  N     0.52874   0.69143   0.55732   0.00000  Uiso   1.00
C1381  C     0.77137   0.92419   0.86697   0.00000  Uiso   1.00
C1382  C     0.80080   0.96296   0.89271   0.00000  Uiso   1.00
C1383  C     0.82514   0.00574   0.88029   0.00000  Uiso   1.00
C1384  C     0.84998   0.03647   0.90836   0.00000  Uiso   1.00
C1385  C     0.89558   0.09844   0.94239   0.00000  Uiso   1.00
C1386  C     0.72653   0.90306   0.88589   0.00000  Uiso   1.00
C1387  C     0.68844   0.89548   0.86773   0.00000  Uiso   1.00
C1388  C     0.65077   0.87578   0.89004   0.00000  Uiso   1.00
C1389  C     0.24774   0.17807   0.24681   0.00000  Uiso   1.00
C1390  C     0.78734   0.89181   0.87159   0.00000  Uiso   1.00
C1391  C     0.80037   0.87477   0.84140   0.00000  Uiso   1.00
C1392  C     0.81388   0.84559   0.85168   0.00000  Uiso   1.00
C1393  C     0.83859   0.79708   0.85290   0.00000  Uiso   1.00
C1394  C     0.77219   0.90267   0.93888   0.00000  Uiso   1.00
C1395  C     0.80124   0.95127   0.93177   0.00000  Uiso   1.00
C1396  C     0.82604   0.98193   0.95986   0.00000  Uiso   1.00
C1397  C     0.85043   0.02476   0.94749   0.00000  Uiso   1.00
C1398  C     0.72697   0.89137   0.92495   0.00000  Uiso   1.00
C1399  C     0.68934   0.87168   0.94729   0.00000  Uiso   1.00
C1400  C     0.65121   0.86407   0.92918   0.00000  Uiso   1.00
C1401  C     0.78778   0.88012   0.91065   0.00000  Uiso   1.00
C1402  C     0.80127   0.85096   0.92097   0.00000  Uiso   1.00
C1403  C     0.81432   0.83388   0.89081   0.00000  Uiso   1.00
H1404  H     0.77102   0.93329   0.83655   0.00000  Uiso   1.00
H1405  H     0.82479   0.01477   0.85006   0.00000  Uiso   1.00
H1406  H     0.68811   0.90453   0.83750   0.00000  Uiso   1.00
H1407  H     0.80002   0.88382   0.81118   0.00000  Uiso   1.00
H1408  H     0.88458   0.09996   0.88227   0.00000  Uiso   1.00
H1409  H     0.26305   0.20082   0.18910   0.00000  Uiso   1.00
H1410  H     0.83237   0.82382   0.80027   0.00000  Uiso   1.00
H1411  H     0.77253   0.89357   0.96930   0.00000  Uiso   1.00
H1412  H     0.82638   0.97288   0.99009   0.00000  Uiso   1.00
H1413  H     0.68970   0.86263   0.97752   0.00000  Uiso   1.00
H1414  H     0.80161   0.84192   0.95120   0.00000  Uiso   1.00
H1415  H     0.88587   0.06596   0.99592   0.00000  Uiso   1.00
H1416  H     0.59767   0.83349   0.96942   0.00000  Uiso   1.00
H1417  H     0.83365   0.78981   0.91392   0.00000  Uiso   1.00
O1418  O     0.92061   0.13585   0.95038   0.00000  Uiso   1.00
O1419  O     0.20917   0.16418   0.24894   0.00000  Uiso   1.00
O1420  O     0.85211   0.77355   0.84279   0.00000  Uiso   1.00
N1421  N     0.87750   0.08108   0.90616   0.00000  Uiso   1.00
N1422  N     0.27472   0.19707   0.21472   0.00000  Uiso   1.00
N1423  N     0.82867   0.82289   0.82950   0.00000  Uiso   1.00
N1424  N     0.87820   0.06278   0.96731   0.00000  Uiso   1.00
N1425  N     0.60875   0.84544   0.94254   0.00000  Uiso   1.00
N1426  N     0.82936   0.80460   0.89065   0.00000  Uiso   1.00
C1427  C     0.43804   0.25753   0.20030   0.00000  Uiso   1.00
C1428  C     0.46746   0.29629   0.22604   0.00000  Uiso   1.00
C1429  C     0.49181   0.33907   0.21363   0.00000  Uiso   1.00
C1430  C     0.51665   0.36980   0.24169   0.00000  Uiso   1.00
C1431  C     0.56225   0.43177   0.27573   0.00000  Uiso   1.00
C1432  C     0.39320   0.23639   0.21922   0.00000  Uiso   1.00
C1433  C     0.35511   0.22882   0.20106   0.00000  Uiso   1.00
C1434  C     0.31743   0.20912   0.22338   0.00000  Uiso   1.00
C1435  C     0.91440   0.51141   0.58014   0.00000  Uiso   1.00
C1436  C     0.45401   0.22515   0.20492   0.00000  Uiso   1.00
C1437  C     0.46703   0.20810   0.17473   0.00000  Uiso   1.00
C1438  C     0.48054   0.17892   0.18501   0.00000  Uiso   1.00
C1439  C     0.50526   0.13041   0.18624   0.00000  Uiso   1.00
C1440  C     0.43885   0.23601   0.27222   0.00000  Uiso   1.00
C1441  C     0.46790   0.28460   0.26511   0.00000  Uiso   1.00
C1442  C     0.49271   0.31527   0.29320   0.00000  Uiso   1.00
C1443  C     0.51709   0.35809   0.28082   0.00000  Uiso   1.00
C1444  C     0.39364   0.22471   0.25828   0.00000  Uiso   1.00
C1445  C     0.35601   0.20501   0.28063   0.00000  Uiso   1.00
C1446  C     0.31787   0.19741   0.26251   0.00000  Uiso   1.00
C1447  C     0.45445   0.21346   0.24398   0.00000  Uiso   1.00
C1448  C     0.46794   0.18429   0.25430   0.00000  Uiso   1.00
C1449  C     0.48099   0.16721   0.22414   0.00000  Uiso   1.00
H1450  H     0.43769   0.26662   0.16989   0.00000  Uiso   1.00
H1451  H     0.49146   0.34811   0.18340   0.00000  Uiso   1.00
H1452  H     0.35478   0.23786   0.17083   0.00000  Uiso   1.00
H1453  H     0.46669   0.21715   0.14451   0.00000  Uiso   1.00
H1454  H     0.55125   0.43330   0.21560   0.00000  Uiso   1.00
H1455  H     0.92972   0.53416   0.52244   0.00000  Uiso   1.00
H1456  H     0.49903   0.15715   0.13360   0.00000  Uiso   1.00
H1457  H     0.43920   0.22691   0.30263   0.00000  Uiso   1.00
H1458  H     0.49305   0.30621   0.32342   0.00000  Uiso   1.00
H1459  H     0.35636   0.19597   0.31086   0.00000  Uiso   1.00
H1460  H     0.46828   0.17526   0.28454   0.00000  Uiso   1.00
H1461  H     0.55254   0.39929   0.32925   0.00000  Uiso   1.00
H1462  H     0.26434   0.16682   0.30275   0.00000  Uiso   1.00
H1463  H     0.50032   0.12315   0.24725   0.00000  Uiso   1.00
O1464  O     0.58728   0.46918   0.28371   0.00000  Uiso   1.00
O1465  O     0.87584   0.49752   0.58228   0.00000  Uiso   1.00
O1466  O     0.51878   0.10688   0.17613   0.00000  Uiso   1.00
N1467  N     0.54417   0.41441   0.23949   0.00000  Uiso   1.00
N1468  N     0.94139   0.53040   0.54805   0.00000  Uiso   1.00
N1469  N     0.49533   0.15623   0.16283   0.00000  Uiso   1.00
N1470  N     0.54486   0.39611   0.30065   0.00000  Uiso   1.00
N1471  N     0.27541   0.17877   0.27587   0.00000  Uiso   1.00
N1472  N     0.49603   0.13793   0.22398   0.00000  Uiso   1.00
C1473  C     0.10471   0.59086   0.53363   0.00000  Uiso   1.00
C1474  C     0.13413   0.62962   0.55938   0.00000  Uiso   1.00
C1475  C     0.15848   0.67241   0.54696   0.00000  Uiso   1.00
C1476  C     0.18331   0.70313   0.57502   0.00000  Uiso   1.00
C1477  C     0.22892   0.76510   0.60906   0.00000  Uiso   1.00
C1478  C     0.05987   0.56973   0.55255   0.00000  Uiso   1.00
C1479  C     0.02178   0.56215   0.53439   0.00000  Uiso   1.00
C1480  C     0.98410   0.54245   0.55671   0.00000  Uiso   1.00
C1481  C     0.58107   0.84474   0.91348   0.00000  Uiso   1.00
C1482  C     0.12067   0.55848   0.53825   0.00000  Uiso   1.00
C1483  C     0.13370   0.54143   0.50807   0.00000  Uiso   1.00
C1484  C     0.14721   0.51225   0.51834   0.00000  Uiso   1.00
C1485  C     0.17193   0.46374   0.51957   0.00000  Uiso   1.00
C1486  C     0.10552   0.56934   0.60555   0.00000  Uiso   1.00
C1487  C     0.13457   0.61793   0.59844   0.00000  Uiso   1.00
C1488  C     0.15938   0.64860   0.62653   0.00000  Uiso   1.00
C1489  C     0.18376   0.69142   0.61416   0.00000  Uiso   1.00
C1490  C     0.06031   0.55804   0.59161   0.00000  Uiso   1.00
C1491  C     0.02268   0.53834   0.61396   0.00000  Uiso   1.00
C1492  C     0.98454   0.53074   0.59584   0.00000  Uiso   1.00
C1493  C     0.12112   0.54679   0.57731   0.00000  Uiso   1.00
C1494  C     0.13460   0.51763   0.58764   0.00000  Uiso   1.00
C1495  C     0.14765   0.50054   0.55748   0.00000  Uiso   1.00
H1496  H     0.10436   0.59996   0.50322   0.00000  Uiso   1.00
H1497  H     0.15812   0.68144   0.51673   0.00000  Uiso   1.00
H1498  H     0.02144   0.57119   0.50416   0.00000  Uiso   1.00
H1499  H     0.13335   0.55048   0.47784   0.00000  Uiso   1.00
H1500  H     0.21791   0.76663   0.54893   0.00000  Uiso   1.00
H1501  H     0.59638   0.86749   0.85577   0.00000  Uiso   1.00
H1502  H     0.16570   0.49048   0.46693   0.00000  Uiso   1.00
H1503  H     0.10586   0.56024   0.63596   0.00000  Uiso   1.00
H1504  H     0.15971   0.63955   0.65676   0.00000  Uiso   1.00
H1505  H     0.02303   0.52930   0.64419   0.00000  Uiso   1.00
H1506  H     0.13494   0.50859   0.61787   0.00000  Uiso   1.00
H1507  H     0.21920   0.73263   0.66259   0.00000  Uiso   1.00
H1508  H     0.93100   0.50015   0.63608   0.00000  Uiso   1.00
H1509  H     0.16699   0.45648   0.58058   0.00000  Uiso   1.00
O1510  O     0.25394   0.80252   0.61705   0.00000  Uiso   1.00
O1511  O     0.54250   0.83085   0.91561   0.00000  Uiso   1.00
O1512  O     0.18545   0.44022   0.50946   0.00000  Uiso   1.00
N1513  N     0.21083   0.74774   0.57283   0.00000  Uiso   1.00
N1514  N     0.60805   0.86373   0.88139   0.00000  Uiso   1.00
N1515  N     0.16200   0.48956   0.49616   0.00000  Uiso   1.00
N1516  N     0.21153   0.72945   0.63398   0.00000  Uiso   1.00
N1517  N     0.94208   0.51210   0.60921   0.00000  Uiso   1.00
N1518  N     0.16269   0.47126   0.55732   0.00000  Uiso   1.00
C1519  C     0.15282   0.22863   0.86697   0.00000  Uiso   1.00
C1520  C     0.16216   0.19920   0.89271   0.00000  Uiso   1.00
C1521  C     0.18060   0.17486   0.88029   0.00000  Uiso   1.00
C1522  C     0.18649   0.15002   0.90836   0.00000  Uiso   1.00
C1523  C     0.20285   0.10442   0.94239   0.00000  Uiso   1.00
C1524  C     0.17653   0.27347   0.88589   0.00000  Uiso   1.00
C1525  C     0.20704   0.31156   0.86773   0.00000  Uiso   1.00
C1526  C     0.22502   0.34923   0.89004   0.00000  Uiso   1.00
C1527  C     0.93034   0.75226   0.24681   0.00000  Uiso   1.00
C1528  C     0.10447   0.21266   0.87159   0.00000  Uiso   1.00
C1529  C     0.07440   0.19963   0.84140   0.00000  Uiso   1.00
C1530  C     0.03171   0.18612   0.85168   0.00000  Uiso   1.00
C1531  C     0.95848   0.16141   0.85290   0.00000  Uiso   1.00
C1532  C     0.13049   0.22781   0.93888   0.00000  Uiso   1.00
C1533  C     0.15003   0.19876   0.93177   0.00000  Uiso   1.00
C1534  C     0.15589   0.17396   0.95986   0.00000  Uiso   1.00
C1535  C     0.17433   0.14957   0.94749   0.00000  Uiso   1.00
C1536  C     0.16440   0.27303   0.92495   0.00000  Uiso   1.00
C1537  C     0.18233   0.31066   0.94729   0.00000  Uiso   1.00
C1538  C     0.21287   0.34879   0.92918   0.00000  Uiso   1.00
C1539  C     0.09234   0.21222   0.91065   0.00000  Uiso   1.00
C1540  C     0.04969   0.19873   0.92097   0.00000  Uiso   1.00
C1541  C     0.01956   0.18568   0.89081   0.00000  Uiso   1.00
H1542  H     0.16227   0.22898   0.83655   0.00000  Uiso   1.00
H1543  H     0.18998   0.17521   0.85006   0.00000  Uiso   1.00
H1544  H     0.21642   0.31189   0.83750   0.00000  Uiso   1.00
H1545  H     0.08380   0.19998   0.81118   0.00000  Uiso   1.00
H1546  H     0.21538   0.11542   0.88227   0.00000  Uiso   1.00
H1547  H     0.93778   0.73695   0.18910   0.00000  Uiso   1.00
H1548  H     0.99145   0.16763   0.80027   0.00000  Uiso   1.00
H1549  H     0.12104   0.22747   0.96930   0.00000  Uiso   1.00
H1550  H     0.14650   0.17362   0.99009   0.00000  Uiso   1.00
H1551  H     0.17294   0.31030   0.97752   0.00000  Uiso   1.00
H1552  H     0.04031   0.19839   0.95120   0.00000  Uiso   1.00
H1553  H     0.18009   0.11413   0.99592   0.00000  Uiso   1.00
H1554  H     0.23582   0.40233   0.96942   0.00000  Uiso   1.00
H1555  H     0.95616   0.16635   0.91392   0.00000  Uiso   1.00
O1556  O     0.21524   0.07939   0.95038   0.00000  Uiso   1.00
O1557  O     0.95501   0.79083   0.24894   0.00000  Uiso   1.00
O1558  O     0.92144   0.14789   0.84279   0.00000  Uiso   1.00
N1559  N     0.20357   0.12250   0.90616   0.00000  Uiso   1.00
N1560  N     0.92235   0.72528   0.21472   0.00000  Uiso   1.00
N1561  N     0.99423   0.17133   0.82950   0.00000  Uiso   1.00
N1562  N     0.18458   0.12180   0.96731   0.00000  Uiso   1.00
N1563  N     0.23669   0.39125   0.94254   0.00000  Uiso   1.00
N1564  N     0.97523   0.17064   0.89065   0.00000  Uiso   1.00
C1565  C     0.81949   0.56196   0.20030   0.00000  Uiso   1.00
C1566  C     0.82883   0.53254   0.22604   0.00000  Uiso   1.00
C1567  C     0.84726   0.50819   0.21363   0.00000  Uiso   1.00
C1568  C     0.85315   0.48335   0.24169   0.00000  Uiso   1.00
C1569  C     0.86952   0.43775   0.27573   0.00000  Uiso   1.00
C1570  C     0.84320   0.60680   0.21922   0.00000  Uiso   1.00
C1571  C     0.87371   0.64489   0.20106   0.00000  Uiso   1.00
C1572  C     0.89168   0.68257   0.22338   0.00000  Uiso   1.00
C1573  C     0.59700   0.08560   0.58014   0.00000  Uiso   1.00
C1574  C     0.77114   0.54599   0.20492   0.00000  Uiso   1.00
C1575  C     0.74106   0.53297   0.17473   0.00000  Uiso   1.00
C1576  C     0.69837   0.51946   0.18501   0.00000  Uiso   1.00
C1577  C     0.62515   0.49474   0.18624   0.00000  Uiso   1.00
C1578  C     0.79715   0.56115   0.27222   0.00000  Uiso   1.00
C1579  C     0.81670   0.53210   0.26511   0.00000  Uiso   1.00
C1580  C     0.82256   0.50729   0.29320   0.00000  Uiso   1.00
C1581  C     0.84100   0.48291   0.28082   0.00000  Uiso   1.00
C1582  C     0.83107   0.60636   0.25828   0.00000  Uiso   1.00
C1583  C     0.84900   0.64399   0.28063   0.00000  Uiso   1.00
C1584  C     0.87953   0.68213   0.26251   0.00000  Uiso   1.00
C1585  C     0.75901   0.54555   0.24398   0.00000  Uiso   1.00
C1586  C     0.71636   0.53206   0.25430   0.00000  Uiso   1.00
C1587  C     0.68622   0.51901   0.22414   0.00000  Uiso   1.00
H1588  H     0.82893   0.56231   0.16989   0.00000  Uiso   1.00
H1589  H     0.85665   0.50854   0.18340   0.00000  Uiso   1.00
H1590  H     0.88308   0.64522   0.17083   0.00000  Uiso   1.00
H1591  H     0.75046   0.53331   0.14451   0.00000  Uiso   1.00
H1592  H     0.88205   0.44875   0.21560   0.00000  Uiso   1.00
H1593  H     0.60444   0.07028   0.52244   0.00000  Uiso   1.00
H1594  H     0.65812   0.50097   0.13360   0.00000  Uiso   1.00
H1595  H     0.78771   0.56080   0.30263   0.00000  Uiso   1.00
H1596  H     0.81317   0.50695   0.32342   0.00000  Uiso   1.00
H1597  H     0.83960   0.64364   0.31086   0.00000  Uiso   1.00
H1598  H     0.70698   0.53172   0.28454   0.00000  Uiso   1.00
H1599  H     0.84676   0.44746   0.32925   0.00000  Uiso   1.00
H1600  H     0.90248   0.73566   0.30275   0.00000  Uiso   1.00
H1601  H     0.62282   0.49968   0.24725   0.00000  Uiso   1.00
O1602  O     0.88191   0.41272   0.28371   0.00000  Uiso   1.00
O1603  O     0.62168   0.12416   0.58228   0.00000  Uiso   1.00
O1604  O     0.58811   0.48122   0.17613   0.00000  Uiso   1.00
N1605  N     0.87024   0.45583   0.23949   0.00000  Uiso   1.00
N1606  N     0.58901   0.05861   0.54805   0.00000  Uiso   1.00
N1607  N     0.66089   0.50467   0.16283   0.00000  Uiso   1.00
N1608  N     0.85125   0.45514   0.30065   0.00000  Uiso   1.00
N1609  N     0.90336   0.72459   0.27587   0.00000  Uiso   1.00
N1610  N     0.64190   0.50397   0.22398   0.00000  Uiso   1.00
C1611  C     0.48615   0.89529   0.53363   0.00000  Uiso   1.00
C1612  C     0.49549   0.86587   0.55938   0.00000  Uiso   1.00
C1613  C     0.51393   0.84152   0.54696   0.00000  Uiso   1.00
C1614  C     0.51982   0.81669   0.57502   0.00000  Uiso   1.00
C1615  C     0.53619   0.77108   0.60906   0.00000  Uiso   1.00
C1616  C     0.50986   0.94013   0.55255   0.00000  Uiso   1.00
C1617  C     0.54037   0.97822   0.53439   0.00000  Uiso   1.00
C1618  C     0.55835   0.01590   0.55671   0.00000  Uiso   1.00
C1619  C     0.26367   0.41893   0.91348   0.00000  Uiso   1.00
C1620  C     0.43780   0.87933   0.53825   0.00000  Uiso   1.00
C1621  C     0.40773   0.86630   0.50807   0.00000  Uiso   1.00
C1622  C     0.36504   0.85279   0.51834   0.00000  Uiso   1.00
C1623  C     0.29181   0.82807   0.51957   0.00000  Uiso   1.00
C1624  C     0.46382   0.89448   0.60555   0.00000  Uiso   1.00
C1625  C     0.48336   0.86543   0.59844   0.00000  Uiso   1.00
C1626  C     0.48922   0.84062   0.62653   0.00000  Uiso   1.00
C1627  C     0.50766   0.81624   0.61416   0.00000  Uiso   1.00
C1628  C     0.49773   0.93969   0.59161   0.00000  Uiso   1.00
C1629  C     0.51567   0.97732   0.61396   0.00000  Uiso   1.00
C1630  C     0.54620   0.01546   0.59584   0.00000  Uiso   1.00
C1631  C     0.42567   0.87888   0.57731   0.00000  Uiso   1.00
C1632  C     0.38302   0.86540   0.58764   0.00000  Uiso   1.00
C1633  C     0.35289   0.85235   0.55748   0.00000  Uiso   1.00
H1634  H     0.49560   0.89564   0.50322   0.00000  Uiso   1.00
H1635  H     0.52332   0.84188   0.51673   0.00000  Uiso   1.00
H1636  H     0.54975   0.97856   0.50416   0.00000  Uiso   1.00
H1637  H     0.41713   0.86665   0.47784   0.00000  Uiso   1.00
H1638  H     0.54871   0.78209   0.54893   0.00000  Uiso   1.00
H1639  H     0.27111   0.40362   0.85577   0.00000  Uiso   1.00
H1640  H     0.32478   0.83430   0.46693   0.00000  Uiso   1.00
H1641  H     0.45438   0.89414   0.63596   0.00000  Uiso   1.00
H1642  H     0.47983   0.84029   0.65676   0.00000  Uiso   1.00
H1643  H     0.50627   0.97697   0.64419   0.00000  Uiso   1.00
H1644  H     0.37365   0.86506   0.61787   0.00000  Uiso   1.00
H1645  H     0.51342   0.78080   0.66259   0.00000  Uiso   1.00
H1646  H     0.56915   0.06900   0.63608   0.00000  Uiso   1.00
H1647  H     0.28949   0.83301   0.58058   0.00000  Uiso   1.00
O1648  O     0.54857   0.74606   0.61705   0.00000  Uiso   1.00
O1649  O     0.28834   0.45750   0.91561   0.00000  Uiso   1.00
O1650  O     0.25477   0.81455   0.50946   0.00000  Uiso   1.00
N1651  N     0.53691   0.78917   0.57283   0.00000  Uiso   1.00
N1652  N     0.25568   0.39195   0.88139   0.00000  Uiso   1.00
N1653  N     0.32756   0.83800   0.49616   0.00000  Uiso   1.00
N1654  N     0.51792   0.78847   0.63398   0.00000  Uiso   1.00
N1655  N     0.57002   0.05792   0.60921   0.00000  Uiso   1.00
N1656  N     0.30857   0.83731   0.55732   0.00000  Uiso   1.00
