data_job_01849
_audit_creation_date              2018-12-19
_audit_creation_method            'Materials Studio'
_symmetry_space_group_name_H-M    'P1'
_symmetry_Int_Tables_number       1
_symmetry_cell_setting            triclinic
loop_
_symmetry_equiv_pos_as_xyz
  x,y,z
_cell_length_a                    16.0499
_cell_length_b                    16.0499
_cell_length_c                    41.2522
_cell_angle_alpha                 90.0000
_cell_angle_beta                  90.0000
_cell_angle_gamma                 90.0000
loop_
_atom_site_label
_atom_site_type_symbol
_atom_site_fract_x
_atom_site_fract_y
_atom_site_fract_z
_atom_site_U_iso_or_equiv
_atom_site_adp_type
_atom_site_occupancy
C1     C     0.09981   0.21953   0.85342   0.00000  Uiso   1.00
C2     C     0.15028   0.28612   0.83582   0.00000  Uiso   1.00
C3     C     0.22741   0.27439   0.82131   0.00000  Uiso   1.00
C4     C     0.26340   0.34315   0.80645   0.00000  Uiso   1.00
C5     C     0.34783   0.43474   0.77918   0.00000  Uiso   1.00
C6     C     0.08379   0.25352   0.88737   0.00000  Uiso   1.00
C7     C     0.10501   0.21437   0.91621   0.00000  Uiso   1.00
C8     C     0.08502   0.25567   0.94474   0.00000  Uiso   1.00
C9     C     0.06617   0.29662   0.99752   0.00000  Uiso   1.00
C10    C     0.01518   0.21694   0.83665   0.00000  Uiso   1.00
C11    C     0.97870   0.14702   0.82285   0.00000  Uiso   1.00
C12    C     0.90093   0.15753   0.80869   0.00000  Uiso   1.00
C13    C     0.77555   0.14168   0.78271   0.00000  Uiso   1.00
C14    C     0.02657   0.36250   0.85281   0.00000  Uiso   1.00
C15    C     0.11050   0.36377   0.83549   0.00000  Uiso   1.00
C16    C     0.14638   0.43257   0.82064   0.00000  Uiso   1.00
C17    C     0.22355   0.42094   0.80611   0.00000  Uiso   1.00
C18    C     0.04401   0.33117   0.88704   0.00000  Uiso   1.00
C19    C     0.02398   0.37254   0.91554   0.00000  Uiso   1.00
C20    C     0.04516   0.33347   0.94441   0.00000  Uiso   1.00
C21    C     0.97540   0.29459   0.83632   0.00000  Uiso   1.00
C22    C     0.89767   0.30520   0.82218   0.00000  Uiso   1.00
C23    C     0.86107   0.23532   0.80836   0.00000  Uiso   1.00
H24    H     0.13079   0.15908   0.85368   0.00000  Uiso   1.00
H25    H     0.25818   0.21429   0.82158   0.00000  Uiso   1.00
H26    H     0.13579   0.15427   0.91646   0.00000  Uiso   1.00
H27    H     0.00950   0.08694   0.82311   0.00000  Uiso   1.00
H28    H     0.38189   0.30976   0.78585   0.00000  Uiso   1.00
H29    H     0.12380   0.18319   0.98592   0.00000  Uiso   1.00
H30    H     0.85749   0.04121   0.78908   0.00000  Uiso   1.00
H31    H     0.99560   0.42296   0.85255   0.00000  Uiso   1.00
H32    H     0.11558   0.49265   0.82039   0.00000  Uiso   1.00
H33    H     0.99319   0.43263   0.91527   0.00000  Uiso   1.00
H34    H     0.86690   0.36530   0.82193   0.00000  Uiso   1.00
H35    H     0.26615   0.53569   0.78489   0.00000  Uiso   1.00
H36    H     0.00806   0.40912   0.98495   0.00000  Uiso   1.00
H37    H     0.74175   0.26714   0.78812   0.00000  Uiso   1.00
O38    O     0.40540   0.46382   0.76424   0.00000  Uiso   1.00
O39    O     0.06678   0.29775   0.02672   0.00000  Uiso   1.00
O40    O     0.71739   0.11148   0.76847   0.00000  Uiso   1.00
N41    N     0.33818   0.35336   0.79003   0.00000  Uiso   1.00
N42    N     0.09689   0.23503   0.97708   0.00000  Uiso   1.00
N43    N     0.84790   0.10229   0.79306   0.00000  Uiso   1.00
N44    N     0.27590   0.47493   0.78951   0.00000  Uiso   1.00
N45    N     0.03461   0.35660   0.97656   0.00000  Uiso   1.00
N46    N     0.78563   0.22386   0.79254   0.00000  Uiso   1.00
C47    C     0.59981   0.71953   0.35342   0.00000  Uiso   1.00
C48    C     0.65028   0.78612   0.33582   0.00000  Uiso   1.00
C49    C     0.72741   0.77439   0.32131   0.00000  Uiso   1.00
C50    C     0.76340   0.84315   0.30645   0.00000  Uiso   1.00
C51    C     0.84783   0.93474   0.27918   0.00000  Uiso   1.00
C52    C     0.58379   0.75352   0.38737   0.00000  Uiso   1.00
C53    C     0.60501   0.71437   0.41621   0.00000  Uiso   1.00
C54    C     0.58502   0.75567   0.44474   0.00000  Uiso   1.00
C55    C     0.56617   0.79662   0.49752   0.00000  Uiso   1.00
C56    C     0.51518   0.71694   0.33665   0.00000  Uiso   1.00
C57    C     0.47870   0.64702   0.32285   0.00000  Uiso   1.00
C58    C     0.40093   0.65753   0.30869   0.00000  Uiso   1.00
C59    C     0.27555   0.64168   0.28271   0.00000  Uiso   1.00
C60    C     0.52657   0.86250   0.35281   0.00000  Uiso   1.00
C61    C     0.61050   0.86377   0.33549   0.00000  Uiso   1.00
C62    C     0.64638   0.93257   0.32064   0.00000  Uiso   1.00
C63    C     0.72355   0.92094   0.30611   0.00000  Uiso   1.00
C64    C     0.54401   0.83117   0.38704   0.00000  Uiso   1.00
C65    C     0.52398   0.87254   0.41554   0.00000  Uiso   1.00
C66    C     0.54516   0.83347   0.44441   0.00000  Uiso   1.00
C67    C     0.47540   0.79459   0.33632   0.00000  Uiso   1.00
C68    C     0.39767   0.80520   0.32218   0.00000  Uiso   1.00
C69    C     0.36107   0.73532   0.30836   0.00000  Uiso   1.00
H70    H     0.63079   0.65908   0.35368   0.00000  Uiso   1.00
H71    H     0.75818   0.71429   0.32158   0.00000  Uiso   1.00
H72    H     0.63579   0.65427   0.41646   0.00000  Uiso   1.00
H73    H     0.50950   0.58694   0.32311   0.00000  Uiso   1.00
H74    H     0.88189   0.80976   0.28585   0.00000  Uiso   1.00
H75    H     0.62380   0.68319   0.48592   0.00000  Uiso   1.00
H76    H     0.35749   0.54121   0.28908   0.00000  Uiso   1.00
H77    H     0.49560   0.92296   0.35255   0.00000  Uiso   1.00
H78    H     0.61558   0.99265   0.32039   0.00000  Uiso   1.00
H79    H     0.49319   0.93263   0.41527   0.00000  Uiso   1.00
H80    H     0.36690   0.86530   0.32193   0.00000  Uiso   1.00
H81    H     0.76615   0.03569   0.28489   0.00000  Uiso   1.00
H82    H     0.50806   0.90912   0.48495   0.00000  Uiso   1.00
H83    H     0.24175   0.76714   0.28812   0.00000  Uiso   1.00
O84    O     0.90540   0.96382   0.26424   0.00000  Uiso   1.00
O85    O     0.56678   0.79775   0.52672   0.00000  Uiso   1.00
O86    O     0.21739   0.61148   0.26847   0.00000  Uiso   1.00
N87    N     0.83818   0.85336   0.29003   0.00000  Uiso   1.00
N88    N     0.59689   0.73503   0.47708   0.00000  Uiso   1.00
N89    N     0.34790   0.60229   0.29306   0.00000  Uiso   1.00
N90    N     0.77590   0.97493   0.28951   0.00000  Uiso   1.00
N91    N     0.53461   0.85660   0.47656   0.00000  Uiso   1.00
N92    N     0.28563   0.72386   0.29254   0.00000  Uiso   1.00
C93    C     0.40019   0.28047   0.35342   0.00000  Uiso   1.00
C94    C     0.34972   0.21388   0.33582   0.00000  Uiso   1.00
C95    C     0.27259   0.22561   0.32131   0.00000  Uiso   1.00
C96    C     0.23660   0.15685   0.30645   0.00000  Uiso   1.00
C97    C     0.15217   0.06526   0.27918   0.00000  Uiso   1.00
C98    C     0.41621   0.24648   0.38737   0.00000  Uiso   1.00
C99    C     0.39499   0.28563   0.41621   0.00000  Uiso   1.00
C100   C     0.41498   0.24433   0.44474   0.00000  Uiso   1.00
C101   C     0.43383   0.20338   0.49752   0.00000  Uiso   1.00
C102   C     0.48482   0.28306   0.33665   0.00000  Uiso   1.00
C103   C     0.52130   0.35298   0.32285   0.00000  Uiso   1.00
C104   C     0.59907   0.34247   0.30869   0.00000  Uiso   1.00
C105   C     0.72445   0.35832   0.28271   0.00000  Uiso   1.00
C106   C     0.47343   0.13750   0.35281   0.00000  Uiso   1.00
C107   C     0.38950   0.13623   0.33549   0.00000  Uiso   1.00
C108   C     0.35362   0.06743   0.32064   0.00000  Uiso   1.00
C109   C     0.27645   0.07906   0.30611   0.00000  Uiso   1.00
C110   C     0.45599   0.16883   0.38704   0.00000  Uiso   1.00
C111   C     0.47602   0.12746   0.41554   0.00000  Uiso   1.00
C112   C     0.45484   0.16653   0.44441   0.00000  Uiso   1.00
C113   C     0.52460   0.20541   0.33632   0.00000  Uiso   1.00
C114   C     0.60233   0.19480   0.32218   0.00000  Uiso   1.00
C115   C     0.63893   0.26468   0.30836   0.00000  Uiso   1.00
H116   H     0.36921   0.34092   0.35368   0.00000  Uiso   1.00
H117   H     0.24182   0.28571   0.32158   0.00000  Uiso   1.00
H118   H     0.36421   0.34573   0.41646   0.00000  Uiso   1.00
H119   H     0.49050   0.41306   0.32311   0.00000  Uiso   1.00
H120   H     0.11811   0.19024   0.28585   0.00000  Uiso   1.00
H121   H     0.37620   0.31681   0.48592   0.00000  Uiso   1.00
H122   H     0.64251   0.45879   0.28908   0.00000  Uiso   1.00
H123   H     0.50440   0.07704   0.35255   0.00000  Uiso   1.00
H124   H     0.38442   0.00735   0.32039   0.00000  Uiso   1.00
H125   H     0.50681   0.06737   0.41527   0.00000  Uiso   1.00
H126   H     0.63310   0.13470   0.32193   0.00000  Uiso   1.00
H127   H     0.23385   0.96431   0.28489   0.00000  Uiso   1.00
H128   H     0.49194   0.09088   0.48495   0.00000  Uiso   1.00
H129   H     0.75825   0.23286   0.28812   0.00000  Uiso   1.00
O130   O     0.09460   0.03618   0.26424   0.00000  Uiso   1.00
O131   O     0.43322   0.20225   0.52672   0.00000  Uiso   1.00
O132   O     0.78261   0.38852   0.26847   0.00000  Uiso   1.00
N133   N     0.16182   0.14664   0.29003   0.00000  Uiso   1.00
N134   N     0.40311   0.26497   0.47708   0.00000  Uiso   1.00
N135   N     0.65210   0.39771   0.29306   0.00000  Uiso   1.00
N136   N     0.22410   0.02507   0.28951   0.00000  Uiso   1.00
N137   N     0.46539   0.14340   0.47656   0.00000  Uiso   1.00
N138   N     0.71437   0.27614   0.29254   0.00000  Uiso   1.00
C139   C     0.90019   0.78047   0.85342   0.00000  Uiso   1.00
C140   C     0.84972   0.71388   0.83582   0.00000  Uiso   1.00
C141   C     0.77259   0.72561   0.82131   0.00000  Uiso   1.00
C142   C     0.73660   0.65685   0.80645   0.00000  Uiso   1.00
C143   C     0.65217   0.56526   0.77918   0.00000  Uiso   1.00
C144   C     0.91621   0.74648   0.88737   0.00000  Uiso   1.00
C145   C     0.89499   0.78563   0.91621   0.00000  Uiso   1.00
C146   C     0.91498   0.74433   0.94474   0.00000  Uiso   1.00
C147   C     0.93383   0.70338   0.99752   0.00000  Uiso   1.00
C148   C     0.98482   0.78306   0.83665   0.00000  Uiso   1.00
C149   C     0.02130   0.85298   0.82285   0.00000  Uiso   1.00
C150   C     0.09907   0.84247   0.80869   0.00000  Uiso   1.00
C151   C     0.22445   0.85832   0.78271   0.00000  Uiso   1.00
C152   C     0.97343   0.63750   0.85281   0.00000  Uiso   1.00
C153   C     0.88950   0.63623   0.83549   0.00000  Uiso   1.00
C154   C     0.85362   0.56743   0.82064   0.00000  Uiso   1.00
C155   C     0.77645   0.57906   0.80611   0.00000  Uiso   1.00
C156   C     0.95599   0.66883   0.88704   0.00000  Uiso   1.00
C157   C     0.97602   0.62746   0.91554   0.00000  Uiso   1.00
C158   C     0.95484   0.66653   0.94441   0.00000  Uiso   1.00
C159   C     0.02460   0.70541   0.83632   0.00000  Uiso   1.00
C160   C     0.10233   0.69480   0.82218   0.00000  Uiso   1.00
C161   C     0.13893   0.76468   0.80836   0.00000  Uiso   1.00
H162   H     0.86921   0.84092   0.85368   0.00000  Uiso   1.00
H163   H     0.74182   0.78571   0.82158   0.00000  Uiso   1.00
H164   H     0.86421   0.84573   0.91646   0.00000  Uiso   1.00
H165   H     0.99050   0.91306   0.82311   0.00000  Uiso   1.00
H166   H     0.61811   0.69024   0.78585   0.00000  Uiso   1.00
H167   H     0.87620   0.81681   0.98592   0.00000  Uiso   1.00
H168   H     0.14251   0.95879   0.78908   0.00000  Uiso   1.00
H169   H     0.00440   0.57704   0.85255   0.00000  Uiso   1.00
H170   H     0.88442   0.50735   0.82039   0.00000  Uiso   1.00
H171   H     0.00681   0.56737   0.91527   0.00000  Uiso   1.00
H172   H     0.13310   0.63470   0.82193   0.00000  Uiso   1.00
H173   H     0.73385   0.46431   0.78489   0.00000  Uiso   1.00
H174   H     0.99194   0.59088   0.98495   0.00000  Uiso   1.00
H175   H     0.25825   0.73286   0.78812   0.00000  Uiso   1.00
O176   O     0.59460   0.53618   0.76424   0.00000  Uiso   1.00
O177   O     0.93322   0.70225   0.02672   0.00000  Uiso   1.00
O178   O     0.28261   0.88852   0.76847   0.00000  Uiso   1.00
N179   N     0.66182   0.64664   0.79003   0.00000  Uiso   1.00
N180   N     0.90311   0.76497   0.97708   0.00000  Uiso   1.00
N181   N     0.15210   0.89771   0.79306   0.00000  Uiso   1.00
N182   N     0.72410   0.52507   0.78951   0.00000  Uiso   1.00
N183   N     0.96539   0.64340   0.97656   0.00000  Uiso   1.00
N184   N     0.21437   0.77614   0.79254   0.00000  Uiso   1.00
C185   C     0.78047   0.59981   0.10342   0.00000  Uiso   1.00
C186   C     0.71388   0.65028   0.08582   0.00000  Uiso   1.00
C187   C     0.72561   0.72741   0.07131   0.00000  Uiso   1.00
C188   C     0.65685   0.76340   0.05645   0.00000  Uiso   1.00
C189   C     0.56526   0.84783   0.02918   0.00000  Uiso   1.00
C190   C     0.74648   0.58379   0.13737   0.00000  Uiso   1.00
C191   C     0.78563   0.60501   0.16621   0.00000  Uiso   1.00
C192   C     0.74433   0.58502   0.19474   0.00000  Uiso   1.00
C193   C     0.70338   0.56617   0.24752   0.00000  Uiso   1.00
C194   C     0.78306   0.51518   0.08665   0.00000  Uiso   1.00
C195   C     0.85298   0.47870   0.07285   0.00000  Uiso   1.00
C196   C     0.84247   0.40093   0.05869   0.00000  Uiso   1.00
C197   C     0.85832   0.27555   0.03271   0.00000  Uiso   1.00
C198   C     0.63750   0.52657   0.10281   0.00000  Uiso   1.00
C199   C     0.63623   0.61050   0.08549   0.00000  Uiso   1.00
C200   C     0.56743   0.64638   0.07064   0.00000  Uiso   1.00
C201   C     0.57906   0.72355   0.05611   0.00000  Uiso   1.00
C202   C     0.66883   0.54401   0.13704   0.00000  Uiso   1.00
C203   C     0.62746   0.52398   0.16554   0.00000  Uiso   1.00
C204   C     0.66653   0.54516   0.19441   0.00000  Uiso   1.00
C205   C     0.70541   0.47540   0.08632   0.00000  Uiso   1.00
C206   C     0.69480   0.39767   0.07218   0.00000  Uiso   1.00
C207   C     0.76468   0.36107   0.05836   0.00000  Uiso   1.00
H208   H     0.84092   0.63079   0.10368   0.00000  Uiso   1.00
H209   H     0.78571   0.75818   0.07158   0.00000  Uiso   1.00
H210   H     0.84573   0.63579   0.16646   0.00000  Uiso   1.00
H211   H     0.91306   0.50950   0.07311   0.00000  Uiso   1.00
H212   H     0.69024   0.88189   0.03585   0.00000  Uiso   1.00
H213   H     0.81681   0.62380   0.23592   0.00000  Uiso   1.00
H214   H     0.95879   0.35749   0.03908   0.00000  Uiso   1.00
H215   H     0.57704   0.49560   0.10255   0.00000  Uiso   1.00
H216   H     0.50735   0.61558   0.07039   0.00000  Uiso   1.00
H217   H     0.56737   0.49319   0.16527   0.00000  Uiso   1.00
H218   H     0.63470   0.36690   0.07193   0.00000  Uiso   1.00
H219   H     0.46431   0.76615   0.03489   0.00000  Uiso   1.00
H220   H     0.59088   0.50806   0.23495   0.00000  Uiso   1.00
H221   H     0.73286   0.24175   0.03812   0.00000  Uiso   1.00
O222   O     0.53618   0.90540   0.01424   0.00000  Uiso   1.00
O223   O     0.70225   0.56678   0.27672   0.00000  Uiso   1.00
O224   O     0.88852   0.21739   0.01847   0.00000  Uiso   1.00
N225   N     0.64664   0.83818   0.04003   0.00000  Uiso   1.00
N226   N     0.76497   0.59689   0.22708   0.00000  Uiso   1.00
N227   N     0.89771   0.34790   0.04306   0.00000  Uiso   1.00
N228   N     0.52507   0.77590   0.03951   0.00000  Uiso   1.00
N229   N     0.64340   0.53461   0.22656   0.00000  Uiso   1.00
N230   N     0.77614   0.28563   0.04254   0.00000  Uiso   1.00
C231   C     0.28047   0.09981   0.60342   0.00000  Uiso   1.00
C232   C     0.21388   0.15028   0.58582   0.00000  Uiso   1.00
C233   C     0.22561   0.22741   0.57131   0.00000  Uiso   1.00
C234   C     0.15685   0.26340   0.55645   0.00000  Uiso   1.00
C235   C     0.06526   0.34783   0.52918   0.00000  Uiso   1.00
C236   C     0.24648   0.08379   0.63737   0.00000  Uiso   1.00
C237   C     0.28563   0.10501   0.66621   0.00000  Uiso   1.00
C238   C     0.24433   0.08502   0.69474   0.00000  Uiso   1.00
C239   C     0.20338   0.06617   0.74752   0.00000  Uiso   1.00
C240   C     0.28306   0.01518   0.58665   0.00000  Uiso   1.00
C241   C     0.35298   0.97870   0.57285   0.00000  Uiso   1.00
C242   C     0.34247   0.90093   0.55869   0.00000  Uiso   1.00
C243   C     0.35832   0.77555   0.53271   0.00000  Uiso   1.00
C244   C     0.13750   0.02657   0.60281   0.00000  Uiso   1.00
C245   C     0.13623   0.11050   0.58549   0.00000  Uiso   1.00
C246   C     0.06743   0.14638   0.57064   0.00000  Uiso   1.00
C247   C     0.07906   0.22355   0.55611   0.00000  Uiso   1.00
C248   C     0.16883   0.04401   0.63704   0.00000  Uiso   1.00
C249   C     0.12746   0.02398   0.66554   0.00000  Uiso   1.00
C250   C     0.16653   0.04516   0.69441   0.00000  Uiso   1.00
C251   C     0.20541   0.97540   0.58632   0.00000  Uiso   1.00
C252   C     0.19480   0.89767   0.57218   0.00000  Uiso   1.00
C253   C     0.26468   0.86107   0.55836   0.00000  Uiso   1.00
H254   H     0.34092   0.13079   0.60368   0.00000  Uiso   1.00
H255   H     0.28571   0.25818   0.57158   0.00000  Uiso   1.00
H256   H     0.34573   0.13579   0.66646   0.00000  Uiso   1.00
H257   H     0.41306   0.00950   0.57311   0.00000  Uiso   1.00
H258   H     0.19024   0.38189   0.53585   0.00000  Uiso   1.00
H259   H     0.31681   0.12380   0.73592   0.00000  Uiso   1.00
H260   H     0.45879   0.85749   0.53908   0.00000  Uiso   1.00
H261   H     0.07704   0.99560   0.60255   0.00000  Uiso   1.00
H262   H     0.00735   0.11558   0.57039   0.00000  Uiso   1.00
H263   H     0.06737   0.99319   0.66527   0.00000  Uiso   1.00
H264   H     0.13470   0.86690   0.57193   0.00000  Uiso   1.00
H265   H     0.96431   0.26615   0.53489   0.00000  Uiso   1.00
H266   H     0.09088   0.00806   0.73495   0.00000  Uiso   1.00
H267   H     0.23286   0.74175   0.53812   0.00000  Uiso   1.00
O268   O     0.03618   0.40540   0.51424   0.00000  Uiso   1.00
O269   O     0.20225   0.06678   0.77672   0.00000  Uiso   1.00
O270   O     0.38852   0.71739   0.51847   0.00000  Uiso   1.00
N271   N     0.14664   0.33818   0.54003   0.00000  Uiso   1.00
N272   N     0.26497   0.09689   0.72708   0.00000  Uiso   1.00
N273   N     0.39771   0.84790   0.54306   0.00000  Uiso   1.00
N274   N     0.02507   0.27590   0.53951   0.00000  Uiso   1.00
N275   N     0.14340   0.03461   0.72656   0.00000  Uiso   1.00
N276   N     0.27614   0.78563   0.54254   0.00000  Uiso   1.00
C277   C     0.71953   0.90019   0.60342   0.00000  Uiso   1.00
C278   C     0.78612   0.84972   0.58582   0.00000  Uiso   1.00
C279   C     0.77439   0.77259   0.57131   0.00000  Uiso   1.00
C280   C     0.84315   0.73660   0.55645   0.00000  Uiso   1.00
C281   C     0.93474   0.65217   0.52918   0.00000  Uiso   1.00
C282   C     0.75352   0.91621   0.63737   0.00000  Uiso   1.00
C283   C     0.71437   0.89499   0.66621   0.00000  Uiso   1.00
C284   C     0.75567   0.91498   0.69474   0.00000  Uiso   1.00
C285   C     0.79662   0.93383   0.74752   0.00000  Uiso   1.00
C286   C     0.71694   0.98482   0.58665   0.00000  Uiso   1.00
C287   C     0.64702   0.02130   0.57285   0.00000  Uiso   1.00
C288   C     0.65753   0.09907   0.55869   0.00000  Uiso   1.00
C289   C     0.64168   0.22445   0.53271   0.00000  Uiso   1.00
C290   C     0.86250   0.97343   0.60281   0.00000  Uiso   1.00
C291   C     0.86377   0.88950   0.58549   0.00000  Uiso   1.00
C292   C     0.93257   0.85362   0.57064   0.00000  Uiso   1.00
C293   C     0.92094   0.77645   0.55611   0.00000  Uiso   1.00
C294   C     0.83117   0.95599   0.63704   0.00000  Uiso   1.00
C295   C     0.87254   0.97602   0.66554   0.00000  Uiso   1.00
C296   C     0.83347   0.95484   0.69441   0.00000  Uiso   1.00
C297   C     0.79459   0.02460   0.58632   0.00000  Uiso   1.00
C298   C     0.80520   0.10233   0.57218   0.00000  Uiso   1.00
C299   C     0.73532   0.13893   0.55836   0.00000  Uiso   1.00
H300   H     0.65908   0.86921   0.60368   0.00000  Uiso   1.00
H301   H     0.71429   0.74182   0.57158   0.00000  Uiso   1.00
H302   H     0.65427   0.86421   0.66646   0.00000  Uiso   1.00
H303   H     0.58694   0.99050   0.57311   0.00000  Uiso   1.00
H304   H     0.80976   0.61811   0.53585   0.00000  Uiso   1.00
H305   H     0.68319   0.87620   0.73592   0.00000  Uiso   1.00
H306   H     0.54121   0.14251   0.53908   0.00000  Uiso   1.00
H307   H     0.92296   0.00440   0.60255   0.00000  Uiso   1.00
H308   H     0.99265   0.88442   0.57039   0.00000  Uiso   1.00
H309   H     0.93263   0.00681   0.66527   0.00000  Uiso   1.00
H310   H     0.86530   0.13310   0.57193   0.00000  Uiso   1.00
H311   H     0.03569   0.73385   0.53489   0.00000  Uiso   1.00
H312   H     0.90912   0.99194   0.73495   0.00000  Uiso   1.00
H313   H     0.76714   0.25825   0.53812   0.00000  Uiso   1.00
O314   O     0.96382   0.59460   0.51424   0.00000  Uiso   1.00
O315   O     0.79775   0.93322   0.77672   0.00000  Uiso   1.00
O316   O     0.61148   0.28261   0.51847   0.00000  Uiso   1.00
N317   N     0.85336   0.66182   0.54003   0.00000  Uiso   1.00
N318   N     0.73503   0.90311   0.72708   0.00000  Uiso   1.00
N319   N     0.60229   0.15210   0.54306   0.00000  Uiso   1.00
N320   N     0.97493   0.72410   0.53951   0.00000  Uiso   1.00
N321   N     0.85660   0.96539   0.72656   0.00000  Uiso   1.00
N322   N     0.72386   0.21437   0.54254   0.00000  Uiso   1.00
C323   C     0.21953   0.40019   0.10342   0.00000  Uiso   1.00
C324   C     0.28612   0.34972   0.08582   0.00000  Uiso   1.00
C325   C     0.27439   0.27259   0.07131   0.00000  Uiso   1.00
C326   C     0.34315   0.23660   0.05645   0.00000  Uiso   1.00
C327   C     0.43474   0.15217   0.02918   0.00000  Uiso   1.00
C328   C     0.25352   0.41621   0.13737   0.00000  Uiso   1.00
C329   C     0.21437   0.39499   0.16621   0.00000  Uiso   1.00
C330   C     0.25567   0.41498   0.19474   0.00000  Uiso   1.00
C331   C     0.29662   0.43383   0.24752   0.00000  Uiso   1.00
C332   C     0.21694   0.48482   0.08665   0.00000  Uiso   1.00
C333   C     0.14702   0.52130   0.07285   0.00000  Uiso   1.00
C334   C     0.15753   0.59907   0.05869   0.00000  Uiso   1.00
C335   C     0.14168   0.72445   0.03271   0.00000  Uiso   1.00
C336   C     0.36250   0.47343   0.10281   0.00000  Uiso   1.00
C337   C     0.36377   0.38950   0.08549   0.00000  Uiso   1.00
C338   C     0.43257   0.35362   0.07064   0.00000  Uiso   1.00
C339   C     0.42094   0.27645   0.05611   0.00000  Uiso   1.00
C340   C     0.33117   0.45599   0.13704   0.00000  Uiso   1.00
C341   C     0.37254   0.47602   0.16554   0.00000  Uiso   1.00
C342   C     0.33347   0.45484   0.19441   0.00000  Uiso   1.00
C343   C     0.29459   0.52460   0.08632   0.00000  Uiso   1.00
C344   C     0.30520   0.60233   0.07218   0.00000  Uiso   1.00
C345   C     0.23532   0.63893   0.05836   0.00000  Uiso   1.00
H346   H     0.15908   0.36921   0.10368   0.00000  Uiso   1.00
H347   H     0.21429   0.24182   0.07158   0.00000  Uiso   1.00
H348   H     0.15427   0.36421   0.16646   0.00000  Uiso   1.00
H349   H     0.08694   0.49050   0.07311   0.00000  Uiso   1.00
H350   H     0.30976   0.11811   0.03585   0.00000  Uiso   1.00
H351   H     0.18319   0.37620   0.23592   0.00000  Uiso   1.00
H352   H     0.04121   0.64251   0.03908   0.00000  Uiso   1.00
H353   H     0.42296   0.50440   0.10255   0.00000  Uiso   1.00
H354   H     0.49265   0.38442   0.07039   0.00000  Uiso   1.00
H355   H     0.43263   0.50681   0.16527   0.00000  Uiso   1.00
H356   H     0.36530   0.63310   0.07193   0.00000  Uiso   1.00
H357   H     0.53569   0.23385   0.03489   0.00000  Uiso   1.00
H358   H     0.40912   0.49194   0.23495   0.00000  Uiso   1.00
H359   H     0.26714   0.75825   0.03812   0.00000  Uiso   1.00
O360   O     0.46382   0.09460   0.01424   0.00000  Uiso   1.00
O361   O     0.29775   0.43322   0.27672   0.00000  Uiso   1.00
O362   O     0.11148   0.78261   0.01847   0.00000  Uiso   1.00
N363   N     0.35336   0.16182   0.04003   0.00000  Uiso   1.00
N364   N     0.23503   0.40311   0.22708   0.00000  Uiso   1.00
N365   N     0.10229   0.65210   0.04306   0.00000  Uiso   1.00
N366   N     0.47493   0.22410   0.03951   0.00000  Uiso   1.00
N367   N     0.35660   0.46539   0.22656   0.00000  Uiso   1.00
N368   N     0.22386   0.71437   0.04254   0.00000  Uiso   1.00
C369   C     0.90019   0.28047   0.39658   0.00000  Uiso   1.00
C370   C     0.84972   0.21388   0.41418   0.00000  Uiso   1.00
C371   C     0.77259   0.22561   0.42869   0.00000  Uiso   1.00
C372   C     0.73660   0.15685   0.44355   0.00000  Uiso   1.00
C373   C     0.65217   0.06526   0.47082   0.00000  Uiso   1.00
C374   C     0.91621   0.24648   0.36263   0.00000  Uiso   1.00
C375   C     0.89499   0.28563   0.33379   0.00000  Uiso   1.00
C376   C     0.91498   0.24433   0.30526   0.00000  Uiso   1.00
C377   C     0.93383   0.20338   0.25248   0.00000  Uiso   1.00
C378   C     0.98482   0.28306   0.41335   0.00000  Uiso   1.00
C379   C     0.02130   0.35298   0.42715   0.00000  Uiso   1.00
C380   C     0.09907   0.34247   0.44131   0.00000  Uiso   1.00
C381   C     0.22445   0.35832   0.46729   0.00000  Uiso   1.00
C382   C     0.97343   0.13750   0.39719   0.00000  Uiso   1.00
C383   C     0.88950   0.13623   0.41451   0.00000  Uiso   1.00
C384   C     0.85362   0.06743   0.42936   0.00000  Uiso   1.00
C385   C     0.77645   0.07906   0.44389   0.00000  Uiso   1.00
C386   C     0.95599   0.16883   0.36296   0.00000  Uiso   1.00
C387   C     0.97602   0.12746   0.33446   0.00000  Uiso   1.00
C388   C     0.95484   0.16653   0.30559   0.00000  Uiso   1.00
C389   C     0.02460   0.20541   0.41368   0.00000  Uiso   1.00
C390   C     0.10233   0.19480   0.42782   0.00000  Uiso   1.00
C391   C     0.13893   0.26468   0.44164   0.00000  Uiso   1.00
H392   H     0.86921   0.34092   0.39632   0.00000  Uiso   1.00
H393   H     0.74182   0.28571   0.42842   0.00000  Uiso   1.00
H394   H     0.86421   0.34573   0.33354   0.00000  Uiso   1.00
H395   H     0.99050   0.41306   0.42689   0.00000  Uiso   1.00
H396   H     0.61811   0.19024   0.46415   0.00000  Uiso   1.00
H397   H     0.87620   0.31681   0.26408   0.00000  Uiso   1.00
H398   H     0.14251   0.45879   0.46092   0.00000  Uiso   1.00
H399   H     0.00440   0.07704   0.39745   0.00000  Uiso   1.00
H400   H     0.88442   0.00735   0.42961   0.00000  Uiso   1.00
H401   H     0.00681   0.06737   0.33473   0.00000  Uiso   1.00
H402   H     0.13310   0.13470   0.42807   0.00000  Uiso   1.00
H403   H     0.73385   0.96431   0.46511   0.00000  Uiso   1.00
H404   H     0.99194   0.09088   0.26505   0.00000  Uiso   1.00
H405   H     0.25825   0.23286   0.46188   0.00000  Uiso   1.00
O406   O     0.59460   0.03618   0.48576   0.00000  Uiso   1.00
O407   O     0.93322   0.20225   0.22328   0.00000  Uiso   1.00
O408   O     0.28261   0.38852   0.48153   0.00000  Uiso   1.00
N409   N     0.66182   0.14664   0.45997   0.00000  Uiso   1.00
N410   N     0.90311   0.26497   0.27292   0.00000  Uiso   1.00
N411   N     0.15210   0.39771   0.45694   0.00000  Uiso   1.00
N412   N     0.72410   0.02507   0.46049   0.00000  Uiso   1.00
N413   N     0.96539   0.14340   0.27344   0.00000  Uiso   1.00
N414   N     0.21437   0.27614   0.45746   0.00000  Uiso   1.00
C415   C     0.40019   0.78047   0.89658   0.00000  Uiso   1.00
C416   C     0.34972   0.71388   0.91418   0.00000  Uiso   1.00
C417   C     0.27259   0.72561   0.92869   0.00000  Uiso   1.00
C418   C     0.23660   0.65685   0.94355   0.00000  Uiso   1.00
C419   C     0.15217   0.56526   0.97082   0.00000  Uiso   1.00
C420   C     0.41621   0.74648   0.86263   0.00000  Uiso   1.00
C421   C     0.39499   0.78563   0.83379   0.00000  Uiso   1.00
C422   C     0.41498   0.74433   0.80526   0.00000  Uiso   1.00
C423   C     0.43383   0.70338   0.75248   0.00000  Uiso   1.00
C424   C     0.48482   0.78306   0.91335   0.00000  Uiso   1.00
C425   C     0.52130   0.85298   0.92715   0.00000  Uiso   1.00
C426   C     0.59907   0.84247   0.94131   0.00000  Uiso   1.00
C427   C     0.72445   0.85832   0.96729   0.00000  Uiso   1.00
C428   C     0.47343   0.63750   0.89719   0.00000  Uiso   1.00
C429   C     0.38950   0.63623   0.91451   0.00000  Uiso   1.00
C430   C     0.35362   0.56743   0.92936   0.00000  Uiso   1.00
C431   C     0.27645   0.57906   0.94389   0.00000  Uiso   1.00
C432   C     0.45599   0.66883   0.86296   0.00000  Uiso   1.00
C433   C     0.47602   0.62746   0.83446   0.00000  Uiso   1.00
C434   C     0.45484   0.66653   0.80559   0.00000  Uiso   1.00
C435   C     0.52460   0.70541   0.91368   0.00000  Uiso   1.00
C436   C     0.60233   0.69480   0.92782   0.00000  Uiso   1.00
C437   C     0.63893   0.76468   0.94164   0.00000  Uiso   1.00
H438   H     0.36921   0.84092   0.89632   0.00000  Uiso   1.00
H439   H     0.24182   0.78571   0.92842   0.00000  Uiso   1.00
H440   H     0.36421   0.84573   0.83354   0.00000  Uiso   1.00
H441   H     0.49050   0.91306   0.92689   0.00000  Uiso   1.00
H442   H     0.11811   0.69024   0.96415   0.00000  Uiso   1.00
H443   H     0.37620   0.81681   0.76408   0.00000  Uiso   1.00
H444   H     0.64251   0.95879   0.96092   0.00000  Uiso   1.00
H445   H     0.50440   0.57704   0.89745   0.00000  Uiso   1.00
H446   H     0.38442   0.50735   0.92961   0.00000  Uiso   1.00
H447   H     0.50681   0.56737   0.83473   0.00000  Uiso   1.00
H448   H     0.63310   0.63470   0.92807   0.00000  Uiso   1.00
H449   H     0.23385   0.46431   0.96511   0.00000  Uiso   1.00
H450   H     0.49194   0.59088   0.76505   0.00000  Uiso   1.00
H451   H     0.75825   0.73286   0.96188   0.00000  Uiso   1.00
O452   O     0.09460   0.53618   0.98576   0.00000  Uiso   1.00
O453   O     0.43322   0.70225   0.72328   0.00000  Uiso   1.00
O454   O     0.78261   0.88852   0.98153   0.00000  Uiso   1.00
N455   N     0.16182   0.64664   0.95997   0.00000  Uiso   1.00
N456   N     0.40311   0.76497   0.77292   0.00000  Uiso   1.00
N457   N     0.65210   0.89771   0.95694   0.00000  Uiso   1.00
N458   N     0.22410   0.52507   0.96049   0.00000  Uiso   1.00
N459   N     0.46539   0.64340   0.77344   0.00000  Uiso   1.00
N460   N     0.71437   0.77614   0.95746   0.00000  Uiso   1.00
C461   C     0.59981   0.21953   0.89658   0.00000  Uiso   1.00
C462   C     0.65028   0.28612   0.91418   0.00000  Uiso   1.00
C463   C     0.72741   0.27439   0.92869   0.00000  Uiso   1.00
C464   C     0.76340   0.34315   0.94355   0.00000  Uiso   1.00
C465   C     0.84783   0.43474   0.97082   0.00000  Uiso   1.00
C466   C     0.58379   0.25352   0.86263   0.00000  Uiso   1.00
C467   C     0.60501   0.21437   0.83379   0.00000  Uiso   1.00
C468   C     0.58502   0.25567   0.80526   0.00000  Uiso   1.00
C469   C     0.56617   0.29662   0.75248   0.00000  Uiso   1.00
C470   C     0.51518   0.21694   0.91335   0.00000  Uiso   1.00
C471   C     0.47870   0.14702   0.92715   0.00000  Uiso   1.00
C472   C     0.40093   0.15753   0.94131   0.00000  Uiso   1.00
C473   C     0.27555   0.14168   0.96729   0.00000  Uiso   1.00
C474   C     0.52657   0.36250   0.89719   0.00000  Uiso   1.00
C475   C     0.61050   0.36377   0.91451   0.00000  Uiso   1.00
C476   C     0.64638   0.43257   0.92936   0.00000  Uiso   1.00
C477   C     0.72355   0.42094   0.94389   0.00000  Uiso   1.00
C478   C     0.54401   0.33117   0.86296   0.00000  Uiso   1.00
C479   C     0.52398   0.37254   0.83446   0.00000  Uiso   1.00
C480   C     0.54516   0.33347   0.80559   0.00000  Uiso   1.00
C481   C     0.47540   0.29459   0.91368   0.00000  Uiso   1.00
C482   C     0.39767   0.30520   0.92782   0.00000  Uiso   1.00
C483   C     0.36107   0.23532   0.94164   0.00000  Uiso   1.00
H484   H     0.63079   0.15908   0.89632   0.00000  Uiso   1.00
H485   H     0.75818   0.21429   0.92842   0.00000  Uiso   1.00
H486   H     0.63579   0.15427   0.83354   0.00000  Uiso   1.00
H487   H     0.50950   0.08694   0.92689   0.00000  Uiso   1.00
H488   H     0.88189   0.30976   0.96415   0.00000  Uiso   1.00
H489   H     0.62380   0.18319   0.76408   0.00000  Uiso   1.00
H490   H     0.35749   0.04121   0.96092   0.00000  Uiso   1.00
H491   H     0.49560   0.42296   0.89745   0.00000  Uiso   1.00
H492   H     0.61558   0.49265   0.92961   0.00000  Uiso   1.00
H493   H     0.49319   0.43263   0.83473   0.00000  Uiso   1.00
H494   H     0.36690   0.36530   0.92807   0.00000  Uiso   1.00
H495   H     0.76615   0.53569   0.96511   0.00000  Uiso   1.00
H496   H     0.50806   0.40912   0.76505   0.00000  Uiso   1.00
H497   H     0.24175   0.26714   0.96188   0.00000  Uiso   1.00
O498   O     0.90540   0.46382   0.98576   0.00000  Uiso   1.00
O499   O     0.56678   0.29775   0.72328   0.00000  Uiso   1.00
O500   O     0.21739   0.11148   0.98153   0.00000  Uiso   1.00
N501   N     0.83818   0.35336   0.95997   0.00000  Uiso   1.00
N502   N     0.59689   0.23503   0.77292   0.00000  Uiso   1.00
N503   N     0.34790   0.10229   0.95694   0.00000  Uiso   1.00
N504   N     0.77590   0.47493   0.96049   0.00000  Uiso   1.00
N505   N     0.53461   0.35660   0.77344   0.00000  Uiso   1.00
N506   N     0.28563   0.22386   0.95746   0.00000  Uiso   1.00
C507   C     0.09981   0.71953   0.39658   0.00000  Uiso   1.00
C508   C     0.15028   0.78612   0.41418   0.00000  Uiso   1.00
C509   C     0.22741   0.77439   0.42869   0.00000  Uiso   1.00
C510   C     0.26340   0.84315   0.44355   0.00000  Uiso   1.00
C511   C     0.34783   0.93474   0.47082   0.00000  Uiso   1.00
C512   C     0.08379   0.75352   0.36263   0.00000  Uiso   1.00
C513   C     0.10501   0.71437   0.33379   0.00000  Uiso   1.00
C514   C     0.08502   0.75567   0.30526   0.00000  Uiso   1.00
C515   C     0.06617   0.79662   0.25248   0.00000  Uiso   1.00
C516   C     0.01518   0.71694   0.41335   0.00000  Uiso   1.00
C517   C     0.97870   0.64702   0.42715   0.00000  Uiso   1.00
C518   C     0.90093   0.65753   0.44131   0.00000  Uiso   1.00
C519   C     0.77555   0.64168   0.46729   0.00000  Uiso   1.00
C520   C     0.02657   0.86250   0.39719   0.00000  Uiso   1.00
C521   C     0.11050   0.86377   0.41451   0.00000  Uiso   1.00
C522   C     0.14638   0.93257   0.42936   0.00000  Uiso   1.00
C523   C     0.22355   0.92094   0.44389   0.00000  Uiso   1.00
C524   C     0.04401   0.83117   0.36296   0.00000  Uiso   1.00
C525   C     0.02398   0.87254   0.33446   0.00000  Uiso   1.00
C526   C     0.04516   0.83347   0.30559   0.00000  Uiso   1.00
C527   C     0.97540   0.79459   0.41368   0.00000  Uiso   1.00
C528   C     0.89767   0.80520   0.42782   0.00000  Uiso   1.00
C529   C     0.86107   0.73532   0.44164   0.00000  Uiso   1.00
H530   H     0.13079   0.65908   0.39632   0.00000  Uiso   1.00
H531   H     0.25818   0.71429   0.42842   0.00000  Uiso   1.00
H532   H     0.13579   0.65427   0.33354   0.00000  Uiso   1.00
H533   H     0.00950   0.58694   0.42689   0.00000  Uiso   1.00
H534   H     0.38189   0.80976   0.46415   0.00000  Uiso   1.00
H535   H     0.12380   0.68319   0.26408   0.00000  Uiso   1.00
H536   H     0.85749   0.54121   0.46092   0.00000  Uiso   1.00
H537   H     0.99560   0.92296   0.39745   0.00000  Uiso   1.00
H538   H     0.11558   0.99265   0.42961   0.00000  Uiso   1.00
H539   H     0.99319   0.93263   0.33473   0.00000  Uiso   1.00
H540   H     0.86690   0.86530   0.42807   0.00000  Uiso   1.00
H541   H     0.26615   0.03569   0.46511   0.00000  Uiso   1.00
H542   H     0.00806   0.90912   0.26505   0.00000  Uiso   1.00
H543   H     0.74175   0.76714   0.46188   0.00000  Uiso   1.00
O544   O     0.40540   0.96382   0.48576   0.00000  Uiso   1.00
O545   O     0.06678   0.79775   0.22328   0.00000  Uiso   1.00
O546   O     0.71739   0.61148   0.48153   0.00000  Uiso   1.00
N547   N     0.33818   0.85336   0.45997   0.00000  Uiso   1.00
N548   N     0.09689   0.73503   0.27292   0.00000  Uiso   1.00
N549   N     0.84790   0.60229   0.45694   0.00000  Uiso   1.00
N550   N     0.27590   0.97493   0.46049   0.00000  Uiso   1.00
N551   N     0.03461   0.85660   0.27344   0.00000  Uiso   1.00
N552   N     0.78563   0.72386   0.45746   0.00000  Uiso   1.00
C553   C     0.21953   0.90019   0.14658   0.00000  Uiso   1.00
C554   C     0.28612   0.84972   0.16418   0.00000  Uiso   1.00
C555   C     0.27439   0.77259   0.17869   0.00000  Uiso   1.00
C556   C     0.34315   0.73660   0.19355   0.00000  Uiso   1.00
C557   C     0.43474   0.65217   0.22082   0.00000  Uiso   1.00
C558   C     0.25352   0.91621   0.11263   0.00000  Uiso   1.00
C559   C     0.21437   0.89499   0.08379   0.00000  Uiso   1.00
C560   C     0.25567   0.91498   0.05526   0.00000  Uiso   1.00
C561   C     0.29662   0.93383   0.00248   0.00000  Uiso   1.00
C562   C     0.21694   0.98482   0.16335   0.00000  Uiso   1.00
C563   C     0.14702   0.02130   0.17715   0.00000  Uiso   1.00
C564   C     0.15753   0.09907   0.19131   0.00000  Uiso   1.00
C565   C     0.14168   0.22445   0.21729   0.00000  Uiso   1.00
C566   C     0.36250   0.97343   0.14719   0.00000  Uiso   1.00
C567   C     0.36377   0.88950   0.16451   0.00000  Uiso   1.00
C568   C     0.43257   0.85362   0.17936   0.00000  Uiso   1.00
C569   C     0.42094   0.77645   0.19389   0.00000  Uiso   1.00
C570   C     0.33117   0.95599   0.11296   0.00000  Uiso   1.00
C571   C     0.37254   0.97602   0.08446   0.00000  Uiso   1.00
C572   C     0.33347   0.95484   0.05559   0.00000  Uiso   1.00
C573   C     0.29459   0.02460   0.16368   0.00000  Uiso   1.00
C574   C     0.30520   0.10233   0.17782   0.00000  Uiso   1.00
C575   C     0.23532   0.13893   0.19164   0.00000  Uiso   1.00
H576   H     0.15908   0.86921   0.14632   0.00000  Uiso   1.00
H577   H     0.21429   0.74182   0.17842   0.00000  Uiso   1.00
H578   H     0.15427   0.86421   0.08354   0.00000  Uiso   1.00
H579   H     0.08694   0.99050   0.17689   0.00000  Uiso   1.00
H580   H     0.30976   0.61811   0.21415   0.00000  Uiso   1.00
H581   H     0.18319   0.87620   0.01408   0.00000  Uiso   1.00
H582   H     0.04121   0.14251   0.21092   0.00000  Uiso   1.00
H583   H     0.42296   0.00440   0.14745   0.00000  Uiso   1.00
H584   H     0.49265   0.88442   0.17961   0.00000  Uiso   1.00
H585   H     0.43263   0.00681   0.08473   0.00000  Uiso   1.00
H586   H     0.36530   0.13310   0.17807   0.00000  Uiso   1.00
H587   H     0.53569   0.73385   0.21511   0.00000  Uiso   1.00
H588   H     0.40912   0.99194   0.01505   0.00000  Uiso   1.00
H589   H     0.26714   0.25825   0.21188   0.00000  Uiso   1.00
O590   O     0.46382   0.59460   0.23576   0.00000  Uiso   1.00
O591   O     0.29775   0.93322   0.97328   0.00000  Uiso   1.00
O592   O     0.11148   0.28261   0.23153   0.00000  Uiso   1.00
N593   N     0.35336   0.66182   0.20997   0.00000  Uiso   1.00
N594   N     0.23503   0.90311   0.02292   0.00000  Uiso   1.00
N595   N     0.10229   0.15210   0.20694   0.00000  Uiso   1.00
N596   N     0.47493   0.72410   0.21049   0.00000  Uiso   1.00
N597   N     0.35660   0.96539   0.02344   0.00000  Uiso   1.00
N598   N     0.22386   0.21437   0.20746   0.00000  Uiso   1.00
C599   C     0.71953   0.40019   0.64658   0.00000  Uiso   1.00
C600   C     0.78612   0.34972   0.66418   0.00000  Uiso   1.00
C601   C     0.77439   0.27259   0.67869   0.00000  Uiso   1.00
C602   C     0.84315   0.23660   0.69355   0.00000  Uiso   1.00
C603   C     0.93474   0.15217   0.72082   0.00000  Uiso   1.00
C604   C     0.75352   0.41621   0.61263   0.00000  Uiso   1.00
C605   C     0.71437   0.39499   0.58379   0.00000  Uiso   1.00
C606   C     0.75567   0.41498   0.55526   0.00000  Uiso   1.00
C607   C     0.79662   0.43383   0.50248   0.00000  Uiso   1.00
C608   C     0.71694   0.48482   0.66335   0.00000  Uiso   1.00
C609   C     0.64702   0.52130   0.67715   0.00000  Uiso   1.00
C610   C     0.65753   0.59907   0.69131   0.00000  Uiso   1.00
C611   C     0.64168   0.72445   0.71729   0.00000  Uiso   1.00
C612   C     0.86250   0.47343   0.64719   0.00000  Uiso   1.00
C613   C     0.86377   0.38950   0.66451   0.00000  Uiso   1.00
C614   C     0.93257   0.35362   0.67936   0.00000  Uiso   1.00
C615   C     0.92094   0.27645   0.69389   0.00000  Uiso   1.00
C616   C     0.83117   0.45599   0.61296   0.00000  Uiso   1.00
C617   C     0.87254   0.47602   0.58446   0.00000  Uiso   1.00
C618   C     0.83347   0.45484   0.55559   0.00000  Uiso   1.00
C619   C     0.79459   0.52460   0.66368   0.00000  Uiso   1.00
C620   C     0.80520   0.60233   0.67782   0.00000  Uiso   1.00
C621   C     0.73532   0.63893   0.69164   0.00000  Uiso   1.00
H622   H     0.65908   0.36921   0.64632   0.00000  Uiso   1.00
H623   H     0.71429   0.24182   0.67842   0.00000  Uiso   1.00
H624   H     0.65427   0.36421   0.58354   0.00000  Uiso   1.00
H625   H     0.58694   0.49050   0.67689   0.00000  Uiso   1.00
H626   H     0.80976   0.11811   0.71415   0.00000  Uiso   1.00
H627   H     0.68319   0.37620   0.51408   0.00000  Uiso   1.00
H628   H     0.54121   0.64251   0.71092   0.00000  Uiso   1.00
H629   H     0.92296   0.50440   0.64745   0.00000  Uiso   1.00
H630   H     0.99265   0.38442   0.67961   0.00000  Uiso   1.00
H631   H     0.93263   0.50681   0.58473   0.00000  Uiso   1.00
H632   H     0.86530   0.63310   0.67807   0.00000  Uiso   1.00
H633   H     0.03569   0.23385   0.71511   0.00000  Uiso   1.00
H634   H     0.90912   0.49194   0.51505   0.00000  Uiso   1.00
H635   H     0.76714   0.75825   0.71188   0.00000  Uiso   1.00
O636   O     0.96382   0.09460   0.73576   0.00000  Uiso   1.00
O637   O     0.79775   0.43322   0.47328   0.00000  Uiso   1.00
O638   O     0.61148   0.78261   0.73153   0.00000  Uiso   1.00
N639   N     0.85336   0.16182   0.70997   0.00000  Uiso   1.00
N640   N     0.73503   0.40311   0.52292   0.00000  Uiso   1.00
N641   N     0.60229   0.65210   0.70694   0.00000  Uiso   1.00
N642   N     0.97493   0.22410   0.71049   0.00000  Uiso   1.00
N643   N     0.85660   0.46539   0.52344   0.00000  Uiso   1.00
N644   N     0.72386   0.71437   0.70746   0.00000  Uiso   1.00
C645   C     0.28047   0.59981   0.64658   0.00000  Uiso   1.00
C646   C     0.21388   0.65028   0.66418   0.00000  Uiso   1.00
C647   C     0.22561   0.72741   0.67869   0.00000  Uiso   1.00
C648   C     0.15685   0.76340   0.69355   0.00000  Uiso   1.00
C649   C     0.06526   0.84783   0.72082   0.00000  Uiso   1.00
C650   C     0.24648   0.58379   0.61263   0.00000  Uiso   1.00
C651   C     0.28563   0.60501   0.58379   0.00000  Uiso   1.00
C652   C     0.24433   0.58502   0.55526   0.00000  Uiso   1.00
C653   C     0.20338   0.56617   0.50248   0.00000  Uiso   1.00
C654   C     0.28306   0.51518   0.66335   0.00000  Uiso   1.00
C655   C     0.35298   0.47870   0.67715   0.00000  Uiso   1.00
C656   C     0.34247   0.40093   0.69131   0.00000  Uiso   1.00
C657   C     0.35832   0.27555   0.71729   0.00000  Uiso   1.00
C658   C     0.13750   0.52657   0.64719   0.00000  Uiso   1.00
C659   C     0.13623   0.61050   0.66451   0.00000  Uiso   1.00
C660   C     0.06743   0.64638   0.67936   0.00000  Uiso   1.00
C661   C     0.07906   0.72355   0.69389   0.00000  Uiso   1.00
C662   C     0.16883   0.54401   0.61296   0.00000  Uiso   1.00
C663   C     0.12746   0.52398   0.58446   0.00000  Uiso   1.00
C664   C     0.16653   0.54516   0.55559   0.00000  Uiso   1.00
C665   C     0.20541   0.47540   0.66368   0.00000  Uiso   1.00
C666   C     0.19480   0.39767   0.67782   0.00000  Uiso   1.00
C667   C     0.26468   0.36107   0.69164   0.00000  Uiso   1.00
H668   H     0.34092   0.63079   0.64632   0.00000  Uiso   1.00
H669   H     0.28571   0.75818   0.67842   0.00000  Uiso   1.00
H670   H     0.34573   0.63579   0.58354   0.00000  Uiso   1.00
H671   H     0.41306   0.50950   0.67689   0.00000  Uiso   1.00
H672   H     0.19024   0.88189   0.71415   0.00000  Uiso   1.00
H673   H     0.31681   0.62380   0.51408   0.00000  Uiso   1.00
H674   H     0.45879   0.35749   0.71092   0.00000  Uiso   1.00
H675   H     0.07704   0.49560   0.64745   0.00000  Uiso   1.00
H676   H     0.00735   0.61558   0.67961   0.00000  Uiso   1.00
H677   H     0.06737   0.49319   0.58473   0.00000  Uiso   1.00
H678   H     0.13470   0.36690   0.67807   0.00000  Uiso   1.00
H679   H     0.96431   0.76615   0.71511   0.00000  Uiso   1.00
H680   H     0.09088   0.50806   0.51505   0.00000  Uiso   1.00
H681   H     0.23286   0.24175   0.71188   0.00000  Uiso   1.00
O682   O     0.03618   0.90540   0.73576   0.00000  Uiso   1.00
O683   O     0.20225   0.56678   0.47328   0.00000  Uiso   1.00
O684   O     0.38852   0.21739   0.73153   0.00000  Uiso   1.00
N685   N     0.14664   0.83818   0.70997   0.00000  Uiso   1.00
N686   N     0.26497   0.59689   0.52292   0.00000  Uiso   1.00
N687   N     0.39771   0.34790   0.70694   0.00000  Uiso   1.00
N688   N     0.02507   0.77590   0.71049   0.00000  Uiso   1.00
N689   N     0.14340   0.53461   0.52344   0.00000  Uiso   1.00
N690   N     0.27614   0.28563   0.70746   0.00000  Uiso   1.00
C691   C     0.78047   0.09981   0.14658   0.00000  Uiso   1.00
C692   C     0.71388   0.15028   0.16418   0.00000  Uiso   1.00
C693   C     0.72561   0.22741   0.17869   0.00000  Uiso   1.00
C694   C     0.65685   0.26340   0.19355   0.00000  Uiso   1.00
C695   C     0.56526   0.34783   0.22082   0.00000  Uiso   1.00
C696   C     0.74648   0.08379   0.11263   0.00000  Uiso   1.00
C697   C     0.78563   0.10501   0.08379   0.00000  Uiso   1.00
C698   C     0.74433   0.08502   0.05526   0.00000  Uiso   1.00
C699   C     0.70338   0.06617   0.00248   0.00000  Uiso   1.00
C700   C     0.78306   0.01518   0.16335   0.00000  Uiso   1.00
C701   C     0.85298   0.97870   0.17715   0.00000  Uiso   1.00
C702   C     0.84247   0.90093   0.19131   0.00000  Uiso   1.00
C703   C     0.85832   0.77555   0.21729   0.00000  Uiso   1.00
C704   C     0.63750   0.02657   0.14719   0.00000  Uiso   1.00
C705   C     0.63623   0.11050   0.16451   0.00000  Uiso   1.00
C706   C     0.56743   0.14638   0.17936   0.00000  Uiso   1.00
C707   C     0.57906   0.22355   0.19389   0.00000  Uiso   1.00
C708   C     0.66883   0.04401   0.11296   0.00000  Uiso   1.00
C709   C     0.62746   0.02398   0.08446   0.00000  Uiso   1.00
C710   C     0.66653   0.04516   0.05559   0.00000  Uiso   1.00
C711   C     0.70541   0.97540   0.16368   0.00000  Uiso   1.00
C712   C     0.69480   0.89767   0.17782   0.00000  Uiso   1.00
C713   C     0.76468   0.86107   0.19164   0.00000  Uiso   1.00
H714   H     0.84092   0.13079   0.14632   0.00000  Uiso   1.00
H715   H     0.78571   0.25818   0.17842   0.00000  Uiso   1.00
H716   H     0.84573   0.13579   0.08354   0.00000  Uiso   1.00
H717   H     0.91306   0.00950   0.17689   0.00000  Uiso   1.00
H718   H     0.69024   0.38189   0.21415   0.00000  Uiso   1.00
H719   H     0.81681   0.12380   0.01408   0.00000  Uiso   1.00
H720   H     0.95879   0.85749   0.21092   0.00000  Uiso   1.00
H721   H     0.57704   0.99560   0.14745   0.00000  Uiso   1.00
H722   H     0.50735   0.11558   0.17961   0.00000  Uiso   1.00
H723   H     0.56737   0.99319   0.08473   0.00000  Uiso   1.00
H724   H     0.63470   0.86690   0.17807   0.00000  Uiso   1.00
H725   H     0.46431   0.26615   0.21511   0.00000  Uiso   1.00
H726   H     0.59088   0.00806   0.01505   0.00000  Uiso   1.00
H727   H     0.73286   0.74175   0.21188   0.00000  Uiso   1.00
O728   O     0.53618   0.40540   0.23576   0.00000  Uiso   1.00
O729   O     0.70225   0.06678   0.97328   0.00000  Uiso   1.00
O730   O     0.88852   0.71739   0.23153   0.00000  Uiso   1.00
N731   N     0.64664   0.33818   0.20997   0.00000  Uiso   1.00
N732   N     0.76497   0.09689   0.02292   0.00000  Uiso   1.00
N733   N     0.89771   0.84790   0.20694   0.00000  Uiso   1.00
N734   N     0.52507   0.27590   0.21049   0.00000  Uiso   1.00
N735   N     0.64340   0.03461   0.02344   0.00000  Uiso   1.00
N736   N     0.77614   0.78563   0.20746   0.00000  Uiso   1.00
