data_job_01488
_audit_creation_date              2018-12-19
_audit_creation_method            'Materials Studio'
_symmetry_space_group_name_H-M    'P1'
_symmetry_Int_Tables_number       1
_symmetry_cell_setting            triclinic
loop_
_symmetry_equiv_pos_as_xyz
  x,y,z
_cell_length_a                    22.4970
_cell_length_b                    22.4970
_cell_length_c                    20.3102
_cell_angle_alpha                 90.0000
_cell_angle_beta                  90.0000
_cell_angle_gamma                 90.0000
loop_
_atom_site_label
_atom_site_type_symbol
_atom_site_fract_x
_atom_site_fract_y
_atom_site_fract_z
_atom_site_U_iso_or_equiv
_atom_site_adp_type
_atom_site_occupancy
C1     C     0.08743   0.56727   0.94017   0.00000  Uiso   1.00
C2     C     0.08352   0.58139   0.01348   0.00000  Uiso   1.00
C3     C     0.03417   0.60422   0.04573   0.00000  Uiso   1.00
C4     C     0.03952   0.61407   0.11295   0.00000  Uiso   1.00
C5     C     0.02544   0.63793   0.22165   0.00000  Uiso   1.00
C6     C     0.14025   0.60259   0.91403   0.00000  Uiso   1.00
C7     C     0.13859   0.64324   0.86267   0.00000  Uiso   1.00
C8     C     0.19170   0.67092   0.84617   0.00000  Uiso   1.00
C9     C     0.26570   0.72766   0.80045   0.00000  Uiso   1.00
C10    C     0.10517   0.50199   0.93550   0.00000  Uiso   1.00
C11    C     0.07402   0.45806   0.90218   0.00000  Uiso   1.00
C12    C     0.09761   0.40104   0.90375   0.00000  Uiso   1.00
C13    C     0.11713   0.30158   0.89136   0.00000  Uiso   1.00
C14    C     0.18471   0.54414   0.00220   0.00000  Uiso   1.00
C15    C     0.13636   0.56883   0.04717   0.00000  Uiso   1.00
C16    C     0.14180   0.57863   0.11436   0.00000  Uiso   1.00
C17    C     0.09246   0.60148   0.14671   0.00000  Uiso   1.00
C18    C     0.19309   0.59003   0.94772   0.00000  Uiso   1.00
C19    C     0.24622   0.61765   0.93130   0.00000  Uiso   1.00
C20    C     0.24464   0.65834   0.87993   0.00000  Uiso   1.00
C21    C     0.15801   0.48942   0.96920   0.00000  Uiso   1.00
C22    C     0.18165   0.43247   0.97081   0.00000  Uiso   1.00
C23    C     0.15054   0.38845   0.93750   0.00000  Uiso   1.00
H24    H     0.04629   0.57705   0.91393   0.00000  Uiso   1.00
H25    H     0.99329   0.61395   0.01963   0.00000  Uiso   1.00
H26    H     0.09770   0.65295   0.83660   0.00000  Uiso   1.00
H27    H     0.03313   0.46779   0.87611   0.00000  Uiso   1.00
H28    H     0.95783   0.64933   0.15168   0.00000  Uiso   1.00
H29    H     0.17798   0.73156   0.76572   0.00000  Uiso   1.00
H30    H     0.04185   0.34112   0.84903   0.00000  Uiso   1.00
H31    H     0.22585   0.53436   0.02843   0.00000  Uiso   1.00
H32    H     0.18269   0.56891   0.14042   0.00000  Uiso   1.00
H33    H     0.28710   0.60791   0.95738   0.00000  Uiso   1.00
H34    H     0.22254   0.42276   0.99689   0.00000  Uiso   1.00
H35    H     0.11156   0.61278   0.24971   0.00000  Uiso   1.00
H36    H     0.33171   0.69500   0.86375   0.00000  Uiso   1.00
H37    H     0.19557   0.30457   0.94707   0.00000  Uiso   1.00
O38    O     0.00307   0.65457   0.27229   0.00000  Uiso   1.00
O39    O     0.29191   0.76244   0.76593   0.00000  Uiso   1.00
O40    O     0.11330   0.25020   0.87523   0.00000  Uiso   1.00
N41    N     0.99993   0.63597   0.15938   0.00000  Uiso   1.00
N42    N     0.20576   0.71286   0.79854   0.00000  Uiso   1.00
N43    N     0.07849   0.34784   0.87642   0.00000  Uiso   1.00
N44    N     0.08265   0.61630   0.21214   0.00000  Uiso   1.00
N45    N     0.28848   0.69319   0.85130   0.00000  Uiso   1.00
N46    N     0.16121   0.32817   0.92917   0.00000  Uiso   1.00
C47    C     0.58743   0.06727   0.44017   0.00000  Uiso   1.00
C48    C     0.58352   0.08139   0.51348   0.00000  Uiso   1.00
C49    C     0.53417   0.10422   0.54573   0.00000  Uiso   1.00
C50    C     0.53952   0.11407   0.61295   0.00000  Uiso   1.00
C51    C     0.52544   0.13793   0.72165   0.00000  Uiso   1.00
C52    C     0.64025   0.10259   0.41403   0.00000  Uiso   1.00
C53    C     0.63859   0.14324   0.36267   0.00000  Uiso   1.00
C54    C     0.69170   0.17092   0.34617   0.00000  Uiso   1.00
C55    C     0.76570   0.22766   0.30045   0.00000  Uiso   1.00
C56    C     0.60517   0.00199   0.43550   0.00000  Uiso   1.00
C57    C     0.57402   0.95806   0.40218   0.00000  Uiso   1.00
C58    C     0.59761   0.90104   0.40375   0.00000  Uiso   1.00
C59    C     0.61713   0.80158   0.39136   0.00000  Uiso   1.00
C60    C     0.68471   0.04414   0.50220   0.00000  Uiso   1.00
C61    C     0.63636   0.06883   0.54717   0.00000  Uiso   1.00
C62    C     0.64180   0.07863   0.61436   0.00000  Uiso   1.00
C63    C     0.59246   0.10148   0.64671   0.00000  Uiso   1.00
C64    C     0.69309   0.09003   0.44772   0.00000  Uiso   1.00
C65    C     0.74622   0.11765   0.43130   0.00000  Uiso   1.00
C66    C     0.74464   0.15834   0.37993   0.00000  Uiso   1.00
C67    C     0.65801   0.98942   0.46920   0.00000  Uiso   1.00
C68    C     0.68165   0.93247   0.47081   0.00000  Uiso   1.00
C69    C     0.65054   0.88845   0.43750   0.00000  Uiso   1.00
H70    H     0.54629   0.07705   0.41393   0.00000  Uiso   1.00
H71    H     0.49329   0.11395   0.51963   0.00000  Uiso   1.00
H72    H     0.59770   0.15295   0.33660   0.00000  Uiso   1.00
H73    H     0.53313   0.96779   0.37611   0.00000  Uiso   1.00
H74    H     0.45783   0.14933   0.65168   0.00000  Uiso   1.00
H75    H     0.67798   0.23156   0.26572   0.00000  Uiso   1.00
H76    H     0.54185   0.84112   0.34903   0.00000  Uiso   1.00
H77    H     0.72585   0.03436   0.52843   0.00000  Uiso   1.00
H78    H     0.68269   0.06891   0.64042   0.00000  Uiso   1.00
H79    H     0.78710   0.10791   0.45738   0.00000  Uiso   1.00
H80    H     0.72254   0.92276   0.49689   0.00000  Uiso   1.00
H81    H     0.61156   0.11278   0.74971   0.00000  Uiso   1.00
H82    H     0.83171   0.19500   0.36375   0.00000  Uiso   1.00
H83    H     0.69557   0.80457   0.44707   0.00000  Uiso   1.00
O84    O     0.50307   0.15457   0.77229   0.00000  Uiso   1.00
O85    O     0.79191   0.26244   0.26593   0.00000  Uiso   1.00
O86    O     0.61330   0.75020   0.37523   0.00000  Uiso   1.00
N87    N     0.49993   0.13597   0.65938   0.00000  Uiso   1.00
N88    N     0.70576   0.21286   0.29854   0.00000  Uiso   1.00
N89    N     0.57849   0.84784   0.37642   0.00000  Uiso   1.00
N90    N     0.58265   0.11630   0.71214   0.00000  Uiso   1.00
N91    N     0.78848   0.19319   0.35130   0.00000  Uiso   1.00
N92    N     0.66121   0.82817   0.42917   0.00000  Uiso   1.00
C93    C     0.41257   0.93273   0.44017   0.00000  Uiso   1.00
C94    C     0.41648   0.91861   0.51348   0.00000  Uiso   1.00
C95    C     0.46583   0.89578   0.54573   0.00000  Uiso   1.00
C96    C     0.46048   0.88593   0.61295   0.00000  Uiso   1.00
C97    C     0.47456   0.86207   0.72165   0.00000  Uiso   1.00
C98    C     0.35975   0.89741   0.41403   0.00000  Uiso   1.00
C99    C     0.36141   0.85676   0.36267   0.00000  Uiso   1.00
C100   C     0.30830   0.82908   0.34617   0.00000  Uiso   1.00
C101   C     0.23430   0.77234   0.30045   0.00000  Uiso   1.00
C102   C     0.39483   0.99801   0.43550   0.00000  Uiso   1.00
C103   C     0.42598   0.04194   0.40218   0.00000  Uiso   1.00
C104   C     0.40239   0.09896   0.40375   0.00000  Uiso   1.00
C105   C     0.38287   0.19842   0.39136   0.00000  Uiso   1.00
C106   C     0.31529   0.95586   0.50220   0.00000  Uiso   1.00
C107   C     0.36364   0.93117   0.54717   0.00000  Uiso   1.00
C108   C     0.35820   0.92137   0.61436   0.00000  Uiso   1.00
C109   C     0.40754   0.89852   0.64671   0.00000  Uiso   1.00
C110   C     0.30691   0.90997   0.44772   0.00000  Uiso   1.00
C111   C     0.25378   0.88235   0.43130   0.00000  Uiso   1.00
C112   C     0.25536   0.84166   0.37993   0.00000  Uiso   1.00
C113   C     0.34199   0.01058   0.46920   0.00000  Uiso   1.00
C114   C     0.31835   0.06753   0.47081   0.00000  Uiso   1.00
C115   C     0.34946   0.11155   0.43750   0.00000  Uiso   1.00
H116   H     0.45371   0.92295   0.41393   0.00000  Uiso   1.00
H117   H     0.50671   0.88605   0.51963   0.00000  Uiso   1.00
H118   H     0.40230   0.84705   0.33660   0.00000  Uiso   1.00
H119   H     0.46687   0.03221   0.37611   0.00000  Uiso   1.00
H120   H     0.54217   0.85067   0.65168   0.00000  Uiso   1.00
H121   H     0.32202   0.76844   0.26572   0.00000  Uiso   1.00
H122   H     0.45815   0.15888   0.34903   0.00000  Uiso   1.00
H123   H     0.27415   0.96564   0.52843   0.00000  Uiso   1.00
H124   H     0.31731   0.93109   0.64042   0.00000  Uiso   1.00
H125   H     0.21290   0.89209   0.45738   0.00000  Uiso   1.00
H126   H     0.27746   0.07724   0.49689   0.00000  Uiso   1.00
H127   H     0.38844   0.88722   0.74971   0.00000  Uiso   1.00
H128   H     0.16829   0.80500   0.36375   0.00000  Uiso   1.00
H129   H     0.30443   0.19543   0.44707   0.00000  Uiso   1.00
O130   O     0.49693   0.84543   0.77229   0.00000  Uiso   1.00
O131   O     0.20809   0.73756   0.26593   0.00000  Uiso   1.00
O132   O     0.38670   0.24980   0.37523   0.00000  Uiso   1.00
N133   N     0.50007   0.86403   0.65938   0.00000  Uiso   1.00
N134   N     0.29424   0.78714   0.29854   0.00000  Uiso   1.00
N135   N     0.42151   0.15216   0.37642   0.00000  Uiso   1.00
N136   N     0.41735   0.88370   0.71214   0.00000  Uiso   1.00
N137   N     0.21152   0.80681   0.35130   0.00000  Uiso   1.00
N138   N     0.33879   0.17183   0.42917   0.00000  Uiso   1.00
C139   C     0.91257   0.43273   0.94017   0.00000  Uiso   1.00
C140   C     0.91648   0.41861   0.01348   0.00000  Uiso   1.00
C141   C     0.96583   0.39578   0.04573   0.00000  Uiso   1.00
C142   C     0.96048   0.38593   0.11295   0.00000  Uiso   1.00
C143   C     0.97456   0.36207   0.22165   0.00000  Uiso   1.00
C144   C     0.85975   0.39741   0.91403   0.00000  Uiso   1.00
C145   C     0.86141   0.35676   0.86267   0.00000  Uiso   1.00
C146   C     0.80830   0.32908   0.84617   0.00000  Uiso   1.00
C147   C     0.73430   0.27234   0.80045   0.00000  Uiso   1.00
C148   C     0.89483   0.49801   0.93550   0.00000  Uiso   1.00
C149   C     0.92598   0.54194   0.90218   0.00000  Uiso   1.00
C150   C     0.90239   0.59896   0.90375   0.00000  Uiso   1.00
C151   C     0.88287   0.69842   0.89136   0.00000  Uiso   1.00
C152   C     0.81529   0.45586   0.00220   0.00000  Uiso   1.00
C153   C     0.86364   0.43117   0.04717   0.00000  Uiso   1.00
C154   C     0.85820   0.42137   0.11436   0.00000  Uiso   1.00
C155   C     0.90754   0.39852   0.14671   0.00000  Uiso   1.00
C156   C     0.80691   0.40997   0.94772   0.00000  Uiso   1.00
C157   C     0.75378   0.38235   0.93130   0.00000  Uiso   1.00
C158   C     0.75536   0.34166   0.87993   0.00000  Uiso   1.00
C159   C     0.84199   0.51058   0.96920   0.00000  Uiso   1.00
C160   C     0.81835   0.56753   0.97081   0.00000  Uiso   1.00
C161   C     0.84946   0.61155   0.93750   0.00000  Uiso   1.00
H162   H     0.95371   0.42295   0.91393   0.00000  Uiso   1.00
H163   H     0.00671   0.38605   0.01963   0.00000  Uiso   1.00
H164   H     0.90230   0.34705   0.83660   0.00000  Uiso   1.00
H165   H     0.96687   0.53221   0.87611   0.00000  Uiso   1.00
H166   H     0.04217   0.35067   0.15168   0.00000  Uiso   1.00
H167   H     0.82202   0.26844   0.76572   0.00000  Uiso   1.00
H168   H     0.95815   0.65888   0.84903   0.00000  Uiso   1.00
H169   H     0.77415   0.46564   0.02843   0.00000  Uiso   1.00
H170   H     0.81731   0.43109   0.14042   0.00000  Uiso   1.00
H171   H     0.71290   0.39209   0.95738   0.00000  Uiso   1.00
H172   H     0.77746   0.57724   0.99689   0.00000  Uiso   1.00
H173   H     0.88844   0.38722   0.24971   0.00000  Uiso   1.00
H174   H     0.66829   0.30500   0.86375   0.00000  Uiso   1.00
H175   H     0.80443   0.69543   0.94707   0.00000  Uiso   1.00
O176   O     0.99693   0.34543   0.27229   0.00000  Uiso   1.00
O177   O     0.70809   0.23756   0.76593   0.00000  Uiso   1.00
O178   O     0.88670   0.74980   0.87523   0.00000  Uiso   1.00
N179   N     0.00007   0.36403   0.15938   0.00000  Uiso   1.00
N180   N     0.79424   0.28714   0.79854   0.00000  Uiso   1.00
N181   N     0.92151   0.65216   0.87642   0.00000  Uiso   1.00
N182   N     0.91735   0.38370   0.21214   0.00000  Uiso   1.00
N183   N     0.71152   0.30681   0.85130   0.00000  Uiso   1.00
N184   N     0.83879   0.67183   0.92917   0.00000  Uiso   1.00
C185   C     0.43273   0.58743   0.19017   0.00000  Uiso   1.00
C186   C     0.41861   0.58352   0.26348   0.00000  Uiso   1.00
C187   C     0.39578   0.53417   0.29573   0.00000  Uiso   1.00
C188   C     0.38593   0.53952   0.36295   0.00000  Uiso   1.00
C189   C     0.36207   0.52544   0.47165   0.00000  Uiso   1.00
C190   C     0.39741   0.64025   0.16403   0.00000  Uiso   1.00
C191   C     0.35676   0.63859   0.11267   0.00000  Uiso   1.00
C192   C     0.32908   0.69170   0.09617   0.00000  Uiso   1.00
C193   C     0.27234   0.76570   0.05045   0.00000  Uiso   1.00
C194   C     0.49801   0.60517   0.18550   0.00000  Uiso   1.00
C195   C     0.54194   0.57402   0.15218   0.00000  Uiso   1.00
C196   C     0.59896   0.59761   0.15375   0.00000  Uiso   1.00
C197   C     0.69842   0.61713   0.14136   0.00000  Uiso   1.00
C198   C     0.45586   0.68471   0.25220   0.00000  Uiso   1.00
C199   C     0.43117   0.63636   0.29717   0.00000  Uiso   1.00
C200   C     0.42137   0.64180   0.36436   0.00000  Uiso   1.00
C201   C     0.39852   0.59246   0.39671   0.00000  Uiso   1.00
C202   C     0.40997   0.69309   0.19772   0.00000  Uiso   1.00
C203   C     0.38235   0.74622   0.18130   0.00000  Uiso   1.00
C204   C     0.34166   0.74464   0.12993   0.00000  Uiso   1.00
C205   C     0.51058   0.65801   0.21920   0.00000  Uiso   1.00
C206   C     0.56753   0.68165   0.22081   0.00000  Uiso   1.00
C207   C     0.61155   0.65054   0.18750   0.00000  Uiso   1.00
H208   H     0.42295   0.54629   0.16393   0.00000  Uiso   1.00
H209   H     0.38605   0.49329   0.26963   0.00000  Uiso   1.00
H210   H     0.34705   0.59770   0.08660   0.00000  Uiso   1.00
H211   H     0.53221   0.53313   0.12611   0.00000  Uiso   1.00
H212   H     0.35067   0.45783   0.40168   0.00000  Uiso   1.00
H213   H     0.26844   0.67798   0.01572   0.00000  Uiso   1.00
H214   H     0.65888   0.54185   0.09903   0.00000  Uiso   1.00
H215   H     0.46564   0.72585   0.27843   0.00000  Uiso   1.00
H216   H     0.43109   0.68269   0.39042   0.00000  Uiso   1.00
H217   H     0.39209   0.78710   0.20738   0.00000  Uiso   1.00
H218   H     0.57724   0.72254   0.24689   0.00000  Uiso   1.00
H219   H     0.38722   0.61156   0.49971   0.00000  Uiso   1.00
H220   H     0.30500   0.83171   0.11375   0.00000  Uiso   1.00
H221   H     0.69543   0.69557   0.19707   0.00000  Uiso   1.00
O222   O     0.34543   0.50307   0.52229   0.00000  Uiso   1.00
O223   O     0.23756   0.79191   0.01593   0.00000  Uiso   1.00
O224   O     0.74980   0.61330   0.12523   0.00000  Uiso   1.00
N225   N     0.36403   0.49993   0.40938   0.00000  Uiso   1.00
N226   N     0.28714   0.70576   0.04854   0.00000  Uiso   1.00
N227   N     0.65216   0.57849   0.12642   0.00000  Uiso   1.00
N228   N     0.38370   0.58265   0.46214   0.00000  Uiso   1.00
N229   N     0.30681   0.78848   0.10130   0.00000  Uiso   1.00
N230   N     0.67183   0.66121   0.17917   0.00000  Uiso   1.00
C231   C     0.93273   0.08743   0.69017   0.00000  Uiso   1.00
C232   C     0.91861   0.08352   0.76348   0.00000  Uiso   1.00
C233   C     0.89578   0.03417   0.79573   0.00000  Uiso   1.00
C234   C     0.88593   0.03952   0.86295   0.00000  Uiso   1.00
C235   C     0.86207   0.02544   0.97165   0.00000  Uiso   1.00
C236   C     0.89741   0.14025   0.66403   0.00000  Uiso   1.00
C237   C     0.85676   0.13859   0.61267   0.00000  Uiso   1.00
C238   C     0.82908   0.19170   0.59617   0.00000  Uiso   1.00
C239   C     0.77234   0.26570   0.55045   0.00000  Uiso   1.00
C240   C     0.99801   0.10517   0.68550   0.00000  Uiso   1.00
C241   C     0.04194   0.07402   0.65218   0.00000  Uiso   1.00
C242   C     0.09896   0.09761   0.65375   0.00000  Uiso   1.00
C243   C     0.19842   0.11713   0.64136   0.00000  Uiso   1.00
C244   C     0.95586   0.18471   0.75220   0.00000  Uiso   1.00
C245   C     0.93117   0.13636   0.79717   0.00000  Uiso   1.00
C246   C     0.92137   0.14180   0.86436   0.00000  Uiso   1.00
C247   C     0.89852   0.09246   0.89671   0.00000  Uiso   1.00
C248   C     0.90997   0.19309   0.69772   0.00000  Uiso   1.00
C249   C     0.88235   0.24622   0.68130   0.00000  Uiso   1.00
C250   C     0.84166   0.24464   0.62993   0.00000  Uiso   1.00
C251   C     0.01058   0.15801   0.71920   0.00000  Uiso   1.00
C252   C     0.06753   0.18165   0.72081   0.00000  Uiso   1.00
C253   C     0.11155   0.15054   0.68750   0.00000  Uiso   1.00
H254   H     0.92295   0.04629   0.66393   0.00000  Uiso   1.00
H255   H     0.88605   0.99329   0.76963   0.00000  Uiso   1.00
H256   H     0.84705   0.09770   0.58660   0.00000  Uiso   1.00
H257   H     0.03221   0.03313   0.62611   0.00000  Uiso   1.00
H258   H     0.85067   0.95783   0.90168   0.00000  Uiso   1.00
H259   H     0.76844   0.17798   0.51572   0.00000  Uiso   1.00
H260   H     0.15888   0.04185   0.59903   0.00000  Uiso   1.00
H261   H     0.96564   0.22585   0.77843   0.00000  Uiso   1.00
H262   H     0.93109   0.18269   0.89042   0.00000  Uiso   1.00
H263   H     0.89209   0.28710   0.70738   0.00000  Uiso   1.00
H264   H     0.07724   0.22254   0.74689   0.00000  Uiso   1.00
H265   H     0.88722   0.11156   0.99971   0.00000  Uiso   1.00
H266   H     0.80500   0.33171   0.61375   0.00000  Uiso   1.00
H267   H     0.19543   0.19557   0.69707   0.00000  Uiso   1.00
O268   O     0.84543   0.00307   0.02229   0.00000  Uiso   1.00
O269   O     0.73756   0.29191   0.51593   0.00000  Uiso   1.00
O270   O     0.24980   0.11330   0.62523   0.00000  Uiso   1.00
N271   N     0.86403   0.99993   0.90938   0.00000  Uiso   1.00
N272   N     0.78714   0.20576   0.54854   0.00000  Uiso   1.00
N273   N     0.15216   0.07849   0.62642   0.00000  Uiso   1.00
N274   N     0.88370   0.08265   0.96214   0.00000  Uiso   1.00
N275   N     0.80681   0.28848   0.60130   0.00000  Uiso   1.00
N276   N     0.17183   0.16121   0.67917   0.00000  Uiso   1.00
C277   C     0.06727   0.91257   0.69017   0.00000  Uiso   1.00
C278   C     0.08139   0.91648   0.76348   0.00000  Uiso   1.00
C279   C     0.10422   0.96583   0.79573   0.00000  Uiso   1.00
C280   C     0.11407   0.96048   0.86295   0.00000  Uiso   1.00
C281   C     0.13793   0.97456   0.97165   0.00000  Uiso   1.00
C282   C     0.10259   0.85975   0.66403   0.00000  Uiso   1.00
C283   C     0.14324   0.86141   0.61267   0.00000  Uiso   1.00
C284   C     0.17092   0.80830   0.59617   0.00000  Uiso   1.00
C285   C     0.22766   0.73430   0.55045   0.00000  Uiso   1.00
C286   C     0.00199   0.89483   0.68550   0.00000  Uiso   1.00
C287   C     0.95806   0.92598   0.65218   0.00000  Uiso   1.00
C288   C     0.90104   0.90239   0.65375   0.00000  Uiso   1.00
C289   C     0.80158   0.88287   0.64136   0.00000  Uiso   1.00
C290   C     0.04414   0.81529   0.75220   0.00000  Uiso   1.00
C291   C     0.06883   0.86364   0.79717   0.00000  Uiso   1.00
C292   C     0.07863   0.85820   0.86436   0.00000  Uiso   1.00
C293   C     0.10148   0.90754   0.89671   0.00000  Uiso   1.00
C294   C     0.09003   0.80691   0.69772   0.00000  Uiso   1.00
C295   C     0.11765   0.75378   0.68130   0.00000  Uiso   1.00
C296   C     0.15834   0.75536   0.62993   0.00000  Uiso   1.00
C297   C     0.98942   0.84199   0.71920   0.00000  Uiso   1.00
C298   C     0.93247   0.81835   0.72081   0.00000  Uiso   1.00
C299   C     0.88845   0.84946   0.68750   0.00000  Uiso   1.00
H300   H     0.07705   0.95371   0.66393   0.00000  Uiso   1.00
H301   H     0.11395   0.00671   0.76963   0.00000  Uiso   1.00
H302   H     0.15295   0.90230   0.58660   0.00000  Uiso   1.00
H303   H     0.96779   0.96687   0.62611   0.00000  Uiso   1.00
H304   H     0.14933   0.04217   0.90168   0.00000  Uiso   1.00
H305   H     0.23156   0.82202   0.51572   0.00000  Uiso   1.00
H306   H     0.84112   0.95815   0.59903   0.00000  Uiso   1.00
H307   H     0.03436   0.77415   0.77843   0.00000  Uiso   1.00
H308   H     0.06891   0.81731   0.89042   0.00000  Uiso   1.00
H309   H     0.10791   0.71290   0.70738   0.00000  Uiso   1.00
H310   H     0.92276   0.77746   0.74689   0.00000  Uiso   1.00
H311   H     0.11278   0.88844   0.99971   0.00000  Uiso   1.00
H312   H     0.19500   0.66829   0.61375   0.00000  Uiso   1.00
H313   H     0.80457   0.80443   0.69707   0.00000  Uiso   1.00
O314   O     0.15457   0.99693   0.02229   0.00000  Uiso   1.00
O315   O     0.26244   0.70809   0.51593   0.00000  Uiso   1.00
O316   O     0.75020   0.88670   0.62523   0.00000  Uiso   1.00
N317   N     0.13597   0.00007   0.90938   0.00000  Uiso   1.00
N318   N     0.21286   0.79424   0.54854   0.00000  Uiso   1.00
N319   N     0.84784   0.92151   0.62642   0.00000  Uiso   1.00
N320   N     0.11630   0.91735   0.96214   0.00000  Uiso   1.00
N321   N     0.19319   0.71152   0.60130   0.00000  Uiso   1.00
N322   N     0.82817   0.83879   0.67917   0.00000  Uiso   1.00
C323   C     0.56727   0.41257   0.19017   0.00000  Uiso   1.00
C324   C     0.58139   0.41648   0.26348   0.00000  Uiso   1.00
C325   C     0.60422   0.46583   0.29573   0.00000  Uiso   1.00
C326   C     0.61407   0.46048   0.36295   0.00000  Uiso   1.00
C327   C     0.63793   0.47456   0.47165   0.00000  Uiso   1.00
C328   C     0.60259   0.35975   0.16403   0.00000  Uiso   1.00
C329   C     0.64324   0.36141   0.11267   0.00000  Uiso   1.00
C330   C     0.67092   0.30830   0.09617   0.00000  Uiso   1.00
C331   C     0.72766   0.23430   0.05045   0.00000  Uiso   1.00
C332   C     0.50199   0.39483   0.18550   0.00000  Uiso   1.00
C333   C     0.45806   0.42598   0.15218   0.00000  Uiso   1.00
C334   C     0.40104   0.40239   0.15375   0.00000  Uiso   1.00
C335   C     0.30158   0.38287   0.14136   0.00000  Uiso   1.00
C336   C     0.54414   0.31529   0.25220   0.00000  Uiso   1.00
C337   C     0.56883   0.36364   0.29717   0.00000  Uiso   1.00
C338   C     0.57863   0.35820   0.36436   0.00000  Uiso   1.00
C339   C     0.60148   0.40754   0.39671   0.00000  Uiso   1.00
C340   C     0.59003   0.30691   0.19772   0.00000  Uiso   1.00
C341   C     0.61765   0.25378   0.18130   0.00000  Uiso   1.00
C342   C     0.65834   0.25536   0.12993   0.00000  Uiso   1.00
C343   C     0.48942   0.34199   0.21920   0.00000  Uiso   1.00
C344   C     0.43247   0.31835   0.22081   0.00000  Uiso   1.00
C345   C     0.38845   0.34946   0.18750   0.00000  Uiso   1.00
H346   H     0.57705   0.45371   0.16393   0.00000  Uiso   1.00
H347   H     0.61395   0.50671   0.26963   0.00000  Uiso   1.00
H348   H     0.65295   0.40230   0.08660   0.00000  Uiso   1.00
H349   H     0.46779   0.46687   0.12611   0.00000  Uiso   1.00
H350   H     0.64933   0.54217   0.40168   0.00000  Uiso   1.00
H351   H     0.73156   0.32202   0.01572   0.00000  Uiso   1.00
H352   H     0.34112   0.45815   0.09903   0.00000  Uiso   1.00
H353   H     0.53436   0.27415   0.27843   0.00000  Uiso   1.00
H354   H     0.56891   0.31731   0.39042   0.00000  Uiso   1.00
H355   H     0.60791   0.21290   0.20738   0.00000  Uiso   1.00
H356   H     0.42276   0.27746   0.24689   0.00000  Uiso   1.00
H357   H     0.61278   0.38844   0.49971   0.00000  Uiso   1.00
H358   H     0.69500   0.16829   0.11375   0.00000  Uiso   1.00
H359   H     0.30457   0.30443   0.19707   0.00000  Uiso   1.00
O360   O     0.65457   0.49693   0.52229   0.00000  Uiso   1.00
O361   O     0.76244   0.20809   0.01593   0.00000  Uiso   1.00
O362   O     0.25020   0.38670   0.12523   0.00000  Uiso   1.00
N363   N     0.63597   0.50007   0.40938   0.00000  Uiso   1.00
N364   N     0.71286   0.29424   0.04854   0.00000  Uiso   1.00
N365   N     0.34784   0.42151   0.12642   0.00000  Uiso   1.00
N366   N     0.61630   0.41735   0.46214   0.00000  Uiso   1.00
N367   N     0.69319   0.21152   0.10130   0.00000  Uiso   1.00
N368   N     0.32817   0.33879   0.17917   0.00000  Uiso   1.00
C369   C     0.08743   0.43273   0.44017   0.00000  Uiso   1.00
C370   C     0.08352   0.41861   0.51348   0.00000  Uiso   1.00
C371   C     0.03417   0.39578   0.54573   0.00000  Uiso   1.00
C372   C     0.03952   0.38593   0.61295   0.00000  Uiso   1.00
C373   C     0.02544   0.36207   0.72165   0.00000  Uiso   1.00
C374   C     0.14025   0.39741   0.41403   0.00000  Uiso   1.00
C375   C     0.13859   0.35676   0.36267   0.00000  Uiso   1.00
C376   C     0.19170   0.32908   0.34617   0.00000  Uiso   1.00
C377   C     0.26570   0.27234   0.30045   0.00000  Uiso   1.00
C378   C     0.10517   0.49801   0.43550   0.00000  Uiso   1.00
C379   C     0.07402   0.54194   0.40218   0.00000  Uiso   1.00
C380   C     0.09761   0.59896   0.40375   0.00000  Uiso   1.00
C381   C     0.11713   0.69842   0.39136   0.00000  Uiso   1.00
C382   C     0.18471   0.45586   0.50220   0.00000  Uiso   1.00
C383   C     0.13636   0.43117   0.54717   0.00000  Uiso   1.00
C384   C     0.14180   0.42137   0.61436   0.00000  Uiso   1.00
C385   C     0.09246   0.39852   0.64671   0.00000  Uiso   1.00
C386   C     0.19309   0.40997   0.44772   0.00000  Uiso   1.00
C387   C     0.24622   0.38235   0.43130   0.00000  Uiso   1.00
C388   C     0.24464   0.34166   0.37993   0.00000  Uiso   1.00
C389   C     0.15801   0.51058   0.46920   0.00000  Uiso   1.00
C390   C     0.18165   0.56753   0.47081   0.00000  Uiso   1.00
C391   C     0.15054   0.61155   0.43750   0.00000  Uiso   1.00
H392   H     0.04629   0.42295   0.41393   0.00000  Uiso   1.00
H393   H     0.99329   0.38605   0.51963   0.00000  Uiso   1.00
H394   H     0.09770   0.34705   0.33660   0.00000  Uiso   1.00
H395   H     0.03313   0.53221   0.37611   0.00000  Uiso   1.00
H396   H     0.95783   0.35067   0.65168   0.00000  Uiso   1.00
H397   H     0.17798   0.26844   0.26572   0.00000  Uiso   1.00
H398   H     0.04185   0.65888   0.34903   0.00000  Uiso   1.00
H399   H     0.22585   0.46564   0.52843   0.00000  Uiso   1.00
H400   H     0.18269   0.43109   0.64042   0.00000  Uiso   1.00
H401   H     0.28710   0.39209   0.45738   0.00000  Uiso   1.00
H402   H     0.22254   0.57724   0.49689   0.00000  Uiso   1.00
H403   H     0.11156   0.38722   0.74971   0.00000  Uiso   1.00
H404   H     0.33171   0.30500   0.36375   0.00000  Uiso   1.00
H405   H     0.19557   0.69543   0.44707   0.00000  Uiso   1.00
O406   O     0.00307   0.34543   0.77229   0.00000  Uiso   1.00
O407   O     0.29191   0.23756   0.26593   0.00000  Uiso   1.00
O408   O     0.11330   0.74980   0.37523   0.00000  Uiso   1.00
N409   N     0.99993   0.36403   0.65938   0.00000  Uiso   1.00
N410   N     0.20576   0.28714   0.29854   0.00000  Uiso   1.00
N411   N     0.07849   0.65216   0.37642   0.00000  Uiso   1.00
N412   N     0.08265   0.38370   0.71214   0.00000  Uiso   1.00
N413   N     0.28848   0.30681   0.35130   0.00000  Uiso   1.00
N414   N     0.16121   0.67183   0.42917   0.00000  Uiso   1.00
C415   C     0.58743   0.93273   0.94017   0.00000  Uiso   1.00
C416   C     0.58352   0.91861   0.01348   0.00000  Uiso   1.00
C417   C     0.53417   0.89578   0.04573   0.00000  Uiso   1.00
C418   C     0.53952   0.88593   0.11295   0.00000  Uiso   1.00
C419   C     0.52544   0.86207   0.22165   0.00000  Uiso   1.00
C420   C     0.64025   0.89741   0.91403   0.00000  Uiso   1.00
C421   C     0.63859   0.85676   0.86267   0.00000  Uiso   1.00
C422   C     0.69170   0.82908   0.84617   0.00000  Uiso   1.00
C423   C     0.76570   0.77234   0.80045   0.00000  Uiso   1.00
C424   C     0.60517   0.99801   0.93550   0.00000  Uiso   1.00
C425   C     0.57402   0.04194   0.90218   0.00000  Uiso   1.00
C426   C     0.59761   0.09896   0.90375   0.00000  Uiso   1.00
C427   C     0.61713   0.19842   0.89136   0.00000  Uiso   1.00
C428   C     0.68471   0.95586   0.00220   0.00000  Uiso   1.00
C429   C     0.63636   0.93117   0.04717   0.00000  Uiso   1.00
C430   C     0.64180   0.92137   0.11436   0.00000  Uiso   1.00
C431   C     0.59246   0.89852   0.14671   0.00000  Uiso   1.00
C432   C     0.69309   0.90997   0.94772   0.00000  Uiso   1.00
C433   C     0.74622   0.88235   0.93130   0.00000  Uiso   1.00
C434   C     0.74464   0.84166   0.87993   0.00000  Uiso   1.00
C435   C     0.65801   0.01058   0.96920   0.00000  Uiso   1.00
C436   C     0.68165   0.06753   0.97081   0.00000  Uiso   1.00
C437   C     0.65054   0.11155   0.93750   0.00000  Uiso   1.00
H438   H     0.54629   0.92295   0.91393   0.00000  Uiso   1.00
H439   H     0.49329   0.88605   0.01963   0.00000  Uiso   1.00
H440   H     0.59770   0.84705   0.83660   0.00000  Uiso   1.00
H441   H     0.53313   0.03221   0.87611   0.00000  Uiso   1.00
H442   H     0.45783   0.85067   0.15168   0.00000  Uiso   1.00
H443   H     0.67798   0.76844   0.76572   0.00000  Uiso   1.00
H444   H     0.54185   0.15888   0.84903   0.00000  Uiso   1.00
H445   H     0.72585   0.96564   0.02843   0.00000  Uiso   1.00
H446   H     0.68269   0.93109   0.14042   0.00000  Uiso   1.00
H447   H     0.78710   0.89209   0.95738   0.00000  Uiso   1.00
H448   H     0.72254   0.07724   0.99689   0.00000  Uiso   1.00
H449   H     0.61156   0.88722   0.24971   0.00000  Uiso   1.00
H450   H     0.83171   0.80500   0.86375   0.00000  Uiso   1.00
H451   H     0.69557   0.19543   0.94707   0.00000  Uiso   1.00
O452   O     0.50307   0.84543   0.27229   0.00000  Uiso   1.00
O453   O     0.79191   0.73756   0.76593   0.00000  Uiso   1.00
O454   O     0.61330   0.24980   0.87523   0.00000  Uiso   1.00
N455   N     0.49993   0.86403   0.15938   0.00000  Uiso   1.00
N456   N     0.70576   0.78714   0.79854   0.00000  Uiso   1.00
N457   N     0.57849   0.15216   0.87642   0.00000  Uiso   1.00
N458   N     0.58265   0.88370   0.21214   0.00000  Uiso   1.00
N459   N     0.78848   0.80681   0.85130   0.00000  Uiso   1.00
N460   N     0.66121   0.17183   0.92917   0.00000  Uiso   1.00
C461   C     0.41257   0.06727   0.94017   0.00000  Uiso   1.00
C462   C     0.41648   0.08139   0.01348   0.00000  Uiso   1.00
C463   C     0.46583   0.10422   0.04573   0.00000  Uiso   1.00
C464   C     0.46048   0.11407   0.11295   0.00000  Uiso   1.00
C465   C     0.47456   0.13793   0.22165   0.00000  Uiso   1.00
C466   C     0.35975   0.10259   0.91403   0.00000  Uiso   1.00
C467   C     0.36141   0.14324   0.86267   0.00000  Uiso   1.00
C468   C     0.30830   0.17092   0.84617   0.00000  Uiso   1.00
C469   C     0.23430   0.22766   0.80045   0.00000  Uiso   1.00
C470   C     0.39483   0.00199   0.93550   0.00000  Uiso   1.00
C471   C     0.42598   0.95806   0.90218   0.00000  Uiso   1.00
C472   C     0.40239   0.90104   0.90375   0.00000  Uiso   1.00
C473   C     0.38287   0.80158   0.89136   0.00000  Uiso   1.00
C474   C     0.31529   0.04414   0.00220   0.00000  Uiso   1.00
C475   C     0.36364   0.06883   0.04717   0.00000  Uiso   1.00
C476   C     0.35820   0.07863   0.11436   0.00000  Uiso   1.00
C477   C     0.40754   0.10148   0.14671   0.00000  Uiso   1.00
C478   C     0.30691   0.09003   0.94772   0.00000  Uiso   1.00
C479   C     0.25378   0.11765   0.93130   0.00000  Uiso   1.00
C480   C     0.25536   0.15834   0.87993   0.00000  Uiso   1.00
C481   C     0.34199   0.98942   0.96920   0.00000  Uiso   1.00
C482   C     0.31835   0.93247   0.97081   0.00000  Uiso   1.00
C483   C     0.34946   0.88845   0.93750   0.00000  Uiso   1.00
H484   H     0.45371   0.07705   0.91393   0.00000  Uiso   1.00
H485   H     0.50671   0.11395   0.01963   0.00000  Uiso   1.00
H486   H     0.40230   0.15295   0.83660   0.00000  Uiso   1.00
H487   H     0.46687   0.96779   0.87611   0.00000  Uiso   1.00
H488   H     0.54217   0.14933   0.15168   0.00000  Uiso   1.00
H489   H     0.32202   0.23156   0.76572   0.00000  Uiso   1.00
H490   H     0.45815   0.84112   0.84903   0.00000  Uiso   1.00
H491   H     0.27415   0.03436   0.02843   0.00000  Uiso   1.00
H492   H     0.31731   0.06891   0.14042   0.00000  Uiso   1.00
H493   H     0.21290   0.10791   0.95738   0.00000  Uiso   1.00
H494   H     0.27746   0.92276   0.99689   0.00000  Uiso   1.00
H495   H     0.38844   0.11278   0.24971   0.00000  Uiso   1.00
H496   H     0.16829   0.19500   0.86375   0.00000  Uiso   1.00
H497   H     0.30443   0.80457   0.94707   0.00000  Uiso   1.00
O498   O     0.49693   0.15457   0.27229   0.00000  Uiso   1.00
O499   O     0.20809   0.26244   0.76593   0.00000  Uiso   1.00
O500   O     0.38670   0.75020   0.87523   0.00000  Uiso   1.00
N501   N     0.50007   0.13597   0.15938   0.00000  Uiso   1.00
N502   N     0.29424   0.21286   0.79854   0.00000  Uiso   1.00
N503   N     0.42151   0.84784   0.87642   0.00000  Uiso   1.00
N504   N     0.41735   0.11630   0.21214   0.00000  Uiso   1.00
N505   N     0.21152   0.19319   0.85130   0.00000  Uiso   1.00
N506   N     0.33879   0.82817   0.92917   0.00000  Uiso   1.00
C507   C     0.91257   0.56727   0.44017   0.00000  Uiso   1.00
C508   C     0.91648   0.58139   0.51348   0.00000  Uiso   1.00
C509   C     0.96583   0.60422   0.54573   0.00000  Uiso   1.00
C510   C     0.96048   0.61407   0.61295   0.00000  Uiso   1.00
C511   C     0.97456   0.63793   0.72165   0.00000  Uiso   1.00
C512   C     0.85975   0.60259   0.41403   0.00000  Uiso   1.00
C513   C     0.86141   0.64324   0.36267   0.00000  Uiso   1.00
C514   C     0.80830   0.67092   0.34617   0.00000  Uiso   1.00
C515   C     0.73430   0.72766   0.30045   0.00000  Uiso   1.00
C516   C     0.89483   0.50199   0.43550   0.00000  Uiso   1.00
C517   C     0.92598   0.45806   0.40218   0.00000  Uiso   1.00
C518   C     0.90239   0.40104   0.40375   0.00000  Uiso   1.00
C519   C     0.88287   0.30158   0.39136   0.00000  Uiso   1.00
C520   C     0.81529   0.54414   0.50220   0.00000  Uiso   1.00
C521   C     0.86364   0.56883   0.54717   0.00000  Uiso   1.00
C522   C     0.85820   0.57863   0.61436   0.00000  Uiso   1.00
C523   C     0.90754   0.60148   0.64671   0.00000  Uiso   1.00
C524   C     0.80691   0.59003   0.44772   0.00000  Uiso   1.00
C525   C     0.75378   0.61765   0.43130   0.00000  Uiso   1.00
C526   C     0.75536   0.65834   0.37993   0.00000  Uiso   1.00
C527   C     0.84199   0.48942   0.46920   0.00000  Uiso   1.00
C528   C     0.81835   0.43247   0.47081   0.00000  Uiso   1.00
C529   C     0.84946   0.38845   0.43750   0.00000  Uiso   1.00
H530   H     0.95371   0.57705   0.41393   0.00000  Uiso   1.00
H531   H     0.00671   0.61395   0.51963   0.00000  Uiso   1.00
H532   H     0.90230   0.65295   0.33660   0.00000  Uiso   1.00
H533   H     0.96687   0.46779   0.37611   0.00000  Uiso   1.00
H534   H     0.04217   0.64933   0.65168   0.00000  Uiso   1.00
H535   H     0.82202   0.73156   0.26572   0.00000  Uiso   1.00
H536   H     0.95815   0.34112   0.34903   0.00000  Uiso   1.00
H537   H     0.77415   0.53436   0.52843   0.00000  Uiso   1.00
H538   H     0.81731   0.56891   0.64042   0.00000  Uiso   1.00
H539   H     0.71290   0.60791   0.45738   0.00000  Uiso   1.00
H540   H     0.77746   0.42276   0.49689   0.00000  Uiso   1.00
H541   H     0.88844   0.61278   0.74971   0.00000  Uiso   1.00
H542   H     0.66829   0.69500   0.36375   0.00000  Uiso   1.00
H543   H     0.80443   0.30457   0.44707   0.00000  Uiso   1.00
O544   O     0.99693   0.65457   0.77229   0.00000  Uiso   1.00
O545   O     0.70809   0.76244   0.26593   0.00000  Uiso   1.00
O546   O     0.88670   0.25020   0.37523   0.00000  Uiso   1.00
N547   N     0.00007   0.63597   0.65938   0.00000  Uiso   1.00
N548   N     0.79424   0.71286   0.29854   0.00000  Uiso   1.00
N549   N     0.92151   0.34784   0.37642   0.00000  Uiso   1.00
N550   N     0.91735   0.61630   0.71214   0.00000  Uiso   1.00
N551   N     0.71152   0.69319   0.35130   0.00000  Uiso   1.00
N552   N     0.83879   0.32817   0.42917   0.00000  Uiso   1.00
C553   C     0.43273   0.41257   0.69017   0.00000  Uiso   1.00
C554   C     0.41861   0.41648   0.76348   0.00000  Uiso   1.00
C555   C     0.39578   0.46583   0.79573   0.00000  Uiso   1.00
C556   C     0.38593   0.46048   0.86295   0.00000  Uiso   1.00
C557   C     0.36207   0.47456   0.97165   0.00000  Uiso   1.00
C558   C     0.39741   0.35975   0.66403   0.00000  Uiso   1.00
C559   C     0.35676   0.36141   0.61267   0.00000  Uiso   1.00
C560   C     0.32908   0.30830   0.59617   0.00000  Uiso   1.00
C561   C     0.27234   0.23430   0.55045   0.00000  Uiso   1.00
C562   C     0.49801   0.39483   0.68550   0.00000  Uiso   1.00
C563   C     0.54194   0.42598   0.65218   0.00000  Uiso   1.00
C564   C     0.59896   0.40239   0.65375   0.00000  Uiso   1.00
C565   C     0.69842   0.38287   0.64136   0.00000  Uiso   1.00
C566   C     0.45586   0.31529   0.75220   0.00000  Uiso   1.00
C567   C     0.43117   0.36364   0.79717   0.00000  Uiso   1.00
C568   C     0.42137   0.35820   0.86436   0.00000  Uiso   1.00
C569   C     0.39852   0.40754   0.89671   0.00000  Uiso   1.00
C570   C     0.40997   0.30691   0.69772   0.00000  Uiso   1.00
C571   C     0.38235   0.25378   0.68130   0.00000  Uiso   1.00
C572   C     0.34166   0.25536   0.62993   0.00000  Uiso   1.00
C573   C     0.51058   0.34199   0.71920   0.00000  Uiso   1.00
C574   C     0.56753   0.31835   0.72081   0.00000  Uiso   1.00
C575   C     0.61155   0.34946   0.68750   0.00000  Uiso   1.00
H576   H     0.42295   0.45371   0.66393   0.00000  Uiso   1.00
H577   H     0.38605   0.50671   0.76963   0.00000  Uiso   1.00
H578   H     0.34705   0.40230   0.58660   0.00000  Uiso   1.00
H579   H     0.53221   0.46687   0.62611   0.00000  Uiso   1.00
H580   H     0.35067   0.54217   0.90168   0.00000  Uiso   1.00
H581   H     0.26844   0.32202   0.51572   0.00000  Uiso   1.00
H582   H     0.65888   0.45815   0.59903   0.00000  Uiso   1.00
H583   H     0.46564   0.27415   0.77843   0.00000  Uiso   1.00
H584   H     0.43109   0.31731   0.89042   0.00000  Uiso   1.00
H585   H     0.39209   0.21290   0.70738   0.00000  Uiso   1.00
H586   H     0.57724   0.27746   0.74689   0.00000  Uiso   1.00
H587   H     0.38722   0.38844   0.99971   0.00000  Uiso   1.00
H588   H     0.30500   0.16829   0.61375   0.00000  Uiso   1.00
H589   H     0.69543   0.30443   0.69707   0.00000  Uiso   1.00
O590   O     0.34543   0.49693   0.02229   0.00000  Uiso   1.00
O591   O     0.23756   0.20809   0.51593   0.00000  Uiso   1.00
O592   O     0.74980   0.38670   0.62523   0.00000  Uiso   1.00
N593   N     0.36403   0.50007   0.90938   0.00000  Uiso   1.00
N594   N     0.28714   0.29424   0.54854   0.00000  Uiso   1.00
N595   N     0.65216   0.42151   0.62642   0.00000  Uiso   1.00
N596   N     0.38370   0.41735   0.96214   0.00000  Uiso   1.00
N597   N     0.30681   0.21152   0.60130   0.00000  Uiso   1.00
N598   N     0.67183   0.33879   0.67917   0.00000  Uiso   1.00
C599   C     0.93273   0.91257   0.19017   0.00000  Uiso   1.00
C600   C     0.91861   0.91648   0.26348   0.00000  Uiso   1.00
C601   C     0.89578   0.96583   0.29573   0.00000  Uiso   1.00
C602   C     0.88593   0.96048   0.36295   0.00000  Uiso   1.00
C603   C     0.86207   0.97456   0.47165   0.00000  Uiso   1.00
C604   C     0.89741   0.85975   0.16403   0.00000  Uiso   1.00
C605   C     0.85676   0.86141   0.11267   0.00000  Uiso   1.00
C606   C     0.82908   0.80830   0.09617   0.00000  Uiso   1.00
C607   C     0.77234   0.73430   0.05045   0.00000  Uiso   1.00
C608   C     0.99801   0.89483   0.18550   0.00000  Uiso   1.00
C609   C     0.04194   0.92598   0.15218   0.00000  Uiso   1.00
C610   C     0.09896   0.90239   0.15375   0.00000  Uiso   1.00
C611   C     0.19842   0.88287   0.14136   0.00000  Uiso   1.00
C612   C     0.95586   0.81529   0.25220   0.00000  Uiso   1.00
C613   C     0.93117   0.86364   0.29717   0.00000  Uiso   1.00
C614   C     0.92137   0.85820   0.36436   0.00000  Uiso   1.00
C615   C     0.89852   0.90754   0.39671   0.00000  Uiso   1.00
C616   C     0.90997   0.80691   0.19772   0.00000  Uiso   1.00
C617   C     0.88235   0.75378   0.18130   0.00000  Uiso   1.00
C618   C     0.84166   0.75536   0.12993   0.00000  Uiso   1.00
C619   C     0.01058   0.84199   0.21920   0.00000  Uiso   1.00
C620   C     0.06753   0.81835   0.22081   0.00000  Uiso   1.00
C621   C     0.11155   0.84946   0.18750   0.00000  Uiso   1.00
H622   H     0.92295   0.95371   0.16393   0.00000  Uiso   1.00
H623   H     0.88605   0.00671   0.26963   0.00000  Uiso   1.00
H624   H     0.84705   0.90230   0.08660   0.00000  Uiso   1.00
H625   H     0.03221   0.96687   0.12611   0.00000  Uiso   1.00
H626   H     0.85067   0.04217   0.40168   0.00000  Uiso   1.00
H627   H     0.76844   0.82202   0.01572   0.00000  Uiso   1.00
H628   H     0.15888   0.95815   0.09903   0.00000  Uiso   1.00
H629   H     0.96564   0.77415   0.27843   0.00000  Uiso   1.00
H630   H     0.93109   0.81731   0.39042   0.00000  Uiso   1.00
H631   H     0.89209   0.71290   0.20738   0.00000  Uiso   1.00
H632   H     0.07724   0.77746   0.24689   0.00000  Uiso   1.00
H633   H     0.88722   0.88844   0.49971   0.00000  Uiso   1.00
H634   H     0.80500   0.66829   0.11375   0.00000  Uiso   1.00
H635   H     0.19543   0.80443   0.19707   0.00000  Uiso   1.00
O636   O     0.84543   0.99693   0.52229   0.00000  Uiso   1.00
O637   O     0.73756   0.70809   0.01593   0.00000  Uiso   1.00
O638   O     0.24980   0.88670   0.12523   0.00000  Uiso   1.00
N639   N     0.86403   0.00007   0.40938   0.00000  Uiso   1.00
N640   N     0.78714   0.79424   0.04854   0.00000  Uiso   1.00
N641   N     0.15216   0.92151   0.12642   0.00000  Uiso   1.00
N642   N     0.88370   0.91735   0.46214   0.00000  Uiso   1.00
N643   N     0.80681   0.71152   0.10130   0.00000  Uiso   1.00
N644   N     0.17183   0.83879   0.17917   0.00000  Uiso   1.00
C645   C     0.06727   0.08743   0.19017   0.00000  Uiso   1.00
C646   C     0.08139   0.08352   0.26348   0.00000  Uiso   1.00
C647   C     0.10422   0.03417   0.29573   0.00000  Uiso   1.00
C648   C     0.11407   0.03952   0.36295   0.00000  Uiso   1.00
C649   C     0.13793   0.02544   0.47165   0.00000  Uiso   1.00
C650   C     0.10259   0.14025   0.16403   0.00000  Uiso   1.00
C651   C     0.14324   0.13859   0.11267   0.00000  Uiso   1.00
C652   C     0.17092   0.19170   0.09617   0.00000  Uiso   1.00
C653   C     0.22766   0.26570   0.05045   0.00000  Uiso   1.00
C654   C     0.00199   0.10517   0.18550   0.00000  Uiso   1.00
C655   C     0.95806   0.07402   0.15218   0.00000  Uiso   1.00
C656   C     0.90104   0.09761   0.15375   0.00000  Uiso   1.00
C657   C     0.80158   0.11713   0.14136   0.00000  Uiso   1.00
C658   C     0.04414   0.18471   0.25220   0.00000  Uiso   1.00
C659   C     0.06883   0.13636   0.29717   0.00000  Uiso   1.00
C660   C     0.07863   0.14180   0.36436   0.00000  Uiso   1.00
C661   C     0.10148   0.09246   0.39671   0.00000  Uiso   1.00
C662   C     0.09003   0.19309   0.19772   0.00000  Uiso   1.00
C663   C     0.11765   0.24622   0.18130   0.00000  Uiso   1.00
C664   C     0.15834   0.24464   0.12993   0.00000  Uiso   1.00
C665   C     0.98942   0.15801   0.21920   0.00000  Uiso   1.00
C666   C     0.93247   0.18165   0.22081   0.00000  Uiso   1.00
C667   C     0.88845   0.15054   0.18750   0.00000  Uiso   1.00
H668   H     0.07705   0.04629   0.16393   0.00000  Uiso   1.00
H669   H     0.11395   0.99329   0.26963   0.00000  Uiso   1.00
H670   H     0.15295   0.09770   0.08660   0.00000  Uiso   1.00
H671   H     0.96779   0.03313   0.12611   0.00000  Uiso   1.00
H672   H     0.14933   0.95783   0.40168   0.00000  Uiso   1.00
H673   H     0.23156   0.17798   0.01572   0.00000  Uiso   1.00
H674   H     0.84112   0.04185   0.09903   0.00000  Uiso   1.00
H675   H     0.03436   0.22585   0.27843   0.00000  Uiso   1.00
H676   H     0.06891   0.18269   0.39042   0.00000  Uiso   1.00
H677   H     0.10791   0.28710   0.20738   0.00000  Uiso   1.00
H678   H     0.92276   0.22254   0.24689   0.00000  Uiso   1.00
H679   H     0.11278   0.11156   0.49971   0.00000  Uiso   1.00
H680   H     0.19500   0.33171   0.11375   0.00000  Uiso   1.00
H681   H     0.80457   0.19557   0.19707   0.00000  Uiso   1.00
O682   O     0.15457   0.00307   0.52229   0.00000  Uiso   1.00
O683   O     0.26244   0.29191   0.01593   0.00000  Uiso   1.00
O684   O     0.75020   0.11330   0.12523   0.00000  Uiso   1.00
N685   N     0.13597   0.99993   0.40938   0.00000  Uiso   1.00
N686   N     0.21286   0.20576   0.04854   0.00000  Uiso   1.00
N687   N     0.84784   0.07849   0.12642   0.00000  Uiso   1.00
N688   N     0.11630   0.08265   0.46214   0.00000  Uiso   1.00
N689   N     0.19319   0.28848   0.10130   0.00000  Uiso   1.00
N690   N     0.82817   0.16121   0.17917   0.00000  Uiso   1.00
C691   C     0.56727   0.58743   0.69017   0.00000  Uiso   1.00
C692   C     0.58139   0.58352   0.76348   0.00000  Uiso   1.00
C693   C     0.60422   0.53417   0.79573   0.00000  Uiso   1.00
C694   C     0.61407   0.53952   0.86295   0.00000  Uiso   1.00
C695   C     0.63793   0.52544   0.97165   0.00000  Uiso   1.00
C696   C     0.60259   0.64025   0.66403   0.00000  Uiso   1.00
C697   C     0.64324   0.63859   0.61267   0.00000  Uiso   1.00
C698   C     0.67092   0.69170   0.59617   0.00000  Uiso   1.00
C699   C     0.72766   0.76570   0.55045   0.00000  Uiso   1.00
C700   C     0.50199   0.60517   0.68550   0.00000  Uiso   1.00
C701   C     0.45806   0.57402   0.65218   0.00000  Uiso   1.00
C702   C     0.40104   0.59761   0.65375   0.00000  Uiso   1.00
C703   C     0.30158   0.61713   0.64136   0.00000  Uiso   1.00
C704   C     0.54414   0.68471   0.75220   0.00000  Uiso   1.00
C705   C     0.56883   0.63636   0.79717   0.00000  Uiso   1.00
C706   C     0.57863   0.64180   0.86436   0.00000  Uiso   1.00
C707   C     0.60148   0.59246   0.89671   0.00000  Uiso   1.00
C708   C     0.59003   0.69309   0.69772   0.00000  Uiso   1.00
C709   C     0.61765   0.74622   0.68130   0.00000  Uiso   1.00
C710   C     0.65834   0.74464   0.62993   0.00000  Uiso   1.00
C711   C     0.48942   0.65801   0.71920   0.00000  Uiso   1.00
C712   C     0.43247   0.68165   0.72081   0.00000  Uiso   1.00
C713   C     0.38845   0.65054   0.68750   0.00000  Uiso   1.00
H714   H     0.57705   0.54629   0.66393   0.00000  Uiso   1.00
H715   H     0.61395   0.49329   0.76963   0.00000  Uiso   1.00
H716   H     0.65295   0.59770   0.58660   0.00000  Uiso   1.00
H717   H     0.46779   0.53313   0.62611   0.00000  Uiso   1.00
H718   H     0.64933   0.45783   0.90168   0.00000  Uiso   1.00
H719   H     0.73156   0.67798   0.51572   0.00000  Uiso   1.00
H720   H     0.34112   0.54185   0.59903   0.00000  Uiso   1.00
H721   H     0.53436   0.72585   0.77843   0.00000  Uiso   1.00
H722   H     0.56891   0.68269   0.89042   0.00000  Uiso   1.00
H723   H     0.60791   0.78710   0.70738   0.00000  Uiso   1.00
H724   H     0.42276   0.72254   0.74689   0.00000  Uiso   1.00
H725   H     0.61278   0.61156   0.99971   0.00000  Uiso   1.00
H726   H     0.69500   0.83171   0.61375   0.00000  Uiso   1.00
H727   H     0.30457   0.69557   0.69707   0.00000  Uiso   1.00
O728   O     0.65457   0.50307   0.02229   0.00000  Uiso   1.00
O729   O     0.76244   0.79191   0.51593   0.00000  Uiso   1.00
O730   O     0.25020   0.61330   0.62523   0.00000  Uiso   1.00
N731   N     0.63597   0.49993   0.90938   0.00000  Uiso   1.00
N732   N     0.71286   0.70576   0.54854   0.00000  Uiso   1.00
N733   N     0.34784   0.57849   0.62642   0.00000  Uiso   1.00
N734   N     0.61630   0.58265   0.96214   0.00000  Uiso   1.00
N735   N     0.69319   0.78848   0.60130   0.00000  Uiso   1.00
N736   N     0.32817   0.66121   0.67917   0.00000  Uiso   1.00
