data_job_03346
_audit_creation_date              2018-12-19
_audit_creation_method            'Materials Studio'
_symmetry_space_group_name_H-M    'P1'
_symmetry_Int_Tables_number       1
_symmetry_cell_setting            triclinic
loop_
_symmetry_equiv_pos_as_xyz
  x,y,z
_cell_length_a                    42.0232
_cell_length_b                    13.5301
_cell_length_c                    23.0763
_cell_angle_alpha                 90.0000
_cell_angle_beta                  90.0000
_cell_angle_gamma                 90.0000
loop_
_atom_site_label
_atom_site_type_symbol
_atom_site_fract_x
_atom_site_fract_y
_atom_site_fract_z
_atom_site_U_iso_or_equiv
_atom_site_adp_type
_atom_site_occupancy
C1     C     0.29237   0.40447   0.40652   0.00000  Uiso   1.00
C2     C     0.30918   0.44967   0.35430   0.00000  Uiso   1.00
C3     C     0.32326   0.39743   0.30934   0.00000  Uiso   1.00
C4     C     0.33742   0.45240   0.26557   0.00000  Uiso   1.00
C5     C     0.36352   0.50685   0.18431   0.00000  Uiso   1.00
C6     C     0.30909   0.44610   0.45985   0.00000  Uiso   1.00
C7     C     0.32309   0.39086   0.50365   0.00000  Uiso   1.00
C8     C     0.33718   0.44283   0.54874   0.00000  Uiso   1.00
C9     C     0.36313   0.49173   0.63137   0.00000  Uiso   1.00
C10    C     0.25893   0.44819   0.40695   0.00000  Uiso   1.00
C11    C     0.23075   0.39471   0.40627   0.00000  Uiso   1.00
C12    C     0.20260   0.44845   0.40684   0.00000  Uiso   1.00
C13    C     0.15066   0.50060   0.40733   0.00000  Uiso   1.00
C14    C     0.29249   0.59499   0.40874   0.00000  Uiso   1.00
C15    C     0.30924   0.55315   0.35551   0.00000  Uiso   1.00
C16    C     0.32339   0.60822   0.31179   0.00000  Uiso   1.00
C17    C     0.33749   0.55607   0.26678   0.00000  Uiso   1.00
C18    C     0.30916   0.54958   0.46106   0.00000  Uiso   1.00
C19    C     0.32323   0.60165   0.50610   0.00000  Uiso   1.00
C20    C     0.33725   0.54650   0.54995   0.00000  Uiso   1.00
C21    C     0.25899   0.55168   0.40815   0.00000  Uiso   1.00
C22    C     0.23088   0.60551   0.40872   0.00000  Uiso   1.00
C23    C     0.20267   0.55212   0.40805   0.00000  Uiso   1.00
H24    H     0.29232   0.32390   0.40559   0.00000  Uiso   1.00
H25    H     0.32320   0.31735   0.30843   0.00000  Uiso   1.00
H26    H     0.32304   0.31078   0.50270   0.00000  Uiso   1.00
H27    H     0.23071   0.31463   0.40534   0.00000  Uiso   1.00
H28    H     0.35748   0.35571   0.20124   0.00000  Uiso   1.00
H29    H     0.35712   0.34186   0.61090   0.00000  Uiso   1.00
H30    H     0.16243   0.34999   0.40560   0.00000  Uiso   1.00
H31    H     0.29254   0.67556   0.40968   0.00000  Uiso   1.00
H32    H     0.32344   0.68830   0.31274   0.00000  Uiso   1.00
H33    H     0.32327   0.68173   0.50702   0.00000  Uiso   1.00
H34    H     0.23094   0.68559   0.40966   0.00000  Uiso   1.00
H35    H     0.35767   0.65680   0.20475   0.00000  Uiso   1.00
H36    H     0.35731   0.64294   0.61440   0.00000  Uiso   1.00
H37    H     0.16262   0.65107   0.40910   0.00000  Uiso   1.00
O38    O     0.37791   0.50829   0.13916   0.00000  Uiso   1.00
O39    O     0.37743   0.49011   0.67661   0.00000  Uiso   1.00
O40    O     0.12199   0.50078   0.40726   0.00000  Uiso   1.00
N41    N     0.35328   0.42483   0.21537   0.00000  Uiso   1.00
N42    N     0.35295   0.41187   0.59836   0.00000  Uiso   1.00
N43    N     0.17093   0.41947   0.40644   0.00000  Uiso   1.00
N44    N     0.35338   0.58684   0.21725   0.00000  Uiso   1.00
N45    N     0.35305   0.57388   0.60025   0.00000  Uiso   1.00
N46    N     0.17103   0.58148   0.40832   0.00000  Uiso   1.00
C47    C     0.29237   0.90447   0.90652   0.00000  Uiso   1.00
C48    C     0.30918   0.94967   0.85430   0.00000  Uiso   1.00
C49    C     0.32326   0.89743   0.80934   0.00000  Uiso   1.00
C50    C     0.33742   0.95240   0.76557   0.00000  Uiso   1.00
C51    C     0.36352   0.00685   0.68431   0.00000  Uiso   1.00
C52    C     0.30909   0.94610   0.95985   0.00000  Uiso   1.00
C53    C     0.32309   0.89086   0.00365   0.00000  Uiso   1.00
C54    C     0.33718   0.94283   0.04874   0.00000  Uiso   1.00
C55    C     0.36313   0.99173   0.13137   0.00000  Uiso   1.00
C56    C     0.25893   0.94819   0.90695   0.00000  Uiso   1.00
C57    C     0.23075   0.89471   0.90627   0.00000  Uiso   1.00
C58    C     0.20260   0.94845   0.90684   0.00000  Uiso   1.00
C59    C     0.15066   0.00060   0.90733   0.00000  Uiso   1.00
C60    C     0.29249   0.09499   0.90874   0.00000  Uiso   1.00
C61    C     0.30924   0.05315   0.85551   0.00000  Uiso   1.00
C62    C     0.32339   0.10822   0.81179   0.00000  Uiso   1.00
C63    C     0.33749   0.05607   0.76678   0.00000  Uiso   1.00
C64    C     0.30916   0.04958   0.96106   0.00000  Uiso   1.00
C65    C     0.32323   0.10165   0.00610   0.00000  Uiso   1.00
C66    C     0.33725   0.04650   0.04995   0.00000  Uiso   1.00
C67    C     0.25899   0.05168   0.90815   0.00000  Uiso   1.00
C68    C     0.23088   0.10551   0.90872   0.00000  Uiso   1.00
C69    C     0.20267   0.05212   0.90805   0.00000  Uiso   1.00
H70    H     0.29232   0.82390   0.90559   0.00000  Uiso   1.00
H71    H     0.32320   0.81735   0.80843   0.00000  Uiso   1.00
H72    H     0.32304   0.81078   0.00270   0.00000  Uiso   1.00
H73    H     0.23071   0.81463   0.90534   0.00000  Uiso   1.00
H74    H     0.35748   0.85571   0.70124   0.00000  Uiso   1.00
H75    H     0.35712   0.84186   0.11090   0.00000  Uiso   1.00
H76    H     0.16243   0.84999   0.90560   0.00000  Uiso   1.00
H77    H     0.29254   0.17556   0.90968   0.00000  Uiso   1.00
H78    H     0.32344   0.18830   0.81274   0.00000  Uiso   1.00
H79    H     0.32327   0.18173   0.00702   0.00000  Uiso   1.00
H80    H     0.23094   0.18559   0.90966   0.00000  Uiso   1.00
H81    H     0.35767   0.15680   0.70475   0.00000  Uiso   1.00
H82    H     0.35731   0.14294   0.11440   0.00000  Uiso   1.00
H83    H     0.16262   0.15107   0.90910   0.00000  Uiso   1.00
O84    O     0.37791   0.00829   0.63916   0.00000  Uiso   1.00
O85    O     0.37743   0.99011   0.17661   0.00000  Uiso   1.00
O86    O     0.12199   0.00078   0.90726   0.00000  Uiso   1.00
N87    N     0.35328   0.92483   0.71537   0.00000  Uiso   1.00
N88    N     0.35295   0.91187   0.09836   0.00000  Uiso   1.00
N89    N     0.17093   0.91947   0.90644   0.00000  Uiso   1.00
N90    N     0.35338   0.08684   0.71725   0.00000  Uiso   1.00
N91    N     0.35305   0.07388   0.10025   0.00000  Uiso   1.00
N92    N     0.17103   0.08148   0.90832   0.00000  Uiso   1.00
C93    C     0.79237   0.40447   0.90652   0.00000  Uiso   1.00
C94    C     0.80918   0.44967   0.85430   0.00000  Uiso   1.00
C95    C     0.82326   0.39743   0.80934   0.00000  Uiso   1.00
C96    C     0.83742   0.45240   0.76557   0.00000  Uiso   1.00
C97    C     0.86352   0.50685   0.68431   0.00000  Uiso   1.00
C98    C     0.80909   0.44610   0.95985   0.00000  Uiso   1.00
C99    C     0.82309   0.39086   0.00365   0.00000  Uiso   1.00
C100   C     0.83718   0.44283   0.04874   0.00000  Uiso   1.00
C101   C     0.86313   0.49173   0.13137   0.00000  Uiso   1.00
C102   C     0.75893   0.44819   0.90695   0.00000  Uiso   1.00
C103   C     0.73075   0.39471   0.90627   0.00000  Uiso   1.00
C104   C     0.70260   0.44845   0.90684   0.00000  Uiso   1.00
C105   C     0.65066   0.50060   0.90733   0.00000  Uiso   1.00
C106   C     0.79249   0.59499   0.90874   0.00000  Uiso   1.00
C107   C     0.80924   0.55315   0.85551   0.00000  Uiso   1.00
C108   C     0.82339   0.60822   0.81179   0.00000  Uiso   1.00
C109   C     0.83749   0.55607   0.76678   0.00000  Uiso   1.00
C110   C     0.80916   0.54958   0.96106   0.00000  Uiso   1.00
C111   C     0.82323   0.60165   0.00610   0.00000  Uiso   1.00
C112   C     0.83725   0.54650   0.04995   0.00000  Uiso   1.00
C113   C     0.75899   0.55168   0.90815   0.00000  Uiso   1.00
C114   C     0.73088   0.60551   0.90872   0.00000  Uiso   1.00
C115   C     0.70267   0.55212   0.90805   0.00000  Uiso   1.00
H116   H     0.79232   0.32390   0.90559   0.00000  Uiso   1.00
H117   H     0.82320   0.31735   0.80843   0.00000  Uiso   1.00
H118   H     0.82304   0.31078   0.00270   0.00000  Uiso   1.00
H119   H     0.73071   0.31463   0.90534   0.00000  Uiso   1.00
H120   H     0.85748   0.35571   0.70124   0.00000  Uiso   1.00
H121   H     0.85712   0.34186   0.11090   0.00000  Uiso   1.00
H122   H     0.66243   0.34999   0.90560   0.00000  Uiso   1.00
H123   H     0.79254   0.67556   0.90968   0.00000  Uiso   1.00
H124   H     0.82344   0.68830   0.81274   0.00000  Uiso   1.00
H125   H     0.82327   0.68173   0.00702   0.00000  Uiso   1.00
H126   H     0.73094   0.68559   0.90966   0.00000  Uiso   1.00
H127   H     0.85767   0.65680   0.70475   0.00000  Uiso   1.00
H128   H     0.85731   0.64294   0.11440   0.00000  Uiso   1.00
H129   H     0.66262   0.65107   0.90910   0.00000  Uiso   1.00
O130   O     0.87791   0.50829   0.63916   0.00000  Uiso   1.00
O131   O     0.87743   0.49011   0.17661   0.00000  Uiso   1.00
O132   O     0.62199   0.50078   0.90726   0.00000  Uiso   1.00
N133   N     0.85328   0.42483   0.71537   0.00000  Uiso   1.00
N134   N     0.85295   0.41187   0.09836   0.00000  Uiso   1.00
N135   N     0.67093   0.41947   0.90644   0.00000  Uiso   1.00
N136   N     0.85338   0.58684   0.71725   0.00000  Uiso   1.00
N137   N     0.85305   0.57388   0.10025   0.00000  Uiso   1.00
N138   N     0.67103   0.58148   0.90832   0.00000  Uiso   1.00
C139   C     0.79237   0.90447   0.40652   0.00000  Uiso   1.00
C140   C     0.80918   0.94967   0.35430   0.00000  Uiso   1.00
C141   C     0.82326   0.89743   0.30934   0.00000  Uiso   1.00
C142   C     0.83742   0.95240   0.26557   0.00000  Uiso   1.00
C143   C     0.86352   0.00685   0.18431   0.00000  Uiso   1.00
C144   C     0.80909   0.94610   0.45985   0.00000  Uiso   1.00
C145   C     0.82309   0.89086   0.50365   0.00000  Uiso   1.00
C146   C     0.83718   0.94283   0.54874   0.00000  Uiso   1.00
C147   C     0.86313   0.99173   0.63137   0.00000  Uiso   1.00
C148   C     0.75893   0.94819   0.40695   0.00000  Uiso   1.00
C149   C     0.73075   0.89471   0.40627   0.00000  Uiso   1.00
C150   C     0.70260   0.94845   0.40684   0.00000  Uiso   1.00
C151   C     0.65066   0.00060   0.40733   0.00000  Uiso   1.00
C152   C     0.79249   0.09499   0.40874   0.00000  Uiso   1.00
C153   C     0.80924   0.05315   0.35551   0.00000  Uiso   1.00
C154   C     0.82339   0.10822   0.31179   0.00000  Uiso   1.00
C155   C     0.83749   0.05607   0.26678   0.00000  Uiso   1.00
C156   C     0.80916   0.04958   0.46106   0.00000  Uiso   1.00
C157   C     0.82323   0.10165   0.50610   0.00000  Uiso   1.00
C158   C     0.83725   0.04650   0.54995   0.00000  Uiso   1.00
C159   C     0.75899   0.05168   0.40815   0.00000  Uiso   1.00
C160   C     0.73088   0.10551   0.40872   0.00000  Uiso   1.00
C161   C     0.70267   0.05212   0.40805   0.00000  Uiso   1.00
H162   H     0.79232   0.82390   0.40559   0.00000  Uiso   1.00
H163   H     0.82320   0.81735   0.30843   0.00000  Uiso   1.00
H164   H     0.82304   0.81078   0.50270   0.00000  Uiso   1.00
H165   H     0.73071   0.81463   0.40534   0.00000  Uiso   1.00
H166   H     0.85748   0.85571   0.20124   0.00000  Uiso   1.00
H167   H     0.85712   0.84186   0.61090   0.00000  Uiso   1.00
H168   H     0.66243   0.84999   0.40560   0.00000  Uiso   1.00
H169   H     0.79254   0.17556   0.40968   0.00000  Uiso   1.00
H170   H     0.82344   0.18830   0.31274   0.00000  Uiso   1.00
H171   H     0.82327   0.18173   0.50702   0.00000  Uiso   1.00
H172   H     0.73094   0.18559   0.40966   0.00000  Uiso   1.00
H173   H     0.85767   0.15680   0.20475   0.00000  Uiso   1.00
H174   H     0.85731   0.14294   0.61440   0.00000  Uiso   1.00
H175   H     0.66262   0.15107   0.40910   0.00000  Uiso   1.00
O176   O     0.87791   0.00829   0.13916   0.00000  Uiso   1.00
O177   O     0.87743   0.99011   0.67661   0.00000  Uiso   1.00
O178   O     0.62199   0.00078   0.40726   0.00000  Uiso   1.00
N179   N     0.85328   0.92483   0.21537   0.00000  Uiso   1.00
N180   N     0.85295   0.91187   0.59836   0.00000  Uiso   1.00
N181   N     0.67093   0.91947   0.40644   0.00000  Uiso   1.00
N182   N     0.85338   0.08684   0.21725   0.00000  Uiso   1.00
N183   N     0.85305   0.07388   0.60025   0.00000  Uiso   1.00
N184   N     0.67103   0.08148   0.40832   0.00000  Uiso   1.00
C185   C     0.70763   0.59553   0.40652   0.00000  Uiso   1.00
C186   C     0.69082   0.55033   0.35430   0.00000  Uiso   1.00
C187   C     0.67674   0.60257   0.30934   0.00000  Uiso   1.00
C188   C     0.66258   0.54760   0.26557   0.00000  Uiso   1.00
C189   C     0.63648   0.49315   0.18431   0.00000  Uiso   1.00
C190   C     0.69091   0.55390   0.45985   0.00000  Uiso   1.00
C191   C     0.67691   0.60914   0.50365   0.00000  Uiso   1.00
C192   C     0.66282   0.55717   0.54874   0.00000  Uiso   1.00
C193   C     0.63687   0.50827   0.63137   0.00000  Uiso   1.00
C194   C     0.74107   0.55181   0.40695   0.00000  Uiso   1.00
C195   C     0.76925   0.60529   0.40627   0.00000  Uiso   1.00
C196   C     0.79740   0.55155   0.40684   0.00000  Uiso   1.00
C197   C     0.84934   0.49940   0.40733   0.00000  Uiso   1.00
C198   C     0.70751   0.40501   0.40874   0.00000  Uiso   1.00
C199   C     0.69076   0.44685   0.35551   0.00000  Uiso   1.00
C200   C     0.67661   0.39178   0.31179   0.00000  Uiso   1.00
C201   C     0.66251   0.44393   0.26678   0.00000  Uiso   1.00
C202   C     0.69084   0.45042   0.46106   0.00000  Uiso   1.00
C203   C     0.67677   0.39835   0.50610   0.00000  Uiso   1.00
C204   C     0.66275   0.45350   0.54995   0.00000  Uiso   1.00
C205   C     0.74101   0.44832   0.40815   0.00000  Uiso   1.00
C206   C     0.76912   0.39449   0.40872   0.00000  Uiso   1.00
C207   C     0.79733   0.44788   0.40805   0.00000  Uiso   1.00
H208   H     0.70768   0.67610   0.40559   0.00000  Uiso   1.00
H209   H     0.67680   0.68265   0.30843   0.00000  Uiso   1.00
H210   H     0.67696   0.68922   0.50270   0.00000  Uiso   1.00
H211   H     0.76929   0.68537   0.40534   0.00000  Uiso   1.00
H212   H     0.64252   0.64429   0.20124   0.00000  Uiso   1.00
H213   H     0.64288   0.65814   0.61090   0.00000  Uiso   1.00
H214   H     0.83757   0.65001   0.40560   0.00000  Uiso   1.00
H215   H     0.70746   0.32444   0.40968   0.00000  Uiso   1.00
H216   H     0.67656   0.31170   0.31274   0.00000  Uiso   1.00
H217   H     0.67673   0.31827   0.50702   0.00000  Uiso   1.00
H218   H     0.76906   0.31441   0.40966   0.00000  Uiso   1.00
H219   H     0.64233   0.34320   0.20475   0.00000  Uiso   1.00
H220   H     0.64269   0.35706   0.61440   0.00000  Uiso   1.00
H221   H     0.83738   0.34893   0.40910   0.00000  Uiso   1.00
O222   O     0.62209   0.49171   0.13916   0.00000  Uiso   1.00
O223   O     0.62257   0.50989   0.67661   0.00000  Uiso   1.00
O224   O     0.87801   0.49922   0.40726   0.00000  Uiso   1.00
N225   N     0.64672   0.57517   0.21537   0.00000  Uiso   1.00
N226   N     0.64705   0.58813   0.59836   0.00000  Uiso   1.00
N227   N     0.82907   0.58053   0.40644   0.00000  Uiso   1.00
N228   N     0.64662   0.41316   0.21725   0.00000  Uiso   1.00
N229   N     0.64695   0.42612   0.60025   0.00000  Uiso   1.00
N230   N     0.82897   0.41852   0.40832   0.00000  Uiso   1.00
C231   C     0.70763   0.09553   0.90652   0.00000  Uiso   1.00
C232   C     0.69082   0.05033   0.85430   0.00000  Uiso   1.00
C233   C     0.67674   0.10257   0.80934   0.00000  Uiso   1.00
C234   C     0.66258   0.04760   0.76557   0.00000  Uiso   1.00
C235   C     0.63648   0.99315   0.68431   0.00000  Uiso   1.00
C236   C     0.69091   0.05390   0.95985   0.00000  Uiso   1.00
C237   C     0.67691   0.10914   0.00365   0.00000  Uiso   1.00
C238   C     0.66282   0.05717   0.04874   0.00000  Uiso   1.00
C239   C     0.63687   0.00827   0.13137   0.00000  Uiso   1.00
C240   C     0.74107   0.05181   0.90695   0.00000  Uiso   1.00
C241   C     0.76925   0.10529   0.90627   0.00000  Uiso   1.00
C242   C     0.79740   0.05155   0.90684   0.00000  Uiso   1.00
C243   C     0.84934   0.99940   0.90733   0.00000  Uiso   1.00
C244   C     0.70751   0.90501   0.90874   0.00000  Uiso   1.00
C245   C     0.69076   0.94685   0.85551   0.00000  Uiso   1.00
C246   C     0.67661   0.89178   0.81179   0.00000  Uiso   1.00
C247   C     0.66251   0.94393   0.76678   0.00000  Uiso   1.00
C248   C     0.69084   0.95042   0.96106   0.00000  Uiso   1.00
C249   C     0.67677   0.89835   0.00610   0.00000  Uiso   1.00
C250   C     0.66275   0.95350   0.04995   0.00000  Uiso   1.00
C251   C     0.74101   0.94832   0.90815   0.00000  Uiso   1.00
C252   C     0.76912   0.89449   0.90872   0.00000  Uiso   1.00
C253   C     0.79733   0.94788   0.90805   0.00000  Uiso   1.00
H254   H     0.70768   0.17610   0.90559   0.00000  Uiso   1.00
H255   H     0.67680   0.18265   0.80843   0.00000  Uiso   1.00
H256   H     0.67696   0.18922   0.00270   0.00000  Uiso   1.00
H257   H     0.76929   0.18537   0.90534   0.00000  Uiso   1.00
H258   H     0.64252   0.14429   0.70124   0.00000  Uiso   1.00
H259   H     0.64288   0.15814   0.11090   0.00000  Uiso   1.00
H260   H     0.83757   0.15001   0.90560   0.00000  Uiso   1.00
H261   H     0.70746   0.82444   0.90968   0.00000  Uiso   1.00
H262   H     0.67656   0.81170   0.81274   0.00000  Uiso   1.00
H263   H     0.67673   0.81827   0.00702   0.00000  Uiso   1.00
H264   H     0.76906   0.81441   0.90966   0.00000  Uiso   1.00
H265   H     0.64233   0.84320   0.70475   0.00000  Uiso   1.00
H266   H     0.64269   0.85706   0.11440   0.00000  Uiso   1.00
H267   H     0.83738   0.84893   0.90910   0.00000  Uiso   1.00
O268   O     0.62209   0.99171   0.63916   0.00000  Uiso   1.00
O269   O     0.62257   0.00989   0.17661   0.00000  Uiso   1.00
O270   O     0.87801   0.99922   0.90726   0.00000  Uiso   1.00
N271   N     0.64672   0.07517   0.71537   0.00000  Uiso   1.00
N272   N     0.64705   0.08813   0.09836   0.00000  Uiso   1.00
N273   N     0.82907   0.08053   0.90644   0.00000  Uiso   1.00
N274   N     0.64662   0.91316   0.71725   0.00000  Uiso   1.00
N275   N     0.64695   0.92612   0.10025   0.00000  Uiso   1.00
N276   N     0.82897   0.91852   0.90832   0.00000  Uiso   1.00
C277   C     0.20763   0.59553   0.90652   0.00000  Uiso   1.00
C278   C     0.19082   0.55033   0.85430   0.00000  Uiso   1.00
C279   C     0.17674   0.60257   0.80934   0.00000  Uiso   1.00
C280   C     0.16258   0.54760   0.76557   0.00000  Uiso   1.00
C281   C     0.13648   0.49315   0.68431   0.00000  Uiso   1.00
C282   C     0.19091   0.55390   0.95985   0.00000  Uiso   1.00
C283   C     0.17691   0.60914   0.00365   0.00000  Uiso   1.00
C284   C     0.16282   0.55717   0.04874   0.00000  Uiso   1.00
C285   C     0.13687   0.50827   0.13137   0.00000  Uiso   1.00
C286   C     0.24107   0.55181   0.90695   0.00000  Uiso   1.00
C287   C     0.26925   0.60529   0.90627   0.00000  Uiso   1.00
C288   C     0.29740   0.55155   0.90684   0.00000  Uiso   1.00
C289   C     0.34934   0.49940   0.90733   0.00000  Uiso   1.00
C290   C     0.20751   0.40501   0.90874   0.00000  Uiso   1.00
C291   C     0.19076   0.44685   0.85551   0.00000  Uiso   1.00
C292   C     0.17661   0.39178   0.81179   0.00000  Uiso   1.00
C293   C     0.16251   0.44393   0.76678   0.00000  Uiso   1.00
C294   C     0.19084   0.45042   0.96106   0.00000  Uiso   1.00
C295   C     0.17677   0.39835   0.00610   0.00000  Uiso   1.00
C296   C     0.16275   0.45350   0.04995   0.00000  Uiso   1.00
C297   C     0.24101   0.44832   0.90815   0.00000  Uiso   1.00
C298   C     0.26912   0.39449   0.90872   0.00000  Uiso   1.00
C299   C     0.29733   0.44788   0.90805   0.00000  Uiso   1.00
H300   H     0.20768   0.67610   0.90559   0.00000  Uiso   1.00
H301   H     0.17680   0.68265   0.80843   0.00000  Uiso   1.00
H302   H     0.17696   0.68922   0.00270   0.00000  Uiso   1.00
H303   H     0.26929   0.68537   0.90534   0.00000  Uiso   1.00
H304   H     0.14252   0.64429   0.70124   0.00000  Uiso   1.00
H305   H     0.14288   0.65814   0.11090   0.00000  Uiso   1.00
H306   H     0.33757   0.65001   0.90560   0.00000  Uiso   1.00
H307   H     0.20746   0.32444   0.90968   0.00000  Uiso   1.00
H308   H     0.17656   0.31170   0.81274   0.00000  Uiso   1.00
H309   H     0.17673   0.31827   0.00702   0.00000  Uiso   1.00
H310   H     0.26906   0.31441   0.90966   0.00000  Uiso   1.00
H311   H     0.14233   0.34320   0.70475   0.00000  Uiso   1.00
H312   H     0.14269   0.35706   0.11440   0.00000  Uiso   1.00
H313   H     0.33738   0.34893   0.90910   0.00000  Uiso   1.00
O314   O     0.12209   0.49171   0.63916   0.00000  Uiso   1.00
O315   O     0.12257   0.50989   0.17661   0.00000  Uiso   1.00
O316   O     0.37801   0.49922   0.90726   0.00000  Uiso   1.00
N317   N     0.14672   0.57517   0.71537   0.00000  Uiso   1.00
N318   N     0.14705   0.58813   0.09836   0.00000  Uiso   1.00
N319   N     0.32907   0.58053   0.90644   0.00000  Uiso   1.00
N320   N     0.14662   0.41316   0.71725   0.00000  Uiso   1.00
N321   N     0.14695   0.42612   0.10025   0.00000  Uiso   1.00
N322   N     0.32897   0.41852   0.90832   0.00000  Uiso   1.00
C323   C     0.20763   0.09553   0.40652   0.00000  Uiso   1.00
C324   C     0.19082   0.05033   0.35430   0.00000  Uiso   1.00
C325   C     0.17674   0.10257   0.30934   0.00000  Uiso   1.00
C326   C     0.16258   0.04760   0.26557   0.00000  Uiso   1.00
C327   C     0.13648   0.99315   0.18431   0.00000  Uiso   1.00
C328   C     0.19091   0.05390   0.45985   0.00000  Uiso   1.00
C329   C     0.17691   0.10914   0.50365   0.00000  Uiso   1.00
C330   C     0.16282   0.05717   0.54874   0.00000  Uiso   1.00
C331   C     0.13687   0.00827   0.63137   0.00000  Uiso   1.00
C332   C     0.24107   0.05181   0.40695   0.00000  Uiso   1.00
C333   C     0.26925   0.10529   0.40627   0.00000  Uiso   1.00
C334   C     0.29740   0.05155   0.40684   0.00000  Uiso   1.00
C335   C     0.34934   0.99940   0.40733   0.00000  Uiso   1.00
C336   C     0.20751   0.90501   0.40874   0.00000  Uiso   1.00
C337   C     0.19076   0.94685   0.35551   0.00000  Uiso   1.00
C338   C     0.17661   0.89178   0.31179   0.00000  Uiso   1.00
C339   C     0.16251   0.94393   0.26678   0.00000  Uiso   1.00
C340   C     0.19084   0.95042   0.46106   0.00000  Uiso   1.00
C341   C     0.17677   0.89835   0.50610   0.00000  Uiso   1.00
C342   C     0.16275   0.95350   0.54995   0.00000  Uiso   1.00
C343   C     0.24101   0.94832   0.40815   0.00000  Uiso   1.00
C344   C     0.26912   0.89449   0.40872   0.00000  Uiso   1.00
C345   C     0.29733   0.94788   0.40805   0.00000  Uiso   1.00
H346   H     0.20768   0.17610   0.40559   0.00000  Uiso   1.00
H347   H     0.17680   0.18265   0.30843   0.00000  Uiso   1.00
H348   H     0.17696   0.18922   0.50270   0.00000  Uiso   1.00
H349   H     0.26929   0.18537   0.40534   0.00000  Uiso   1.00
H350   H     0.14252   0.14429   0.20124   0.00000  Uiso   1.00
H351   H     0.14288   0.15814   0.61090   0.00000  Uiso   1.00
H352   H     0.33757   0.15001   0.40560   0.00000  Uiso   1.00
H353   H     0.20746   0.82444   0.40968   0.00000  Uiso   1.00
H354   H     0.17656   0.81170   0.31274   0.00000  Uiso   1.00
H355   H     0.17673   0.81827   0.50702   0.00000  Uiso   1.00
H356   H     0.26906   0.81441   0.40966   0.00000  Uiso   1.00
H357   H     0.14233   0.84320   0.20475   0.00000  Uiso   1.00
H358   H     0.14269   0.85706   0.61440   0.00000  Uiso   1.00
H359   H     0.33738   0.84893   0.40910   0.00000  Uiso   1.00
O360   O     0.12209   0.99171   0.13916   0.00000  Uiso   1.00
O361   O     0.12257   0.00989   0.67661   0.00000  Uiso   1.00
O362   O     0.37801   0.99922   0.40726   0.00000  Uiso   1.00
N363   N     0.14672   0.07517   0.21537   0.00000  Uiso   1.00
N364   N     0.14705   0.08813   0.59836   0.00000  Uiso   1.00
N365   N     0.32907   0.08053   0.40644   0.00000  Uiso   1.00
N366   N     0.14662   0.91316   0.21725   0.00000  Uiso   1.00
N367   N     0.14695   0.92612   0.60025   0.00000  Uiso   1.00
N368   N     0.32897   0.91852   0.40832   0.00000  Uiso   1.00
C369   C     0.54237   0.84553   0.65652   0.00000  Uiso   1.00
C370   C     0.55918   0.80033   0.60430   0.00000  Uiso   1.00
C371   C     0.57326   0.85257   0.55934   0.00000  Uiso   1.00
C372   C     0.58742   0.79760   0.51557   0.00000  Uiso   1.00
C373   C     0.61352   0.74315   0.43431   0.00000  Uiso   1.00
C374   C     0.55909   0.80390   0.70985   0.00000  Uiso   1.00
C375   C     0.57309   0.85914   0.75365   0.00000  Uiso   1.00
C376   C     0.58718   0.80717   0.79874   0.00000  Uiso   1.00
C377   C     0.61313   0.75827   0.88137   0.00000  Uiso   1.00
C378   C     0.50893   0.80181   0.65695   0.00000  Uiso   1.00
C379   C     0.48075   0.85529   0.65627   0.00000  Uiso   1.00
C380   C     0.45260   0.80155   0.65684   0.00000  Uiso   1.00
C381   C     0.40066   0.74940   0.65733   0.00000  Uiso   1.00
C382   C     0.54249   0.65501   0.65874   0.00000  Uiso   1.00
C383   C     0.55924   0.69685   0.60551   0.00000  Uiso   1.00
C384   C     0.57339   0.64178   0.56179   0.00000  Uiso   1.00
C385   C     0.58749   0.69393   0.51678   0.00000  Uiso   1.00
C386   C     0.55916   0.70042   0.71106   0.00000  Uiso   1.00
C387   C     0.57323   0.64835   0.75610   0.00000  Uiso   1.00
C388   C     0.58725   0.70350   0.79995   0.00000  Uiso   1.00
C389   C     0.50899   0.69832   0.65815   0.00000  Uiso   1.00
C390   C     0.48088   0.64449   0.65872   0.00000  Uiso   1.00
C391   C     0.45267   0.69788   0.65805   0.00000  Uiso   1.00
H392   H     0.54232   0.92610   0.65559   0.00000  Uiso   1.00
H393   H     0.57320   0.93265   0.55843   0.00000  Uiso   1.00
H394   H     0.57304   0.93922   0.75270   0.00000  Uiso   1.00
H395   H     0.48071   0.93537   0.65534   0.00000  Uiso   1.00
H396   H     0.60748   0.89429   0.45124   0.00000  Uiso   1.00
H397   H     0.60712   0.90814   0.86090   0.00000  Uiso   1.00
H398   H     0.41243   0.90001   0.65560   0.00000  Uiso   1.00
H399   H     0.54254   0.57444   0.65968   0.00000  Uiso   1.00
H400   H     0.57344   0.56170   0.56274   0.00000  Uiso   1.00
H401   H     0.57327   0.56827   0.75702   0.00000  Uiso   1.00
H402   H     0.48094   0.56441   0.65966   0.00000  Uiso   1.00
H403   H     0.60767   0.59320   0.45475   0.00000  Uiso   1.00
H404   H     0.60731   0.60706   0.86440   0.00000  Uiso   1.00
H405   H     0.41262   0.59893   0.65910   0.00000  Uiso   1.00
O406   O     0.62791   0.74171   0.38916   0.00000  Uiso   1.00
O407   O     0.62743   0.75989   0.92661   0.00000  Uiso   1.00
O408   O     0.37199   0.74922   0.65726   0.00000  Uiso   1.00
N409   N     0.60328   0.82517   0.46537   0.00000  Uiso   1.00
N410   N     0.60295   0.83813   0.84836   0.00000  Uiso   1.00
N411   N     0.42093   0.83053   0.65644   0.00000  Uiso   1.00
N412   N     0.60338   0.66316   0.46725   0.00000  Uiso   1.00
N413   N     0.60305   0.67612   0.85025   0.00000  Uiso   1.00
N414   N     0.42103   0.66852   0.65832   0.00000  Uiso   1.00
C415   C     0.54237   0.34553   0.15652   0.00000  Uiso   1.00
C416   C     0.55918   0.30033   0.10430   0.00000  Uiso   1.00
C417   C     0.57326   0.35257   0.05934   0.00000  Uiso   1.00
C418   C     0.58742   0.29760   0.01557   0.00000  Uiso   1.00
C419   C     0.61352   0.24315   0.93431   0.00000  Uiso   1.00
C420   C     0.55909   0.30390   0.20985   0.00000  Uiso   1.00
C421   C     0.57309   0.35914   0.25365   0.00000  Uiso   1.00
C422   C     0.58718   0.30717   0.29874   0.00000  Uiso   1.00
C423   C     0.61313   0.25827   0.38137   0.00000  Uiso   1.00
C424   C     0.50893   0.30181   0.15695   0.00000  Uiso   1.00
C425   C     0.48075   0.35529   0.15627   0.00000  Uiso   1.00
C426   C     0.45260   0.30155   0.15684   0.00000  Uiso   1.00
C427   C     0.40066   0.24940   0.15733   0.00000  Uiso   1.00
C428   C     0.54249   0.15501   0.15874   0.00000  Uiso   1.00
C429   C     0.55924   0.19685   0.10551   0.00000  Uiso   1.00
C430   C     0.57339   0.14178   0.06179   0.00000  Uiso   1.00
C431   C     0.58749   0.19393   0.01678   0.00000  Uiso   1.00
C432   C     0.55916   0.20042   0.21106   0.00000  Uiso   1.00
C433   C     0.57323   0.14835   0.25610   0.00000  Uiso   1.00
C434   C     0.58725   0.20350   0.29995   0.00000  Uiso   1.00
C435   C     0.50899   0.19832   0.15815   0.00000  Uiso   1.00
C436   C     0.48088   0.14449   0.15872   0.00000  Uiso   1.00
C437   C     0.45267   0.19788   0.15805   0.00000  Uiso   1.00
H438   H     0.54232   0.42610   0.15559   0.00000  Uiso   1.00
H439   H     0.57320   0.43265   0.05843   0.00000  Uiso   1.00
H440   H     0.57304   0.43922   0.25270   0.00000  Uiso   1.00
H441   H     0.48071   0.43537   0.15534   0.00000  Uiso   1.00
H442   H     0.60748   0.39429   0.95124   0.00000  Uiso   1.00
H443   H     0.60712   0.40814   0.36090   0.00000  Uiso   1.00
H444   H     0.41243   0.40001   0.15560   0.00000  Uiso   1.00
H445   H     0.54254   0.07444   0.15968   0.00000  Uiso   1.00
H446   H     0.57344   0.06170   0.06274   0.00000  Uiso   1.00
H447   H     0.57327   0.06827   0.25702   0.00000  Uiso   1.00
H448   H     0.48094   0.06441   0.15966   0.00000  Uiso   1.00
H449   H     0.60767   0.09320   0.95475   0.00000  Uiso   1.00
H450   H     0.60731   0.10706   0.36440   0.00000  Uiso   1.00
H451   H     0.41262   0.09893   0.15910   0.00000  Uiso   1.00
O452   O     0.62791   0.24171   0.88916   0.00000  Uiso   1.00
O453   O     0.62743   0.25989   0.42661   0.00000  Uiso   1.00
O454   O     0.37199   0.24922   0.15726   0.00000  Uiso   1.00
N455   N     0.60328   0.32517   0.96537   0.00000  Uiso   1.00
N456   N     0.60295   0.33813   0.34836   0.00000  Uiso   1.00
N457   N     0.42093   0.33053   0.15644   0.00000  Uiso   1.00
N458   N     0.60338   0.16316   0.96725   0.00000  Uiso   1.00
N459   N     0.60305   0.17612   0.35025   0.00000  Uiso   1.00
N460   N     0.42103   0.16852   0.15832   0.00000  Uiso   1.00
C461   C     0.04237   0.84553   0.15652   0.00000  Uiso   1.00
C462   C     0.05918   0.80033   0.10430   0.00000  Uiso   1.00
C463   C     0.07326   0.85257   0.05934   0.00000  Uiso   1.00
C464   C     0.08742   0.79760   0.01557   0.00000  Uiso   1.00
C465   C     0.11352   0.74315   0.93431   0.00000  Uiso   1.00
C466   C     0.05909   0.80390   0.20985   0.00000  Uiso   1.00
C467   C     0.07309   0.85914   0.25365   0.00000  Uiso   1.00
C468   C     0.08718   0.80717   0.29874   0.00000  Uiso   1.00
C469   C     0.11313   0.75827   0.38137   0.00000  Uiso   1.00
C470   C     0.00893   0.80181   0.15695   0.00000  Uiso   1.00
C471   C     0.98075   0.85529   0.15627   0.00000  Uiso   1.00
C472   C     0.95260   0.80155   0.15684   0.00000  Uiso   1.00
C473   C     0.90066   0.74940   0.15733   0.00000  Uiso   1.00
C474   C     0.04249   0.65501   0.15874   0.00000  Uiso   1.00
C475   C     0.05924   0.69685   0.10551   0.00000  Uiso   1.00
C476   C     0.07339   0.64178   0.06179   0.00000  Uiso   1.00
C477   C     0.08749   0.69393   0.01678   0.00000  Uiso   1.00
C478   C     0.05916   0.70042   0.21106   0.00000  Uiso   1.00
C479   C     0.07323   0.64835   0.25610   0.00000  Uiso   1.00
C480   C     0.08725   0.70350   0.29995   0.00000  Uiso   1.00
C481   C     0.00899   0.69832   0.15815   0.00000  Uiso   1.00
C482   C     0.98088   0.64449   0.15872   0.00000  Uiso   1.00
C483   C     0.95267   0.69788   0.15805   0.00000  Uiso   1.00
H484   H     0.04232   0.92610   0.15559   0.00000  Uiso   1.00
H485   H     0.07320   0.93265   0.05843   0.00000  Uiso   1.00
H486   H     0.07304   0.93922   0.25270   0.00000  Uiso   1.00
H487   H     0.98071   0.93537   0.15534   0.00000  Uiso   1.00
H488   H     0.10748   0.89429   0.95124   0.00000  Uiso   1.00
H489   H     0.10712   0.90814   0.36090   0.00000  Uiso   1.00
H490   H     0.91243   0.90001   0.15560   0.00000  Uiso   1.00
H491   H     0.04254   0.57444   0.15968   0.00000  Uiso   1.00
H492   H     0.07344   0.56170   0.06274   0.00000  Uiso   1.00
H493   H     0.07327   0.56827   0.25702   0.00000  Uiso   1.00
H494   H     0.98094   0.56441   0.15966   0.00000  Uiso   1.00
H495   H     0.10767   0.59320   0.95475   0.00000  Uiso   1.00
H496   H     0.10731   0.60706   0.36440   0.00000  Uiso   1.00
H497   H     0.91262   0.59893   0.15910   0.00000  Uiso   1.00
O498   O     0.12791   0.74171   0.88916   0.00000  Uiso   1.00
O499   O     0.12743   0.75989   0.42661   0.00000  Uiso   1.00
O500   O     0.87199   0.74922   0.15726   0.00000  Uiso   1.00
N501   N     0.10328   0.82517   0.96537   0.00000  Uiso   1.00
N502   N     0.10295   0.83813   0.34836   0.00000  Uiso   1.00
N503   N     0.92093   0.83053   0.15644   0.00000  Uiso   1.00
N504   N     0.10338   0.66316   0.96725   0.00000  Uiso   1.00
N505   N     0.10305   0.67612   0.35025   0.00000  Uiso   1.00
N506   N     0.92103   0.66852   0.15832   0.00000  Uiso   1.00
C507   C     0.04237   0.34553   0.65652   0.00000  Uiso   1.00
C508   C     0.05918   0.30033   0.60430   0.00000  Uiso   1.00
C509   C     0.07326   0.35257   0.55934   0.00000  Uiso   1.00
C510   C     0.08742   0.29760   0.51557   0.00000  Uiso   1.00
C511   C     0.11352   0.24315   0.43431   0.00000  Uiso   1.00
C512   C     0.05909   0.30390   0.70985   0.00000  Uiso   1.00
C513   C     0.07309   0.35914   0.75365   0.00000  Uiso   1.00
C514   C     0.08718   0.30717   0.79874   0.00000  Uiso   1.00
C515   C     0.11313   0.25827   0.88137   0.00000  Uiso   1.00
C516   C     0.00893   0.30181   0.65695   0.00000  Uiso   1.00
C517   C     0.98075   0.35529   0.65627   0.00000  Uiso   1.00
C518   C     0.95260   0.30155   0.65684   0.00000  Uiso   1.00
C519   C     0.90066   0.24940   0.65733   0.00000  Uiso   1.00
C520   C     0.04249   0.15501   0.65874   0.00000  Uiso   1.00
C521   C     0.05924   0.19685   0.60551   0.00000  Uiso   1.00
C522   C     0.07339   0.14178   0.56179   0.00000  Uiso   1.00
C523   C     0.08749   0.19393   0.51678   0.00000  Uiso   1.00
C524   C     0.05916   0.20042   0.71106   0.00000  Uiso   1.00
C525   C     0.07323   0.14835   0.75610   0.00000  Uiso   1.00
C526   C     0.08725   0.20350   0.79995   0.00000  Uiso   1.00
C527   C     0.00899   0.19832   0.65815   0.00000  Uiso   1.00
C528   C     0.98088   0.14449   0.65872   0.00000  Uiso   1.00
C529   C     0.95267   0.19788   0.65805   0.00000  Uiso   1.00
H530   H     0.04232   0.42610   0.65559   0.00000  Uiso   1.00
H531   H     0.07320   0.43265   0.55843   0.00000  Uiso   1.00
H532   H     0.07304   0.43922   0.75270   0.00000  Uiso   1.00
H533   H     0.98071   0.43537   0.65534   0.00000  Uiso   1.00
H534   H     0.10748   0.39429   0.45124   0.00000  Uiso   1.00
H535   H     0.10712   0.40814   0.86090   0.00000  Uiso   1.00
H536   H     0.91243   0.40001   0.65560   0.00000  Uiso   1.00
H537   H     0.04254   0.07444   0.65968   0.00000  Uiso   1.00
H538   H     0.07344   0.06170   0.56274   0.00000  Uiso   1.00
H539   H     0.07327   0.06827   0.75702   0.00000  Uiso   1.00
H540   H     0.98094   0.06441   0.65966   0.00000  Uiso   1.00
H541   H     0.10767   0.09320   0.45475   0.00000  Uiso   1.00
H542   H     0.10731   0.10706   0.86440   0.00000  Uiso   1.00
H543   H     0.91262   0.09893   0.65910   0.00000  Uiso   1.00
O544   O     0.12791   0.24171   0.38916   0.00000  Uiso   1.00
O545   O     0.12743   0.25989   0.92661   0.00000  Uiso   1.00
O546   O     0.87199   0.24922   0.65726   0.00000  Uiso   1.00
N547   N     0.10328   0.32517   0.46537   0.00000  Uiso   1.00
N548   N     0.10295   0.33813   0.84836   0.00000  Uiso   1.00
N549   N     0.92093   0.33053   0.65644   0.00000  Uiso   1.00
N550   N     0.10338   0.16316   0.46725   0.00000  Uiso   1.00
N551   N     0.10305   0.17612   0.85025   0.00000  Uiso   1.00
N552   N     0.92103   0.16852   0.65832   0.00000  Uiso   1.00
C553   C     0.95763   0.65447   0.65652   0.00000  Uiso   1.00
C554   C     0.94082   0.69967   0.60430   0.00000  Uiso   1.00
C555   C     0.92674   0.64743   0.55934   0.00000  Uiso   1.00
C556   C     0.91258   0.70240   0.51557   0.00000  Uiso   1.00
C557   C     0.88648   0.75685   0.43431   0.00000  Uiso   1.00
C558   C     0.94091   0.69610   0.70985   0.00000  Uiso   1.00
C559   C     0.92691   0.64086   0.75365   0.00000  Uiso   1.00
C560   C     0.91282   0.69283   0.79874   0.00000  Uiso   1.00
C561   C     0.88687   0.74173   0.88137   0.00000  Uiso   1.00
C562   C     0.99107   0.69819   0.65695   0.00000  Uiso   1.00
C563   C     0.01925   0.64471   0.65627   0.00000  Uiso   1.00
C564   C     0.04740   0.69845   0.65684   0.00000  Uiso   1.00
C565   C     0.09934   0.75060   0.65733   0.00000  Uiso   1.00
C566   C     0.95751   0.84499   0.65874   0.00000  Uiso   1.00
C567   C     0.94076   0.80315   0.60551   0.00000  Uiso   1.00
C568   C     0.92661   0.85822   0.56179   0.00000  Uiso   1.00
C569   C     0.91251   0.80607   0.51678   0.00000  Uiso   1.00
C570   C     0.94084   0.79958   0.71106   0.00000  Uiso   1.00
C571   C     0.92677   0.85165   0.75610   0.00000  Uiso   1.00
C572   C     0.91275   0.79650   0.79995   0.00000  Uiso   1.00
C573   C     0.99101   0.80168   0.65815   0.00000  Uiso   1.00
C574   C     0.01912   0.85551   0.65872   0.00000  Uiso   1.00
C575   C     0.04733   0.80212   0.65805   0.00000  Uiso   1.00
H576   H     0.95768   0.57390   0.65559   0.00000  Uiso   1.00
H577   H     0.92680   0.56735   0.55843   0.00000  Uiso   1.00
H578   H     0.92696   0.56078   0.75270   0.00000  Uiso   1.00
H579   H     0.01929   0.56463   0.65534   0.00000  Uiso   1.00
H580   H     0.89252   0.60571   0.45124   0.00000  Uiso   1.00
H581   H     0.89288   0.59186   0.86090   0.00000  Uiso   1.00
H582   H     0.08757   0.59999   0.65560   0.00000  Uiso   1.00
H583   H     0.95746   0.92556   0.65968   0.00000  Uiso   1.00
H584   H     0.92656   0.93830   0.56274   0.00000  Uiso   1.00
H585   H     0.92673   0.93173   0.75702   0.00000  Uiso   1.00
H586   H     0.01906   0.93559   0.65966   0.00000  Uiso   1.00
H587   H     0.89233   0.90680   0.45475   0.00000  Uiso   1.00
H588   H     0.89269   0.89294   0.86440   0.00000  Uiso   1.00
H589   H     0.08738   0.90107   0.65910   0.00000  Uiso   1.00
O590   O     0.87209   0.75829   0.38916   0.00000  Uiso   1.00
O591   O     0.87257   0.74011   0.92661   0.00000  Uiso   1.00
O592   O     0.12801   0.75078   0.65726   0.00000  Uiso   1.00
N593   N     0.89672   0.67483   0.46537   0.00000  Uiso   1.00
N594   N     0.89705   0.66187   0.84836   0.00000  Uiso   1.00
N595   N     0.07907   0.66947   0.65644   0.00000  Uiso   1.00
N596   N     0.89662   0.83684   0.46725   0.00000  Uiso   1.00
N597   N     0.89695   0.82388   0.85025   0.00000  Uiso   1.00
N598   N     0.07897   0.83148   0.65832   0.00000  Uiso   1.00
C599   C     0.95763   0.15447   0.15652   0.00000  Uiso   1.00
C600   C     0.94082   0.19967   0.10430   0.00000  Uiso   1.00
C601   C     0.92674   0.14743   0.05934   0.00000  Uiso   1.00
C602   C     0.91258   0.20240   0.01557   0.00000  Uiso   1.00
C603   C     0.88648   0.25685   0.93431   0.00000  Uiso   1.00
C604   C     0.94091   0.19610   0.20985   0.00000  Uiso   1.00
C605   C     0.92691   0.14086   0.25365   0.00000  Uiso   1.00
C606   C     0.91282   0.19283   0.29874   0.00000  Uiso   1.00
C607   C     0.88687   0.24173   0.38137   0.00000  Uiso   1.00
C608   C     0.99107   0.19819   0.15695   0.00000  Uiso   1.00
C609   C     0.01925   0.14471   0.15627   0.00000  Uiso   1.00
C610   C     0.04740   0.19845   0.15684   0.00000  Uiso   1.00
C611   C     0.09934   0.25060   0.15733   0.00000  Uiso   1.00
C612   C     0.95751   0.34499   0.15874   0.00000  Uiso   1.00
C613   C     0.94076   0.30315   0.10551   0.00000  Uiso   1.00
C614   C     0.92661   0.35822   0.06179   0.00000  Uiso   1.00
C615   C     0.91251   0.30607   0.01678   0.00000  Uiso   1.00
C616   C     0.94084   0.29958   0.21106   0.00000  Uiso   1.00
C617   C     0.92677   0.35165   0.25610   0.00000  Uiso   1.00
C618   C     0.91275   0.29650   0.29995   0.00000  Uiso   1.00
C619   C     0.99101   0.30168   0.15815   0.00000  Uiso   1.00
C620   C     0.01912   0.35551   0.15872   0.00000  Uiso   1.00
C621   C     0.04733   0.30212   0.15805   0.00000  Uiso   1.00
H622   H     0.95768   0.07390   0.15559   0.00000  Uiso   1.00
H623   H     0.92680   0.06735   0.05843   0.00000  Uiso   1.00
H624   H     0.92696   0.06078   0.25270   0.00000  Uiso   1.00
H625   H     0.01929   0.06463   0.15534   0.00000  Uiso   1.00
H626   H     0.89252   0.10571   0.95124   0.00000  Uiso   1.00
H627   H     0.89288   0.09186   0.36090   0.00000  Uiso   1.00
H628   H     0.08757   0.09999   0.15560   0.00000  Uiso   1.00
H629   H     0.95746   0.42556   0.15968   0.00000  Uiso   1.00
H630   H     0.92656   0.43830   0.06274   0.00000  Uiso   1.00
H631   H     0.92673   0.43173   0.25702   0.00000  Uiso   1.00
H632   H     0.01906   0.43559   0.15966   0.00000  Uiso   1.00
H633   H     0.89233   0.40680   0.95475   0.00000  Uiso   1.00
H634   H     0.89269   0.39294   0.36440   0.00000  Uiso   1.00
H635   H     0.08738   0.40107   0.15910   0.00000  Uiso   1.00
O636   O     0.87209   0.25829   0.88916   0.00000  Uiso   1.00
O637   O     0.87257   0.24011   0.42661   0.00000  Uiso   1.00
O638   O     0.12801   0.25078   0.15726   0.00000  Uiso   1.00
N639   N     0.89672   0.17483   0.96537   0.00000  Uiso   1.00
N640   N     0.89705   0.16187   0.34836   0.00000  Uiso   1.00
N641   N     0.07907   0.16947   0.15644   0.00000  Uiso   1.00
N642   N     0.89662   0.33684   0.96725   0.00000  Uiso   1.00
N643   N     0.89695   0.32388   0.35025   0.00000  Uiso   1.00
N644   N     0.07897   0.33148   0.15832   0.00000  Uiso   1.00
C645   C     0.45763   0.65447   0.15652   0.00000  Uiso   1.00
C646   C     0.44082   0.69967   0.10430   0.00000  Uiso   1.00
C647   C     0.42674   0.64743   0.05934   0.00000  Uiso   1.00
C648   C     0.41258   0.70240   0.01557   0.00000  Uiso   1.00
C649   C     0.38648   0.75685   0.93431   0.00000  Uiso   1.00
C650   C     0.44091   0.69610   0.20985   0.00000  Uiso   1.00
C651   C     0.42691   0.64086   0.25365   0.00000  Uiso   1.00
C652   C     0.41282   0.69283   0.29874   0.00000  Uiso   1.00
C653   C     0.38687   0.74173   0.38137   0.00000  Uiso   1.00
C654   C     0.49107   0.69819   0.15695   0.00000  Uiso   1.00
C655   C     0.51925   0.64471   0.15627   0.00000  Uiso   1.00
C656   C     0.54740   0.69845   0.15684   0.00000  Uiso   1.00
C657   C     0.59934   0.75060   0.15733   0.00000  Uiso   1.00
C658   C     0.45751   0.84499   0.15874   0.00000  Uiso   1.00
C659   C     0.44076   0.80315   0.10551   0.00000  Uiso   1.00
C660   C     0.42661   0.85822   0.06179   0.00000  Uiso   1.00
C661   C     0.41251   0.80607   0.01678   0.00000  Uiso   1.00
C662   C     0.44084   0.79958   0.21106   0.00000  Uiso   1.00
C663   C     0.42677   0.85165   0.25610   0.00000  Uiso   1.00
C664   C     0.41275   0.79650   0.29995   0.00000  Uiso   1.00
C665   C     0.49101   0.80168   0.15815   0.00000  Uiso   1.00
C666   C     0.51912   0.85551   0.15872   0.00000  Uiso   1.00
C667   C     0.54733   0.80212   0.15805   0.00000  Uiso   1.00
H668   H     0.45768   0.57390   0.15559   0.00000  Uiso   1.00
H669   H     0.42680   0.56735   0.05843   0.00000  Uiso   1.00
H670   H     0.42696   0.56078   0.25270   0.00000  Uiso   1.00
H671   H     0.51929   0.56463   0.15534   0.00000  Uiso   1.00
H672   H     0.39252   0.60571   0.95124   0.00000  Uiso   1.00
H673   H     0.39288   0.59186   0.36090   0.00000  Uiso   1.00
H674   H     0.58757   0.59999   0.15560   0.00000  Uiso   1.00
H675   H     0.45746   0.92556   0.15968   0.00000  Uiso   1.00
H676   H     0.42656   0.93830   0.06274   0.00000  Uiso   1.00
H677   H     0.42673   0.93173   0.25702   0.00000  Uiso   1.00
H678   H     0.51906   0.93559   0.15966   0.00000  Uiso   1.00
H679   H     0.39233   0.90680   0.95475   0.00000  Uiso   1.00
H680   H     0.39269   0.89294   0.36440   0.00000  Uiso   1.00
H681   H     0.58738   0.90107   0.15910   0.00000  Uiso   1.00
O682   O     0.37209   0.75829   0.88916   0.00000  Uiso   1.00
O683   O     0.37257   0.74011   0.42661   0.00000  Uiso   1.00
O684   O     0.62801   0.75078   0.15726   0.00000  Uiso   1.00
N685   N     0.39672   0.67483   0.96537   0.00000  Uiso   1.00
N686   N     0.39705   0.66187   0.34836   0.00000  Uiso   1.00
N687   N     0.57907   0.66947   0.15644   0.00000  Uiso   1.00
N688   N     0.39662   0.83684   0.96725   0.00000  Uiso   1.00
N689   N     0.39695   0.82388   0.35025   0.00000  Uiso   1.00
N690   N     0.57897   0.83148   0.15832   0.00000  Uiso   1.00
C691   C     0.45763   0.15447   0.65652   0.00000  Uiso   1.00
C692   C     0.44082   0.19967   0.60430   0.00000  Uiso   1.00
C693   C     0.42674   0.14743   0.55934   0.00000  Uiso   1.00
C694   C     0.41258   0.20240   0.51557   0.00000  Uiso   1.00
C695   C     0.38648   0.25685   0.43431   0.00000  Uiso   1.00
C696   C     0.44091   0.19610   0.70985   0.00000  Uiso   1.00
C697   C     0.42691   0.14086   0.75365   0.00000  Uiso   1.00
C698   C     0.41282   0.19283   0.79874   0.00000  Uiso   1.00
C699   C     0.38687   0.24173   0.88137   0.00000  Uiso   1.00
C700   C     0.49107   0.19819   0.65695   0.00000  Uiso   1.00
C701   C     0.51925   0.14471   0.65627   0.00000  Uiso   1.00
C702   C     0.54740   0.19845   0.65684   0.00000  Uiso   1.00
C703   C     0.59934   0.25060   0.65733   0.00000  Uiso   1.00
C704   C     0.45751   0.34499   0.65874   0.00000  Uiso   1.00
C705   C     0.44076   0.30315   0.60551   0.00000  Uiso   1.00
C706   C     0.42661   0.35822   0.56179   0.00000  Uiso   1.00
C707   C     0.41251   0.30607   0.51678   0.00000  Uiso   1.00
C708   C     0.44084   0.29958   0.71106   0.00000  Uiso   1.00
C709   C     0.42677   0.35165   0.75610   0.00000  Uiso   1.00
C710   C     0.41275   0.29650   0.79995   0.00000  Uiso   1.00
C711   C     0.49101   0.30168   0.65815   0.00000  Uiso   1.00
C712   C     0.51912   0.35551   0.65872   0.00000  Uiso   1.00
C713   C     0.54733   0.30212   0.65805   0.00000  Uiso   1.00
H714   H     0.45768   0.07390   0.65559   0.00000  Uiso   1.00
H715   H     0.42680   0.06735   0.55843   0.00000  Uiso   1.00
H716   H     0.42696   0.06078   0.75270   0.00000  Uiso   1.00
H717   H     0.51929   0.06463   0.65534   0.00000  Uiso   1.00
H718   H     0.39252   0.10571   0.45124   0.00000  Uiso   1.00
H719   H     0.39288   0.09186   0.86090   0.00000  Uiso   1.00
H720   H     0.58757   0.09999   0.65560   0.00000  Uiso   1.00
H721   H     0.45746   0.42556   0.65968   0.00000  Uiso   1.00
H722   H     0.42656   0.43830   0.56274   0.00000  Uiso   1.00
H723   H     0.42673   0.43173   0.75702   0.00000  Uiso   1.00
H724   H     0.51906   0.43559   0.65966   0.00000  Uiso   1.00
H725   H     0.39233   0.40680   0.45475   0.00000  Uiso   1.00
H726   H     0.39269   0.39294   0.86440   0.00000  Uiso   1.00
H727   H     0.58738   0.40107   0.65910   0.00000  Uiso   1.00
O728   O     0.37209   0.25829   0.38916   0.00000  Uiso   1.00
O729   O     0.37257   0.24011   0.92661   0.00000  Uiso   1.00
O730   O     0.62801   0.25078   0.65726   0.00000  Uiso   1.00
N731   N     0.39672   0.17483   0.46537   0.00000  Uiso   1.00
N732   N     0.39705   0.16187   0.84836   0.00000  Uiso   1.00
N733   N     0.57907   0.16947   0.65644   0.00000  Uiso   1.00
N734   N     0.39662   0.33684   0.46725   0.00000  Uiso   1.00
N735   N     0.39695   0.32388   0.85025   0.00000  Uiso   1.00
N736   N     0.57897   0.33148   0.65832   0.00000  Uiso   1.00
