data_job_05532
_audit_creation_date              2018-12-19
_audit_creation_method            'Materials Studio'
_symmetry_space_group_name_H-M    'P1'
_symmetry_Int_Tables_number       1
_symmetry_cell_setting            triclinic
loop_
_symmetry_equiv_pos_as_xyz
  x,y,z
_cell_length_a                    27.0291
_cell_length_b                    27.0291
_cell_length_c                    16.4176
_cell_angle_alpha                 90.0000
_cell_angle_beta                  90.0000
_cell_angle_gamma                 90.0000
loop_
_atom_site_label
_atom_site_type_symbol
_atom_site_fract_x
_atom_site_fract_y
_atom_site_fract_z
_atom_site_U_iso_or_equiv
_atom_site_adp_type
_atom_site_occupancy
C1     C     0.33886   0.18254   0.46953   0.00000  Uiso   1.00
C2     C     0.36980   0.19729   0.39575   0.00000  Uiso   1.00
C3     C     0.36961   0.17375   0.32063   0.00000  Uiso   1.00
C4     C     0.40058   0.19289   0.26097   0.00000  Uiso   1.00
C5     C     0.44406   0.20951   0.14414   0.00000  Uiso   1.00
C6     C     0.37547   0.17394   0.53877   0.00000  Uiso   1.00
C7     C     0.38004   0.13076   0.58391   0.00000  Uiso   1.00
C8     C     0.41577   0.13026   0.64465   0.00000  Uiso   1.00
C9     C     0.46803   0.11063   0.74991   0.00000  Uiso   1.00
C10    C     0.30924   0.22839   0.49301   0.00000  Uiso   1.00
C11    C     0.25812   0.23100   0.49969   0.00000  Uiso   1.00
C12    C     0.23810   0.27634   0.52193   0.00000  Uiso   1.00
C13    C     0.18753   0.34125   0.55613   0.00000  Uiso   1.00
C14    C     0.39420   0.25841   0.49716   0.00000  Uiso   1.00
C15    C     0.39986   0.23850   0.41076   0.00000  Uiso   1.00
C16    C     0.43083   0.25769   0.35120   0.00000  Uiso   1.00
C17    C     0.43068   0.23418   0.27600   0.00000  Uiso   1.00
C18    C     0.40553   0.21514   0.55378   0.00000  Uiso   1.00
C19    C     0.44126   0.21470   0.61448   0.00000  Uiso   1.00
C20    C     0.44588   0.17154   0.65969   0.00000  Uiso   1.00
C21    C     0.33930   0.26960   0.50802   0.00000  Uiso   1.00
C22    C     0.31935   0.31494   0.53026   0.00000  Uiso   1.00
C23    C     0.26821   0.31762   0.53697   0.00000  Uiso   1.00
H24    H     0.31547   0.15046   0.45785   0.00000  Uiso   1.00
H25    H     0.34635   0.14186   0.30904   0.00000  Uiso   1.00
H26    H     0.35677   0.09888   0.57228   0.00000  Uiso   1.00
H27    H     0.23488   0.19910   0.48807   0.00000  Uiso   1.00
H28    H     0.39386   0.15048   0.15068   0.00000  Uiso   1.00
H29    H     0.41582   0.05987   0.70576   0.00000  Uiso   1.00
H30    H     0.15878   0.27121   0.52820   0.00000  Uiso   1.00
H31    H     0.41760   0.29049   0.50885   0.00000  Uiso   1.00
H32    H     0.45409   0.28957   0.36284   0.00000  Uiso   1.00
H33    H     0.46451   0.24660   0.62608   0.00000  Uiso   1.00
H34    H     0.34262   0.34682   0.54187   0.00000  Uiso   1.00
H35    H     0.48130   0.27037   0.19435   0.00000  Uiso   1.00
H36    H     0.50327   0.17976   0.74944   0.00000  Uiso   1.00
H37    H     0.24623   0.39110   0.57187   0.00000  Uiso   1.00
O38    O     0.45975   0.20728   0.07555   0.00000  Uiso   1.00
O39    O     0.48856   0.08841   0.80381   0.00000  Uiso   1.00
O40    O     0.15134   0.36568   0.57084   0.00000  Uiso   1.00
N41    N     0.40942   0.17883   0.18099   0.00000  Uiso   1.00
N42    N     0.42996   0.09411   0.69995   0.00000  Uiso   1.00
N43    N     0.18966   0.29169   0.53397   0.00000  Uiso   1.00
N44    N     0.45648   0.24334   0.20449   0.00000  Uiso   1.00
N45    N     0.47702   0.15862   0.72345   0.00000  Uiso   1.00
N46    N     0.23671   0.35620   0.55746   0.00000  Uiso   1.00
C47    C     0.83886   0.68254   0.96953   0.00000  Uiso   1.00
C48    C     0.86980   0.69729   0.89575   0.00000  Uiso   1.00
C49    C     0.86961   0.67375   0.82063   0.00000  Uiso   1.00
C50    C     0.90058   0.69289   0.76097   0.00000  Uiso   1.00
C51    C     0.94406   0.70951   0.64414   0.00000  Uiso   1.00
C52    C     0.87547   0.67394   0.03877   0.00000  Uiso   1.00
C53    C     0.88004   0.63076   0.08391   0.00000  Uiso   1.00
C54    C     0.91577   0.63026   0.14465   0.00000  Uiso   1.00
C55    C     0.96803   0.61063   0.24991   0.00000  Uiso   1.00
C56    C     0.80924   0.72839   0.99301   0.00000  Uiso   1.00
C57    C     0.75812   0.73100   0.99969   0.00000  Uiso   1.00
C58    C     0.73810   0.77634   0.02193   0.00000  Uiso   1.00
C59    C     0.68753   0.84125   0.05613   0.00000  Uiso   1.00
C60    C     0.89420   0.75841   0.99716   0.00000  Uiso   1.00
C61    C     0.89986   0.73850   0.91076   0.00000  Uiso   1.00
C62    C     0.93083   0.75769   0.85120   0.00000  Uiso   1.00
C63    C     0.93068   0.73418   0.77600   0.00000  Uiso   1.00
C64    C     0.90553   0.71514   0.05378   0.00000  Uiso   1.00
C65    C     0.94126   0.71470   0.11448   0.00000  Uiso   1.00
C66    C     0.94588   0.67154   0.15969   0.00000  Uiso   1.00
C67    C     0.83930   0.76960   0.00802   0.00000  Uiso   1.00
C68    C     0.81935   0.81494   0.03026   0.00000  Uiso   1.00
C69    C     0.76821   0.81762   0.03697   0.00000  Uiso   1.00
H70    H     0.81547   0.65046   0.95785   0.00000  Uiso   1.00
H71    H     0.84635   0.64186   0.80904   0.00000  Uiso   1.00
H72    H     0.85677   0.59888   0.07228   0.00000  Uiso   1.00
H73    H     0.73488   0.69910   0.98807   0.00000  Uiso   1.00
H74    H     0.89386   0.65048   0.65068   0.00000  Uiso   1.00
H75    H     0.91582   0.55987   0.20576   0.00000  Uiso   1.00
H76    H     0.65878   0.77121   0.02820   0.00000  Uiso   1.00
H77    H     0.91760   0.79049   0.00885   0.00000  Uiso   1.00
H78    H     0.95409   0.78957   0.86284   0.00000  Uiso   1.00
H79    H     0.96451   0.74660   0.12608   0.00000  Uiso   1.00
H80    H     0.84262   0.84682   0.04187   0.00000  Uiso   1.00
H81    H     0.98130   0.77037   0.69435   0.00000  Uiso   1.00
H82    H     0.00327   0.67976   0.24944   0.00000  Uiso   1.00
H83    H     0.74623   0.89110   0.07187   0.00000  Uiso   1.00
O84    O     0.95975   0.70728   0.57555   0.00000  Uiso   1.00
O85    O     0.98856   0.58841   0.30381   0.00000  Uiso   1.00
O86    O     0.65134   0.86568   0.07084   0.00000  Uiso   1.00
N87    N     0.90942   0.67883   0.68099   0.00000  Uiso   1.00
N88    N     0.92996   0.59411   0.19995   0.00000  Uiso   1.00
N89    N     0.68966   0.79169   0.03397   0.00000  Uiso   1.00
N90    N     0.95648   0.74334   0.70449   0.00000  Uiso   1.00
N91    N     0.97702   0.65862   0.22345   0.00000  Uiso   1.00
N92    N     0.73671   0.85620   0.05746   0.00000  Uiso   1.00
C93    C     0.16114   0.31746   0.96953   0.00000  Uiso   1.00
C94    C     0.13020   0.30271   0.89575   0.00000  Uiso   1.00
C95    C     0.13039   0.32625   0.82063   0.00000  Uiso   1.00
C96    C     0.09942   0.30711   0.76097   0.00000  Uiso   1.00
C97    C     0.05594   0.29049   0.64414   0.00000  Uiso   1.00
C98    C     0.12453   0.32606   0.03877   0.00000  Uiso   1.00
C99    C     0.11996   0.36924   0.08391   0.00000  Uiso   1.00
C100   C     0.08423   0.36974   0.14465   0.00000  Uiso   1.00
C101   C     0.03197   0.38937   0.24991   0.00000  Uiso   1.00
C102   C     0.19076   0.27161   0.99301   0.00000  Uiso   1.00
C103   C     0.24188   0.26900   0.99969   0.00000  Uiso   1.00
C104   C     0.26190   0.22366   0.02193   0.00000  Uiso   1.00
C105   C     0.31247   0.15875   0.05613   0.00000  Uiso   1.00
C106   C     0.10580   0.24159   0.99716   0.00000  Uiso   1.00
C107   C     0.10014   0.26150   0.91076   0.00000  Uiso   1.00
C108   C     0.06917   0.24231   0.85120   0.00000  Uiso   1.00
C109   C     0.06932   0.26582   0.77600   0.00000  Uiso   1.00
C110   C     0.09447   0.28486   0.05378   0.00000  Uiso   1.00
C111   C     0.05874   0.28530   0.11448   0.00000  Uiso   1.00
C112   C     0.05412   0.32846   0.15969   0.00000  Uiso   1.00
C113   C     0.16070   0.23040   0.00802   0.00000  Uiso   1.00
C114   C     0.18065   0.18506   0.03026   0.00000  Uiso   1.00
C115   C     0.23179   0.18238   0.03697   0.00000  Uiso   1.00
H116   H     0.18453   0.34954   0.95785   0.00000  Uiso   1.00
H117   H     0.15365   0.35814   0.80904   0.00000  Uiso   1.00
H118   H     0.14323   0.40112   0.07228   0.00000  Uiso   1.00
H119   H     0.26512   0.30090   0.98807   0.00000  Uiso   1.00
H120   H     0.10614   0.34952   0.65068   0.00000  Uiso   1.00
H121   H     0.08418   0.44013   0.20576   0.00000  Uiso   1.00
H122   H     0.34122   0.22879   0.02820   0.00000  Uiso   1.00
H123   H     0.08240   0.20951   0.00885   0.00000  Uiso   1.00
H124   H     0.04591   0.21043   0.86284   0.00000  Uiso   1.00
H125   H     0.03549   0.25340   0.12608   0.00000  Uiso   1.00
H126   H     0.15738   0.15318   0.04187   0.00000  Uiso   1.00
H127   H     0.01870   0.22963   0.69435   0.00000  Uiso   1.00
H128   H     0.99673   0.32024   0.24944   0.00000  Uiso   1.00
H129   H     0.25377   0.10890   0.07187   0.00000  Uiso   1.00
O130   O     0.04025   0.29272   0.57555   0.00000  Uiso   1.00
O131   O     0.01144   0.41159   0.30381   0.00000  Uiso   1.00
O132   O     0.34866   0.13432   0.07084   0.00000  Uiso   1.00
N133   N     0.09058   0.32117   0.68099   0.00000  Uiso   1.00
N134   N     0.07004   0.40589   0.19995   0.00000  Uiso   1.00
N135   N     0.31034   0.20831   0.03397   0.00000  Uiso   1.00
N136   N     0.04352   0.25666   0.70449   0.00000  Uiso   1.00
N137   N     0.02298   0.34138   0.22345   0.00000  Uiso   1.00
N138   N     0.26329   0.14380   0.05746   0.00000  Uiso   1.00
C139   C     0.66114   0.81746   0.46953   0.00000  Uiso   1.00
C140   C     0.63020   0.80271   0.39575   0.00000  Uiso   1.00
C141   C     0.63039   0.82625   0.32063   0.00000  Uiso   1.00
C142   C     0.59942   0.80711   0.26097   0.00000  Uiso   1.00
C143   C     0.55594   0.79049   0.14414   0.00000  Uiso   1.00
C144   C     0.62453   0.82606   0.53877   0.00000  Uiso   1.00
C145   C     0.61996   0.86924   0.58391   0.00000  Uiso   1.00
C146   C     0.58423   0.86974   0.64465   0.00000  Uiso   1.00
C147   C     0.53197   0.88937   0.74991   0.00000  Uiso   1.00
C148   C     0.69076   0.77161   0.49301   0.00000  Uiso   1.00
C149   C     0.74188   0.76900   0.49969   0.00000  Uiso   1.00
C150   C     0.76190   0.72366   0.52193   0.00000  Uiso   1.00
C151   C     0.81247   0.65875   0.55613   0.00000  Uiso   1.00
C152   C     0.60580   0.74159   0.49716   0.00000  Uiso   1.00
C153   C     0.60014   0.76150   0.41076   0.00000  Uiso   1.00
C154   C     0.56917   0.74231   0.35120   0.00000  Uiso   1.00
C155   C     0.56932   0.76582   0.27600   0.00000  Uiso   1.00
C156   C     0.59447   0.78486   0.55378   0.00000  Uiso   1.00
C157   C     0.55874   0.78530   0.61448   0.00000  Uiso   1.00
C158   C     0.55412   0.82846   0.65969   0.00000  Uiso   1.00
C159   C     0.66070   0.73040   0.50802   0.00000  Uiso   1.00
C160   C     0.68065   0.68506   0.53026   0.00000  Uiso   1.00
C161   C     0.73179   0.68238   0.53697   0.00000  Uiso   1.00
H162   H     0.68453   0.84954   0.45785   0.00000  Uiso   1.00
H163   H     0.65365   0.85814   0.30904   0.00000  Uiso   1.00
H164   H     0.64323   0.90112   0.57228   0.00000  Uiso   1.00
H165   H     0.76512   0.80090   0.48807   0.00000  Uiso   1.00
H166   H     0.60614   0.84952   0.15068   0.00000  Uiso   1.00
H167   H     0.58418   0.94013   0.70576   0.00000  Uiso   1.00
H168   H     0.84122   0.72879   0.52820   0.00000  Uiso   1.00
H169   H     0.58240   0.70951   0.50885   0.00000  Uiso   1.00
H170   H     0.54591   0.71043   0.36284   0.00000  Uiso   1.00
H171   H     0.53549   0.75340   0.62608   0.00000  Uiso   1.00
H172   H     0.65738   0.65318   0.54187   0.00000  Uiso   1.00
H173   H     0.51870   0.72963   0.19435   0.00000  Uiso   1.00
H174   H     0.49673   0.82024   0.74944   0.00000  Uiso   1.00
H175   H     0.75377   0.60890   0.57187   0.00000  Uiso   1.00
O176   O     0.54025   0.79272   0.07555   0.00000  Uiso   1.00
O177   O     0.51144   0.91159   0.80381   0.00000  Uiso   1.00
O178   O     0.84866   0.63432   0.57084   0.00000  Uiso   1.00
N179   N     0.59058   0.82117   0.18099   0.00000  Uiso   1.00
N180   N     0.57004   0.90589   0.69995   0.00000  Uiso   1.00
N181   N     0.81034   0.70831   0.53397   0.00000  Uiso   1.00
N182   N     0.54352   0.75666   0.20449   0.00000  Uiso   1.00
N183   N     0.52298   0.84138   0.72345   0.00000  Uiso   1.00
N184   N     0.76329   0.64380   0.55746   0.00000  Uiso   1.00
C185   C     0.81746   0.83886   0.71953   0.00000  Uiso   1.00
C186   C     0.80271   0.86980   0.64575   0.00000  Uiso   1.00
C187   C     0.82625   0.86961   0.57063   0.00000  Uiso   1.00
C188   C     0.80711   0.90058   0.51097   0.00000  Uiso   1.00
C189   C     0.79049   0.94406   0.39414   0.00000  Uiso   1.00
C190   C     0.82606   0.87547   0.78877   0.00000  Uiso   1.00
C191   C     0.86924   0.88004   0.83391   0.00000  Uiso   1.00
C192   C     0.86974   0.91577   0.89465   0.00000  Uiso   1.00
C193   C     0.88937   0.96803   0.99991   0.00000  Uiso   1.00
C194   C     0.77161   0.80924   0.74301   0.00000  Uiso   1.00
C195   C     0.76900   0.75812   0.74969   0.00000  Uiso   1.00
C196   C     0.72366   0.73810   0.77193   0.00000  Uiso   1.00
C197   C     0.65875   0.68753   0.80613   0.00000  Uiso   1.00
C198   C     0.74159   0.89420   0.74716   0.00000  Uiso   1.00
C199   C     0.76150   0.89986   0.66076   0.00000  Uiso   1.00
C200   C     0.74231   0.93083   0.60120   0.00000  Uiso   1.00
C201   C     0.76582   0.93068   0.52600   0.00000  Uiso   1.00
C202   C     0.78486   0.90553   0.80378   0.00000  Uiso   1.00
C203   C     0.78530   0.94126   0.86448   0.00000  Uiso   1.00
C204   C     0.82846   0.94588   0.90969   0.00000  Uiso   1.00
C205   C     0.73040   0.83930   0.75802   0.00000  Uiso   1.00
C206   C     0.68506   0.81935   0.78026   0.00000  Uiso   1.00
C207   C     0.68238   0.76821   0.78697   0.00000  Uiso   1.00
H208   H     0.84954   0.81547   0.70785   0.00000  Uiso   1.00
H209   H     0.85814   0.84635   0.55904   0.00000  Uiso   1.00
H210   H     0.90112   0.85677   0.82228   0.00000  Uiso   1.00
H211   H     0.80090   0.73488   0.73807   0.00000  Uiso   1.00
H212   H     0.84952   0.89386   0.40068   0.00000  Uiso   1.00
H213   H     0.94013   0.91582   0.95576   0.00000  Uiso   1.00
H214   H     0.72879   0.65878   0.77820   0.00000  Uiso   1.00
H215   H     0.70951   0.91760   0.75885   0.00000  Uiso   1.00
H216   H     0.71043   0.95409   0.61284   0.00000  Uiso   1.00
H217   H     0.75340   0.96451   0.87608   0.00000  Uiso   1.00
H218   H     0.65318   0.84262   0.79187   0.00000  Uiso   1.00
H219   H     0.72963   0.98130   0.44435   0.00000  Uiso   1.00
H220   H     0.82024   0.00327   0.99944   0.00000  Uiso   1.00
H221   H     0.60890   0.74623   0.82187   0.00000  Uiso   1.00
O222   O     0.79272   0.95975   0.32555   0.00000  Uiso   1.00
O223   O     0.91159   0.98856   0.05381   0.00000  Uiso   1.00
O224   O     0.63432   0.65134   0.82084   0.00000  Uiso   1.00
N225   N     0.82117   0.90942   0.43099   0.00000  Uiso   1.00
N226   N     0.90589   0.92996   0.94995   0.00000  Uiso   1.00
N227   N     0.70831   0.68966   0.78397   0.00000  Uiso   1.00
N228   N     0.75666   0.95648   0.45449   0.00000  Uiso   1.00
N229   N     0.84138   0.97702   0.97345   0.00000  Uiso   1.00
N230   N     0.64380   0.73671   0.80746   0.00000  Uiso   1.00
C231   C     0.31746   0.33886   0.21953   0.00000  Uiso   1.00
C232   C     0.30271   0.36980   0.14575   0.00000  Uiso   1.00
C233   C     0.32625   0.36961   0.07063   0.00000  Uiso   1.00
C234   C     0.30711   0.40058   0.01097   0.00000  Uiso   1.00
C235   C     0.29049   0.44406   0.89414   0.00000  Uiso   1.00
C236   C     0.32606   0.37547   0.28877   0.00000  Uiso   1.00
C237   C     0.36924   0.38004   0.33391   0.00000  Uiso   1.00
C238   C     0.36974   0.41577   0.39465   0.00000  Uiso   1.00
C239   C     0.38937   0.46803   0.49991   0.00000  Uiso   1.00
C240   C     0.27161   0.30924   0.24301   0.00000  Uiso   1.00
C241   C     0.26900   0.25812   0.24969   0.00000  Uiso   1.00
C242   C     0.22366   0.23810   0.27193   0.00000  Uiso   1.00
C243   C     0.15875   0.18753   0.30613   0.00000  Uiso   1.00
C244   C     0.24159   0.39420   0.24716   0.00000  Uiso   1.00
C245   C     0.26150   0.39986   0.16076   0.00000  Uiso   1.00
C246   C     0.24231   0.43083   0.10120   0.00000  Uiso   1.00
C247   C     0.26582   0.43068   0.02600   0.00000  Uiso   1.00
C248   C     0.28486   0.40553   0.30378   0.00000  Uiso   1.00
C249   C     0.28530   0.44126   0.36448   0.00000  Uiso   1.00
C250   C     0.32846   0.44588   0.40969   0.00000  Uiso   1.00
C251   C     0.23040   0.33930   0.25802   0.00000  Uiso   1.00
C252   C     0.18506   0.31935   0.28026   0.00000  Uiso   1.00
C253   C     0.18238   0.26821   0.28697   0.00000  Uiso   1.00
H254   H     0.34954   0.31547   0.20785   0.00000  Uiso   1.00
H255   H     0.35814   0.34635   0.05904   0.00000  Uiso   1.00
H256   H     0.40112   0.35677   0.32228   0.00000  Uiso   1.00
H257   H     0.30090   0.23488   0.23807   0.00000  Uiso   1.00
H258   H     0.34952   0.39386   0.90068   0.00000  Uiso   1.00
H259   H     0.44013   0.41582   0.45576   0.00000  Uiso   1.00
H260   H     0.22879   0.15878   0.27820   0.00000  Uiso   1.00
H261   H     0.20951   0.41760   0.25885   0.00000  Uiso   1.00
H262   H     0.21043   0.45409   0.11284   0.00000  Uiso   1.00
H263   H     0.25340   0.46451   0.37608   0.00000  Uiso   1.00
H264   H     0.15318   0.34262   0.29187   0.00000  Uiso   1.00
H265   H     0.22963   0.48130   0.94435   0.00000  Uiso   1.00
H266   H     0.32024   0.50327   0.49944   0.00000  Uiso   1.00
H267   H     0.10890   0.24623   0.32187   0.00000  Uiso   1.00
O268   O     0.29272   0.45975   0.82555   0.00000  Uiso   1.00
O269   O     0.41159   0.48856   0.55381   0.00000  Uiso   1.00
O270   O     0.13432   0.15134   0.32084   0.00000  Uiso   1.00
N271   N     0.32117   0.40942   0.93099   0.00000  Uiso   1.00
N272   N     0.40589   0.42996   0.44995   0.00000  Uiso   1.00
N273   N     0.20831   0.18966   0.28397   0.00000  Uiso   1.00
N274   N     0.25666   0.45648   0.95449   0.00000  Uiso   1.00
N275   N     0.34138   0.47702   0.47345   0.00000  Uiso   1.00
N276   N     0.14380   0.23671   0.30746   0.00000  Uiso   1.00
C277   C     0.68254   0.66114   0.21953   0.00000  Uiso   1.00
C278   C     0.69729   0.63020   0.14575   0.00000  Uiso   1.00
C279   C     0.67375   0.63039   0.07063   0.00000  Uiso   1.00
C280   C     0.69289   0.59942   0.01097   0.00000  Uiso   1.00
C281   C     0.70951   0.55594   0.89414   0.00000  Uiso   1.00
C282   C     0.67394   0.62453   0.28877   0.00000  Uiso   1.00
C283   C     0.63076   0.61996   0.33391   0.00000  Uiso   1.00
C284   C     0.63026   0.58423   0.39465   0.00000  Uiso   1.00
C285   C     0.61063   0.53197   0.49991   0.00000  Uiso   1.00
C286   C     0.72839   0.69076   0.24301   0.00000  Uiso   1.00
C287   C     0.73100   0.74188   0.24969   0.00000  Uiso   1.00
C288   C     0.77634   0.76190   0.27193   0.00000  Uiso   1.00
C289   C     0.84125   0.81247   0.30613   0.00000  Uiso   1.00
C290   C     0.75841   0.60580   0.24716   0.00000  Uiso   1.00
C291   C     0.73850   0.60014   0.16076   0.00000  Uiso   1.00
C292   C     0.75769   0.56917   0.10120   0.00000  Uiso   1.00
C293   C     0.73418   0.56932   0.02600   0.00000  Uiso   1.00
C294   C     0.71514   0.59447   0.30378   0.00000  Uiso   1.00
C295   C     0.71470   0.55874   0.36448   0.00000  Uiso   1.00
C296   C     0.67154   0.55412   0.40969   0.00000  Uiso   1.00
C297   C     0.76960   0.66070   0.25802   0.00000  Uiso   1.00
C298   C     0.81494   0.68065   0.28026   0.00000  Uiso   1.00
C299   C     0.81762   0.73179   0.28697   0.00000  Uiso   1.00
H300   H     0.65046   0.68453   0.20785   0.00000  Uiso   1.00
H301   H     0.64186   0.65365   0.05904   0.00000  Uiso   1.00
H302   H     0.59888   0.64323   0.32228   0.00000  Uiso   1.00
H303   H     0.69910   0.76512   0.23807   0.00000  Uiso   1.00
H304   H     0.65048   0.60614   0.90068   0.00000  Uiso   1.00
H305   H     0.55987   0.58418   0.45576   0.00000  Uiso   1.00
H306   H     0.77121   0.84122   0.27820   0.00000  Uiso   1.00
H307   H     0.79049   0.58240   0.25885   0.00000  Uiso   1.00
H308   H     0.78957   0.54591   0.11284   0.00000  Uiso   1.00
H309   H     0.74660   0.53549   0.37608   0.00000  Uiso   1.00
H310   H     0.84682   0.65738   0.29187   0.00000  Uiso   1.00
H311   H     0.77037   0.51870   0.94435   0.00000  Uiso   1.00
H312   H     0.67976   0.49673   0.49944   0.00000  Uiso   1.00
H313   H     0.89110   0.75377   0.32187   0.00000  Uiso   1.00
O314   O     0.70728   0.54025   0.82555   0.00000  Uiso   1.00
O315   O     0.58841   0.51144   0.55381   0.00000  Uiso   1.00
O316   O     0.86568   0.84866   0.32084   0.00000  Uiso   1.00
N317   N     0.67883   0.59058   0.93099   0.00000  Uiso   1.00
N318   N     0.59411   0.57004   0.44995   0.00000  Uiso   1.00
N319   N     0.79169   0.81034   0.28397   0.00000  Uiso   1.00
N320   N     0.74334   0.54352   0.95449   0.00000  Uiso   1.00
N321   N     0.65862   0.52298   0.47345   0.00000  Uiso   1.00
N322   N     0.85620   0.76329   0.30746   0.00000  Uiso   1.00
C323   C     0.18254   0.16114   0.71953   0.00000  Uiso   1.00
C324   C     0.19729   0.13020   0.64575   0.00000  Uiso   1.00
C325   C     0.17375   0.13039   0.57063   0.00000  Uiso   1.00
C326   C     0.19289   0.09942   0.51097   0.00000  Uiso   1.00
C327   C     0.20951   0.05594   0.39414   0.00000  Uiso   1.00
C328   C     0.17394   0.12453   0.78877   0.00000  Uiso   1.00
C329   C     0.13076   0.11996   0.83391   0.00000  Uiso   1.00
C330   C     0.13026   0.08423   0.89465   0.00000  Uiso   1.00
C331   C     0.11063   0.03197   0.99991   0.00000  Uiso   1.00
C332   C     0.22839   0.19076   0.74301   0.00000  Uiso   1.00
C333   C     0.23100   0.24188   0.74969   0.00000  Uiso   1.00
C334   C     0.27634   0.26190   0.77193   0.00000  Uiso   1.00
C335   C     0.34125   0.31247   0.80613   0.00000  Uiso   1.00
C336   C     0.25841   0.10580   0.74716   0.00000  Uiso   1.00
C337   C     0.23850   0.10014   0.66076   0.00000  Uiso   1.00
C338   C     0.25769   0.06917   0.60120   0.00000  Uiso   1.00
C339   C     0.23418   0.06932   0.52600   0.00000  Uiso   1.00
C340   C     0.21514   0.09447   0.80378   0.00000  Uiso   1.00
C341   C     0.21470   0.05874   0.86448   0.00000  Uiso   1.00
C342   C     0.17154   0.05412   0.90969   0.00000  Uiso   1.00
C343   C     0.26960   0.16070   0.75802   0.00000  Uiso   1.00
C344   C     0.31494   0.18065   0.78026   0.00000  Uiso   1.00
C345   C     0.31762   0.23179   0.78697   0.00000  Uiso   1.00
H346   H     0.15046   0.18453   0.70785   0.00000  Uiso   1.00
H347   H     0.14186   0.15365   0.55904   0.00000  Uiso   1.00
H348   H     0.09888   0.14323   0.82228   0.00000  Uiso   1.00
H349   H     0.19910   0.26512   0.73807   0.00000  Uiso   1.00
H350   H     0.15048   0.10614   0.40068   0.00000  Uiso   1.00
H351   H     0.05987   0.08418   0.95576   0.00000  Uiso   1.00
H352   H     0.27121   0.34122   0.77820   0.00000  Uiso   1.00
H353   H     0.29049   0.08240   0.75885   0.00000  Uiso   1.00
H354   H     0.28957   0.04591   0.61284   0.00000  Uiso   1.00
H355   H     0.24660   0.03549   0.87608   0.00000  Uiso   1.00
H356   H     0.34682   0.15738   0.79187   0.00000  Uiso   1.00
H357   H     0.27037   0.01870   0.44435   0.00000  Uiso   1.00
H358   H     0.17976   0.99673   0.99944   0.00000  Uiso   1.00
H359   H     0.39110   0.25377   0.82187   0.00000  Uiso   1.00
O360   O     0.20728   0.04025   0.32555   0.00000  Uiso   1.00
O361   O     0.08841   0.01144   0.05381   0.00000  Uiso   1.00
O362   O     0.36568   0.34866   0.82084   0.00000  Uiso   1.00
N363   N     0.17883   0.09058   0.43099   0.00000  Uiso   1.00
N364   N     0.09411   0.07004   0.94995   0.00000  Uiso   1.00
N365   N     0.29169   0.31034   0.78397   0.00000  Uiso   1.00
N366   N     0.24334   0.04352   0.45449   0.00000  Uiso   1.00
N367   N     0.15862   0.02298   0.97345   0.00000  Uiso   1.00
N368   N     0.35620   0.26329   0.80746   0.00000  Uiso   1.00
C369   C     0.66114   0.31746   0.78047   0.00000  Uiso   1.00
C370   C     0.63020   0.30271   0.85425   0.00000  Uiso   1.00
C371   C     0.63039   0.32625   0.92937   0.00000  Uiso   1.00
C372   C     0.59942   0.30711   0.98903   0.00000  Uiso   1.00
C373   C     0.55594   0.29049   0.10586   0.00000  Uiso   1.00
C374   C     0.62453   0.32606   0.71123   0.00000  Uiso   1.00
C375   C     0.61996   0.36924   0.66609   0.00000  Uiso   1.00
C376   C     0.58423   0.36974   0.60535   0.00000  Uiso   1.00
C377   C     0.53197   0.38937   0.50009   0.00000  Uiso   1.00
C378   C     0.69076   0.27161   0.75699   0.00000  Uiso   1.00
C379   C     0.74188   0.26900   0.75031   0.00000  Uiso   1.00
C380   C     0.76190   0.22366   0.72807   0.00000  Uiso   1.00
C381   C     0.81247   0.15875   0.69387   0.00000  Uiso   1.00
C382   C     0.60580   0.24159   0.75284   0.00000  Uiso   1.00
C383   C     0.60014   0.26150   0.83924   0.00000  Uiso   1.00
C384   C     0.56917   0.24231   0.89880   0.00000  Uiso   1.00
C385   C     0.56932   0.26582   0.97400   0.00000  Uiso   1.00
C386   C     0.59447   0.28486   0.69622   0.00000  Uiso   1.00
C387   C     0.55874   0.28530   0.63552   0.00000  Uiso   1.00
C388   C     0.55412   0.32846   0.59031   0.00000  Uiso   1.00
C389   C     0.66070   0.23040   0.74198   0.00000  Uiso   1.00
C390   C     0.68065   0.18506   0.71974   0.00000  Uiso   1.00
C391   C     0.73179   0.18238   0.71303   0.00000  Uiso   1.00
H392   H     0.68453   0.34954   0.79215   0.00000  Uiso   1.00
H393   H     0.65365   0.35814   0.94096   0.00000  Uiso   1.00
H394   H     0.64323   0.40112   0.67772   0.00000  Uiso   1.00
H395   H     0.76512   0.30090   0.76193   0.00000  Uiso   1.00
H396   H     0.60614   0.34952   0.09932   0.00000  Uiso   1.00
H397   H     0.58418   0.44013   0.54424   0.00000  Uiso   1.00
H398   H     0.84122   0.22879   0.72180   0.00000  Uiso   1.00
H399   H     0.58240   0.20951   0.74115   0.00000  Uiso   1.00
H400   H     0.54591   0.21043   0.88716   0.00000  Uiso   1.00
H401   H     0.53549   0.25340   0.62392   0.00000  Uiso   1.00
H402   H     0.65738   0.15318   0.70813   0.00000  Uiso   1.00
H403   H     0.51870   0.22963   0.05565   0.00000  Uiso   1.00
H404   H     0.49673   0.32024   0.50056   0.00000  Uiso   1.00
H405   H     0.75377   0.10890   0.67813   0.00000  Uiso   1.00
O406   O     0.54025   0.29272   0.17445   0.00000  Uiso   1.00
O407   O     0.51144   0.41159   0.44619   0.00000  Uiso   1.00
O408   O     0.84866   0.13432   0.67916   0.00000  Uiso   1.00
N409   N     0.59058   0.32117   0.06901   0.00000  Uiso   1.00
N410   N     0.57004   0.40589   0.55005   0.00000  Uiso   1.00
N411   N     0.81034   0.20831   0.71603   0.00000  Uiso   1.00
N412   N     0.54352   0.25666   0.04551   0.00000  Uiso   1.00
N413   N     0.52298   0.34138   0.52655   0.00000  Uiso   1.00
N414   N     0.76329   0.14380   0.69254   0.00000  Uiso   1.00
C415   C     0.16114   0.81746   0.28047   0.00000  Uiso   1.00
C416   C     0.13020   0.80271   0.35425   0.00000  Uiso   1.00
C417   C     0.13039   0.82625   0.42937   0.00000  Uiso   1.00
C418   C     0.09942   0.80711   0.48903   0.00000  Uiso   1.00
C419   C     0.05594   0.79049   0.60586   0.00000  Uiso   1.00
C420   C     0.12453   0.82606   0.21123   0.00000  Uiso   1.00
C421   C     0.11996   0.86924   0.16609   0.00000  Uiso   1.00
C422   C     0.08423   0.86974   0.10535   0.00000  Uiso   1.00
C423   C     0.03197   0.88937   0.00009   0.00000  Uiso   1.00
C424   C     0.19076   0.77161   0.25699   0.00000  Uiso   1.00
C425   C     0.24188   0.76900   0.25031   0.00000  Uiso   1.00
C426   C     0.26190   0.72366   0.22807   0.00000  Uiso   1.00
C427   C     0.31247   0.65875   0.19387   0.00000  Uiso   1.00
C428   C     0.10580   0.74159   0.25284   0.00000  Uiso   1.00
C429   C     0.10014   0.76150   0.33924   0.00000  Uiso   1.00
C430   C     0.06917   0.74231   0.39880   0.00000  Uiso   1.00
C431   C     0.06932   0.76582   0.47400   0.00000  Uiso   1.00
C432   C     0.09447   0.78486   0.19622   0.00000  Uiso   1.00
C433   C     0.05874   0.78530   0.13552   0.00000  Uiso   1.00
C434   C     0.05412   0.82846   0.09031   0.00000  Uiso   1.00
C435   C     0.16070   0.73040   0.24198   0.00000  Uiso   1.00
C436   C     0.18065   0.68506   0.21974   0.00000  Uiso   1.00
C437   C     0.23179   0.68238   0.21303   0.00000  Uiso   1.00
H438   H     0.18453   0.84954   0.29215   0.00000  Uiso   1.00
H439   H     0.15365   0.85814   0.44096   0.00000  Uiso   1.00
H440   H     0.14323   0.90112   0.17772   0.00000  Uiso   1.00
H441   H     0.26512   0.80090   0.26193   0.00000  Uiso   1.00
H442   H     0.10614   0.84952   0.59932   0.00000  Uiso   1.00
H443   H     0.08418   0.94013   0.04424   0.00000  Uiso   1.00
H444   H     0.34122   0.72879   0.22180   0.00000  Uiso   1.00
H445   H     0.08240   0.70951   0.24115   0.00000  Uiso   1.00
H446   H     0.04591   0.71043   0.38716   0.00000  Uiso   1.00
H447   H     0.03549   0.75340   0.12392   0.00000  Uiso   1.00
H448   H     0.15738   0.65318   0.20813   0.00000  Uiso   1.00
H449   H     0.01870   0.72963   0.55565   0.00000  Uiso   1.00
H450   H     0.99673   0.82024   0.00056   0.00000  Uiso   1.00
H451   H     0.25377   0.60890   0.17813   0.00000  Uiso   1.00
O452   O     0.04025   0.79272   0.67445   0.00000  Uiso   1.00
O453   O     0.01144   0.91159   0.94619   0.00000  Uiso   1.00
O454   O     0.34866   0.63432   0.17916   0.00000  Uiso   1.00
N455   N     0.09058   0.82117   0.56901   0.00000  Uiso   1.00
N456   N     0.07004   0.90589   0.05005   0.00000  Uiso   1.00
N457   N     0.31034   0.70831   0.21603   0.00000  Uiso   1.00
N458   N     0.04352   0.75666   0.54551   0.00000  Uiso   1.00
N459   N     0.02298   0.84138   0.02655   0.00000  Uiso   1.00
N460   N     0.26329   0.64380   0.19254   0.00000  Uiso   1.00
C461   C     0.83886   0.18254   0.28047   0.00000  Uiso   1.00
C462   C     0.86980   0.19729   0.35425   0.00000  Uiso   1.00
C463   C     0.86961   0.17375   0.42937   0.00000  Uiso   1.00
C464   C     0.90058   0.19289   0.48903   0.00000  Uiso   1.00
C465   C     0.94406   0.20951   0.60586   0.00000  Uiso   1.00
C466   C     0.87547   0.17394   0.21123   0.00000  Uiso   1.00
C467   C     0.88004   0.13076   0.16609   0.00000  Uiso   1.00
C468   C     0.91577   0.13026   0.10535   0.00000  Uiso   1.00
C469   C     0.96803   0.11063   0.00009   0.00000  Uiso   1.00
C470   C     0.80924   0.22839   0.25699   0.00000  Uiso   1.00
C471   C     0.75812   0.23100   0.25031   0.00000  Uiso   1.00
C472   C     0.73810   0.27634   0.22807   0.00000  Uiso   1.00
C473   C     0.68753   0.34125   0.19387   0.00000  Uiso   1.00
C474   C     0.89420   0.25841   0.25284   0.00000  Uiso   1.00
C475   C     0.89986   0.23850   0.33924   0.00000  Uiso   1.00
C476   C     0.93083   0.25769   0.39880   0.00000  Uiso   1.00
C477   C     0.93068   0.23418   0.47400   0.00000  Uiso   1.00
C478   C     0.90553   0.21514   0.19622   0.00000  Uiso   1.00
C479   C     0.94126   0.21470   0.13552   0.00000  Uiso   1.00
C480   C     0.94588   0.17154   0.09031   0.00000  Uiso   1.00
C481   C     0.83930   0.26960   0.24198   0.00000  Uiso   1.00
C482   C     0.81935   0.31494   0.21974   0.00000  Uiso   1.00
C483   C     0.76821   0.31762   0.21303   0.00000  Uiso   1.00
H484   H     0.81547   0.15046   0.29215   0.00000  Uiso   1.00
H485   H     0.84635   0.14186   0.44096   0.00000  Uiso   1.00
H486   H     0.85677   0.09888   0.17772   0.00000  Uiso   1.00
H487   H     0.73488   0.19910   0.26193   0.00000  Uiso   1.00
H488   H     0.89386   0.15048   0.59932   0.00000  Uiso   1.00
H489   H     0.91582   0.05987   0.04424   0.00000  Uiso   1.00
H490   H     0.65878   0.27121   0.22180   0.00000  Uiso   1.00
H491   H     0.91760   0.29049   0.24115   0.00000  Uiso   1.00
H492   H     0.95409   0.28957   0.38716   0.00000  Uiso   1.00
H493   H     0.96451   0.24660   0.12392   0.00000  Uiso   1.00
H494   H     0.84262   0.34682   0.20813   0.00000  Uiso   1.00
H495   H     0.98130   0.27037   0.55565   0.00000  Uiso   1.00
H496   H     0.00327   0.17976   0.00056   0.00000  Uiso   1.00
H497   H     0.74623   0.39110   0.17813   0.00000  Uiso   1.00
O498   O     0.95975   0.20728   0.67445   0.00000  Uiso   1.00
O499   O     0.98856   0.08841   0.94619   0.00000  Uiso   1.00
O500   O     0.65134   0.36568   0.17916   0.00000  Uiso   1.00
N501   N     0.90942   0.17883   0.56901   0.00000  Uiso   1.00
N502   N     0.92996   0.09411   0.05005   0.00000  Uiso   1.00
N503   N     0.68966   0.29169   0.21603   0.00000  Uiso   1.00
N504   N     0.95648   0.24334   0.54551   0.00000  Uiso   1.00
N505   N     0.97702   0.15862   0.02655   0.00000  Uiso   1.00
N506   N     0.73671   0.35620   0.19254   0.00000  Uiso   1.00
C507   C     0.33886   0.68254   0.78047   0.00000  Uiso   1.00
C508   C     0.36980   0.69729   0.85425   0.00000  Uiso   1.00
C509   C     0.36961   0.67375   0.92937   0.00000  Uiso   1.00
C510   C     0.40058   0.69289   0.98903   0.00000  Uiso   1.00
C511   C     0.44406   0.70951   0.10586   0.00000  Uiso   1.00
C512   C     0.37547   0.67394   0.71123   0.00000  Uiso   1.00
C513   C     0.38004   0.63076   0.66609   0.00000  Uiso   1.00
C514   C     0.41577   0.63026   0.60535   0.00000  Uiso   1.00
C515   C     0.46803   0.61063   0.50009   0.00000  Uiso   1.00
C516   C     0.30924   0.72839   0.75699   0.00000  Uiso   1.00
C517   C     0.25812   0.73100   0.75031   0.00000  Uiso   1.00
C518   C     0.23810   0.77634   0.72807   0.00000  Uiso   1.00
C519   C     0.18753   0.84125   0.69387   0.00000  Uiso   1.00
C520   C     0.39420   0.75841   0.75284   0.00000  Uiso   1.00
C521   C     0.39986   0.73850   0.83924   0.00000  Uiso   1.00
C522   C     0.43083   0.75769   0.89880   0.00000  Uiso   1.00
C523   C     0.43068   0.73418   0.97400   0.00000  Uiso   1.00
C524   C     0.40553   0.71514   0.69622   0.00000  Uiso   1.00
C525   C     0.44126   0.71470   0.63552   0.00000  Uiso   1.00
C526   C     0.44588   0.67154   0.59031   0.00000  Uiso   1.00
C527   C     0.33930   0.76960   0.74198   0.00000  Uiso   1.00
C528   C     0.31935   0.81494   0.71974   0.00000  Uiso   1.00
C529   C     0.26821   0.81762   0.71303   0.00000  Uiso   1.00
H530   H     0.31547   0.65046   0.79215   0.00000  Uiso   1.00
H531   H     0.34635   0.64186   0.94096   0.00000  Uiso   1.00
H532   H     0.35677   0.59888   0.67772   0.00000  Uiso   1.00
H533   H     0.23488   0.69910   0.76193   0.00000  Uiso   1.00
H534   H     0.39386   0.65048   0.09932   0.00000  Uiso   1.00
H535   H     0.41582   0.55987   0.54424   0.00000  Uiso   1.00
H536   H     0.15878   0.77121   0.72180   0.00000  Uiso   1.00
H537   H     0.41760   0.79049   0.74115   0.00000  Uiso   1.00
H538   H     0.45409   0.78957   0.88716   0.00000  Uiso   1.00
H539   H     0.46451   0.74660   0.62392   0.00000  Uiso   1.00
H540   H     0.34262   0.84682   0.70813   0.00000  Uiso   1.00
H541   H     0.48130   0.77037   0.05565   0.00000  Uiso   1.00
H542   H     0.50327   0.67976   0.50056   0.00000  Uiso   1.00
H543   H     0.24623   0.89110   0.67813   0.00000  Uiso   1.00
O544   O     0.45975   0.70728   0.17445   0.00000  Uiso   1.00
O545   O     0.48856   0.58841   0.44619   0.00000  Uiso   1.00
O546   O     0.15134   0.86568   0.67916   0.00000  Uiso   1.00
N547   N     0.40942   0.67883   0.06901   0.00000  Uiso   1.00
N548   N     0.42996   0.59411   0.55005   0.00000  Uiso   1.00
N549   N     0.18966   0.79169   0.71603   0.00000  Uiso   1.00
N550   N     0.45648   0.74334   0.04551   0.00000  Uiso   1.00
N551   N     0.47702   0.65862   0.52655   0.00000  Uiso   1.00
N552   N     0.23671   0.85620   0.69254   0.00000  Uiso   1.00
C553   C     0.18254   0.66114   0.53047   0.00000  Uiso   1.00
C554   C     0.19729   0.63020   0.60425   0.00000  Uiso   1.00
C555   C     0.17375   0.63039   0.67937   0.00000  Uiso   1.00
C556   C     0.19289   0.59942   0.73903   0.00000  Uiso   1.00
C557   C     0.20951   0.55594   0.85586   0.00000  Uiso   1.00
C558   C     0.17394   0.62453   0.46123   0.00000  Uiso   1.00
C559   C     0.13076   0.61996   0.41609   0.00000  Uiso   1.00
C560   C     0.13026   0.58423   0.35535   0.00000  Uiso   1.00
C561   C     0.11063   0.53197   0.25009   0.00000  Uiso   1.00
C562   C     0.22839   0.69076   0.50699   0.00000  Uiso   1.00
C563   C     0.23100   0.74188   0.50031   0.00000  Uiso   1.00
C564   C     0.27634   0.76190   0.47807   0.00000  Uiso   1.00
C565   C     0.34125   0.81247   0.44387   0.00000  Uiso   1.00
C566   C     0.25841   0.60580   0.50284   0.00000  Uiso   1.00
C567   C     0.23850   0.60014   0.58924   0.00000  Uiso   1.00
C568   C     0.25769   0.56917   0.64880   0.00000  Uiso   1.00
C569   C     0.23418   0.56932   0.72400   0.00000  Uiso   1.00
C570   C     0.21514   0.59447   0.44622   0.00000  Uiso   1.00
C571   C     0.21470   0.55874   0.38552   0.00000  Uiso   1.00
C572   C     0.17154   0.55412   0.34031   0.00000  Uiso   1.00
C573   C     0.26960   0.66070   0.49198   0.00000  Uiso   1.00
C574   C     0.31494   0.68065   0.46974   0.00000  Uiso   1.00
C575   C     0.31762   0.73179   0.46303   0.00000  Uiso   1.00
H576   H     0.15046   0.68453   0.54215   0.00000  Uiso   1.00
H577   H     0.14186   0.65365   0.69096   0.00000  Uiso   1.00
H578   H     0.09888   0.64323   0.42772   0.00000  Uiso   1.00
H579   H     0.19910   0.76512   0.51193   0.00000  Uiso   1.00
H580   H     0.15048   0.60614   0.84932   0.00000  Uiso   1.00
H581   H     0.05987   0.58418   0.29424   0.00000  Uiso   1.00
H582   H     0.27121   0.84122   0.47180   0.00000  Uiso   1.00
H583   H     0.29049   0.58240   0.49115   0.00000  Uiso   1.00
H584   H     0.28957   0.54591   0.63716   0.00000  Uiso   1.00
H585   H     0.24660   0.53549   0.37392   0.00000  Uiso   1.00
H586   H     0.34682   0.65738   0.45813   0.00000  Uiso   1.00
H587   H     0.27037   0.51870   0.80565   0.00000  Uiso   1.00
H588   H     0.17976   0.49673   0.25056   0.00000  Uiso   1.00
H589   H     0.39110   0.75377   0.42813   0.00000  Uiso   1.00
O590   O     0.20728   0.54025   0.92445   0.00000  Uiso   1.00
O591   O     0.08841   0.51144   0.19619   0.00000  Uiso   1.00
O592   O     0.36568   0.84866   0.42916   0.00000  Uiso   1.00
N593   N     0.17883   0.59058   0.81901   0.00000  Uiso   1.00
N594   N     0.09411   0.57004   0.30005   0.00000  Uiso   1.00
N595   N     0.29169   0.81034   0.46603   0.00000  Uiso   1.00
N596   N     0.24334   0.54352   0.79551   0.00000  Uiso   1.00
N597   N     0.15862   0.52298   0.27655   0.00000  Uiso   1.00
N598   N     0.35620   0.76329   0.44254   0.00000  Uiso   1.00
C599   C     0.68254   0.16114   0.03047   0.00000  Uiso   1.00
C600   C     0.69729   0.13020   0.10425   0.00000  Uiso   1.00
C601   C     0.67375   0.13039   0.17937   0.00000  Uiso   1.00
C602   C     0.69289   0.09942   0.23903   0.00000  Uiso   1.00
C603   C     0.70951   0.05594   0.35586   0.00000  Uiso   1.00
C604   C     0.67394   0.12453   0.96123   0.00000  Uiso   1.00
C605   C     0.63076   0.11996   0.91609   0.00000  Uiso   1.00
C606   C     0.63026   0.08423   0.85535   0.00000  Uiso   1.00
C607   C     0.61063   0.03197   0.75009   0.00000  Uiso   1.00
C608   C     0.72839   0.19076   0.00699   0.00000  Uiso   1.00
C609   C     0.73100   0.24188   0.00031   0.00000  Uiso   1.00
C610   C     0.77634   0.26190   0.97807   0.00000  Uiso   1.00
C611   C     0.84125   0.31247   0.94387   0.00000  Uiso   1.00
C612   C     0.75841   0.10580   0.00284   0.00000  Uiso   1.00
C613   C     0.73850   0.10014   0.08924   0.00000  Uiso   1.00
C614   C     0.75769   0.06917   0.14880   0.00000  Uiso   1.00
C615   C     0.73418   0.06932   0.22400   0.00000  Uiso   1.00
C616   C     0.71514   0.09447   0.94622   0.00000  Uiso   1.00
C617   C     0.71470   0.05874   0.88552   0.00000  Uiso   1.00
C618   C     0.67154   0.05412   0.84031   0.00000  Uiso   1.00
C619   C     0.76960   0.16070   0.99198   0.00000  Uiso   1.00
C620   C     0.81494   0.18065   0.96974   0.00000  Uiso   1.00
C621   C     0.81762   0.23179   0.96303   0.00000  Uiso   1.00
H622   H     0.65046   0.18453   0.04215   0.00000  Uiso   1.00
H623   H     0.64186   0.15365   0.19096   0.00000  Uiso   1.00
H624   H     0.59888   0.14323   0.92772   0.00000  Uiso   1.00
H625   H     0.69910   0.26512   0.01193   0.00000  Uiso   1.00
H626   H     0.65048   0.10614   0.34932   0.00000  Uiso   1.00
H627   H     0.55987   0.08418   0.79424   0.00000  Uiso   1.00
H628   H     0.77121   0.34122   0.97180   0.00000  Uiso   1.00
H629   H     0.79049   0.08240   0.99115   0.00000  Uiso   1.00
H630   H     0.78957   0.04591   0.13716   0.00000  Uiso   1.00
H631   H     0.74660   0.03549   0.87392   0.00000  Uiso   1.00
H632   H     0.84682   0.15738   0.95813   0.00000  Uiso   1.00
H633   H     0.77037   0.01870   0.30565   0.00000  Uiso   1.00
H634   H     0.67976   0.99673   0.75056   0.00000  Uiso   1.00
H635   H     0.89110   0.25377   0.92813   0.00000  Uiso   1.00
O636   O     0.70728   0.04025   0.42445   0.00000  Uiso   1.00
O637   O     0.58841   0.01144   0.69619   0.00000  Uiso   1.00
O638   O     0.86568   0.34866   0.92916   0.00000  Uiso   1.00
N639   N     0.67883   0.09058   0.31901   0.00000  Uiso   1.00
N640   N     0.59411   0.07004   0.80005   0.00000  Uiso   1.00
N641   N     0.79169   0.31034   0.96603   0.00000  Uiso   1.00
N642   N     0.74334   0.04352   0.29551   0.00000  Uiso   1.00
N643   N     0.65862   0.02298   0.77655   0.00000  Uiso   1.00
N644   N     0.85620   0.26329   0.94254   0.00000  Uiso   1.00
C645   C     0.31746   0.83886   0.03047   0.00000  Uiso   1.00
C646   C     0.30271   0.86980   0.10425   0.00000  Uiso   1.00
C647   C     0.32625   0.86961   0.17937   0.00000  Uiso   1.00
C648   C     0.30711   0.90058   0.23903   0.00000  Uiso   1.00
C649   C     0.29049   0.94406   0.35586   0.00000  Uiso   1.00
C650   C     0.32606   0.87547   0.96123   0.00000  Uiso   1.00
C651   C     0.36924   0.88004   0.91609   0.00000  Uiso   1.00
C652   C     0.36974   0.91577   0.85535   0.00000  Uiso   1.00
C653   C     0.38937   0.96803   0.75009   0.00000  Uiso   1.00
C654   C     0.27161   0.80924   0.00699   0.00000  Uiso   1.00
C655   C     0.26900   0.75812   0.00031   0.00000  Uiso   1.00
C656   C     0.22366   0.73810   0.97807   0.00000  Uiso   1.00
C657   C     0.15875   0.68753   0.94387   0.00000  Uiso   1.00
C658   C     0.24159   0.89420   0.00284   0.00000  Uiso   1.00
C659   C     0.26150   0.89986   0.08924   0.00000  Uiso   1.00
C660   C     0.24231   0.93083   0.14880   0.00000  Uiso   1.00
C661   C     0.26582   0.93068   0.22400   0.00000  Uiso   1.00
C662   C     0.28486   0.90553   0.94622   0.00000  Uiso   1.00
C663   C     0.28530   0.94126   0.88552   0.00000  Uiso   1.00
C664   C     0.32846   0.94588   0.84031   0.00000  Uiso   1.00
C665   C     0.23040   0.83930   0.99198   0.00000  Uiso   1.00
C666   C     0.18506   0.81935   0.96974   0.00000  Uiso   1.00
C667   C     0.18238   0.76821   0.96303   0.00000  Uiso   1.00
H668   H     0.34954   0.81547   0.04215   0.00000  Uiso   1.00
H669   H     0.35814   0.84635   0.19096   0.00000  Uiso   1.00
H670   H     0.40112   0.85677   0.92772   0.00000  Uiso   1.00
H671   H     0.30090   0.73488   0.01193   0.00000  Uiso   1.00
H672   H     0.34952   0.89386   0.34932   0.00000  Uiso   1.00
H673   H     0.44013   0.91582   0.79424   0.00000  Uiso   1.00
H674   H     0.22879   0.65878   0.97180   0.00000  Uiso   1.00
H675   H     0.20951   0.91760   0.99115   0.00000  Uiso   1.00
H676   H     0.21043   0.95409   0.13716   0.00000  Uiso   1.00
H677   H     0.25340   0.96451   0.87392   0.00000  Uiso   1.00
H678   H     0.15318   0.84262   0.95813   0.00000  Uiso   1.00
H679   H     0.22963   0.98130   0.30565   0.00000  Uiso   1.00
H680   H     0.32024   0.00327   0.75056   0.00000  Uiso   1.00
H681   H     0.10890   0.74623   0.92813   0.00000  Uiso   1.00
O682   O     0.29272   0.95975   0.42445   0.00000  Uiso   1.00
O683   O     0.41159   0.98856   0.69619   0.00000  Uiso   1.00
O684   O     0.13432   0.65134   0.92916   0.00000  Uiso   1.00
N685   N     0.32117   0.90942   0.31901   0.00000  Uiso   1.00
N686   N     0.40589   0.92996   0.80005   0.00000  Uiso   1.00
N687   N     0.20831   0.68966   0.96603   0.00000  Uiso   1.00
N688   N     0.25666   0.95648   0.29551   0.00000  Uiso   1.00
N689   N     0.34138   0.97702   0.77655   0.00000  Uiso   1.00
N690   N     0.14380   0.73671   0.94254   0.00000  Uiso   1.00
C691   C     0.81746   0.33886   0.53047   0.00000  Uiso   1.00
C692   C     0.80271   0.36980   0.60425   0.00000  Uiso   1.00
C693   C     0.82625   0.36961   0.67937   0.00000  Uiso   1.00
C694   C     0.80711   0.40058   0.73903   0.00000  Uiso   1.00
C695   C     0.79049   0.44406   0.85586   0.00000  Uiso   1.00
C696   C     0.82606   0.37547   0.46123   0.00000  Uiso   1.00
C697   C     0.86924   0.38004   0.41609   0.00000  Uiso   1.00
C698   C     0.86974   0.41577   0.35535   0.00000  Uiso   1.00
C699   C     0.88937   0.46803   0.25009   0.00000  Uiso   1.00
C700   C     0.77161   0.30924   0.50699   0.00000  Uiso   1.00
C701   C     0.76900   0.25812   0.50031   0.00000  Uiso   1.00
C702   C     0.72366   0.23810   0.47807   0.00000  Uiso   1.00
C703   C     0.65875   0.18753   0.44387   0.00000  Uiso   1.00
C704   C     0.74159   0.39420   0.50284   0.00000  Uiso   1.00
C705   C     0.76150   0.39986   0.58924   0.00000  Uiso   1.00
C706   C     0.74231   0.43083   0.64880   0.00000  Uiso   1.00
C707   C     0.76582   0.43068   0.72400   0.00000  Uiso   1.00
C708   C     0.78486   0.40553   0.44622   0.00000  Uiso   1.00
C709   C     0.78530   0.44126   0.38552   0.00000  Uiso   1.00
C710   C     0.82846   0.44588   0.34031   0.00000  Uiso   1.00
C711   C     0.73040   0.33930   0.49198   0.00000  Uiso   1.00
C712   C     0.68506   0.31935   0.46974   0.00000  Uiso   1.00
C713   C     0.68238   0.26821   0.46303   0.00000  Uiso   1.00
H714   H     0.84954   0.31547   0.54215   0.00000  Uiso   1.00
H715   H     0.85814   0.34635   0.69096   0.00000  Uiso   1.00
H716   H     0.90112   0.35677   0.42772   0.00000  Uiso   1.00
H717   H     0.80090   0.23488   0.51193   0.00000  Uiso   1.00
H718   H     0.84952   0.39386   0.84932   0.00000  Uiso   1.00
H719   H     0.94013   0.41582   0.29424   0.00000  Uiso   1.00
H720   H     0.72879   0.15878   0.47180   0.00000  Uiso   1.00
H721   H     0.70951   0.41760   0.49115   0.00000  Uiso   1.00
H722   H     0.71043   0.45409   0.63716   0.00000  Uiso   1.00
H723   H     0.75340   0.46451   0.37392   0.00000  Uiso   1.00
H724   H     0.65318   0.34262   0.45813   0.00000  Uiso   1.00
H725   H     0.72963   0.48130   0.80565   0.00000  Uiso   1.00
H726   H     0.82024   0.50327   0.25056   0.00000  Uiso   1.00
H727   H     0.60890   0.24623   0.42813   0.00000  Uiso   1.00
O728   O     0.79272   0.45975   0.92445   0.00000  Uiso   1.00
O729   O     0.91159   0.48856   0.19619   0.00000  Uiso   1.00
O730   O     0.63432   0.15134   0.42916   0.00000  Uiso   1.00
N731   N     0.82117   0.40942   0.81901   0.00000  Uiso   1.00
N732   N     0.90589   0.42996   0.30005   0.00000  Uiso   1.00
N733   N     0.70831   0.18966   0.46603   0.00000  Uiso   1.00
N734   N     0.75666   0.45648   0.79551   0.00000  Uiso   1.00
N735   N     0.84138   0.47702   0.27655   0.00000  Uiso   1.00
N736   N     0.64380   0.23671   0.44254   0.00000  Uiso   1.00
