data_job_06886
_audit_creation_date              2018-12-19
_audit_creation_method            'Materials Studio'
_symmetry_space_group_name_H-M    'P1'
_symmetry_Int_Tables_number       1
_symmetry_cell_setting            triclinic
loop_
_symmetry_equiv_pos_as_xyz
  x,y,z
_cell_length_a                    24.5395
_cell_length_b                    32.3243
_cell_length_c                    35.5210
_cell_angle_alpha                 90.0000
_cell_angle_beta                  141.1806
_cell_angle_gamma                 90.0000
loop_
_atom_site_label
_atom_site_type_symbol
_atom_site_fract_x
_atom_site_fract_y
_atom_site_fract_z
_atom_site_U_iso_or_equiv
_atom_site_adp_type
_atom_site_occupancy
C1     C     0.45187   0.65280   0.01675   0.00000  Uiso   1.00
C2     C     0.46309   0.66005   0.06493   0.00000  Uiso   1.00
C3     C     0.54155   0.66036   0.12645   0.00000  Uiso   1.00
C4     C     0.53806   0.66754   0.16307   0.00000  Uiso   1.00
C5     C     0.56752   0.67777   0.24155   0.00000  Uiso   1.00
C6     C     0.38962   0.61632   0.97947   0.00000  Uiso   1.00
C7     C     0.40630   0.57986   0.96913   0.00000  Uiso   1.00
C8     C     0.84095   0.05023   0.93381   0.00000  Uiso   1.00
C9     C     0.75632   0.99258   0.87957   0.00000  Uiso   1.00
C10    C     0.40304   0.69040   0.97546   0.00000  Uiso   1.00
C11    C     0.43099   0.71621   0.96173   0.00000  Uiso   1.00
C12    C     0.37692   0.74895   0.92302   0.00000  Uiso   1.00
C13    C     0.31312   0.80631   0.86256   0.00000  Uiso   1.00
C14    C     0.30615   0.66502   0.97241   0.00000  Uiso   1.00
C15    C     0.38394   0.66669   0.04085   0.00000  Uiso   1.00
C16    C     0.88033   0.17388   0.07739   0.00000  Uiso   1.00
C17    C     0.95877   0.17419   0.13895   0.00000  Uiso   1.00
C18    C     0.81047   0.12296   0.95539   0.00000  Uiso   1.00
C19    C     0.74508   0.09338   0.92007   0.00000  Uiso   1.00
C20    C     0.76166   0.05688   0.90968   0.00000  Uiso   1.00
C21    C     0.32389   0.69704   0.95138   0.00000  Uiso   1.00
C22    C     0.26976   0.72973   0.91268   0.00000  Uiso   1.00
C23    C     0.29763   0.75560   0.89889   0.00000  Uiso   1.00
H24    H     0.51349   0.64763   0.03550   0.00000  Uiso   1.00
H25    H     0.60279   0.65522   0.14507   0.00000  Uiso   1.00
H26    H     0.46755   0.57473   0.98777   0.00000  Uiso   1.00
H27    H     0.49224   0.71107   0.98038   0.00000  Uiso   1.00
H28    H     0.66689   0.66654   0.25592   0.00000  Uiso   1.00
H29    H     0.88173   0.99684   0.92423   0.00000  Uiso   1.00
H30    H     0.43378   0.78433   0.90864   0.00000  Uiso   1.00
H31    H     0.74452   0.17019   0.95366   0.00000  Uiso   1.00
H32    H     0.81907   0.17901   0.05874   0.00000  Uiso   1.00
H33    H     0.68383   0.09853   0.90144   0.00000  Uiso   1.00
H34    H     0.20852   0.73486   0.89405   0.00000  Uiso   1.00
H35    H     0.93661   0.18585   0.18586   0.00000  Uiso   1.00
H36    H     0.65144   0.01615   0.85416   0.00000  Uiso   1.00
H37    H     0.20350   0.80364   0.83857   0.00000  Uiso   1.00
O38    O     0.60564   0.68158   0.29149   0.00000  Uiso   1.00
O39    O     0.73151   0.95895   0.85631   0.00000  Uiso   1.00
O40    O     0.29980   0.83612   0.83586   0.00000  Uiso   1.00
N41    N     0.60246   0.66988   0.22501   0.00000  Uiso   1.00
N42    N     0.83586   0.01122   0.91491   0.00000  Uiso   1.00
N43    N     0.38451   0.77999   0.90032   0.00000  Uiso   1.00
N44    N     0.97855   0.18027   0.18731   0.00000  Uiso   1.00
N45    N     0.71195   0.02161   0.87720   0.00000  Uiso   1.00
N46    N     0.26060   0.79038   0.86262   0.00000  Uiso   1.00
C47    C     0.43682   0.93616   0.35937   0.00000  Uiso   1.00
C48    C     0.89210   0.41629   0.36908   0.00000  Uiso   1.00
C49    C     0.84321   0.38021   0.34206   0.00000  Uiso   1.00
C50    C     0.80767   0.36712   0.35682   0.00000  Uiso   1.00
C51    C     0.23623   0.83290   0.36574   0.00000  Uiso   1.00
C52    C     0.40208   0.98028   0.33847   0.00000  Uiso   1.00
C53    C     0.36159   0.99800   0.28571   0.00000  Uiso   1.00
C54    C     0.83446   0.53878   0.27471   0.00000  Uiso   1.00
C55    C     0.77857   0.60391   0.23612   0.00000  Uiso   1.00
C56    C     0.53258   0.93994   0.42146   0.00000  Uiso   1.00
C57    C     0.60183   0.92376   0.43848   0.00000  Uiso   1.00
C58    C     0.68457   0.93058   0.49735   0.00000  Uiso   1.00
C59    C     0.83131   0.93308   0.58761   0.00000  Uiso   1.00
C60    C     0.46062   0.97706   0.43365   0.00000  Uiso   1.00
C61    C     0.90503   0.43851   0.40942   0.00000  Uiso   1.00
C62    C     0.36955   0.92546   0.42423   0.00000  Uiso   1.00
C63    C     0.32062   0.88938   0.39724   0.00000  Uiso   1.00
C64    C     0.91501   0.50249   0.37881   0.00000  Uiso   1.00
C65    C     0.88793   0.54325   0.36789   0.00000  Uiso   1.00
C66    C     0.84742   0.56103   0.31512   0.00000  Uiso   1.00
C67    C     0.54551   0.96215   0.46180   0.00000  Uiso   1.00
C68    C     0.62816   0.96901   0.52065   0.00000  Uiso   1.00
C69    C     0.69753   0.95284   0.53776   0.00000  Uiso   1.00
H70    H     0.42675   0.91887   0.32796   0.00000  Uiso   1.00
H71    H     0.83321   0.36303   0.31084   0.00000  Uiso   1.00
H72    H     0.35160   0.98080   0.25450   0.00000  Uiso   1.00
H73    H     0.59180   0.90657   0.40725   0.00000  Uiso   1.00
H74    H     0.73519   0.31094   0.30962   0.00000  Uiso   1.00
H75    H     0.77399   0.55927   0.19085   0.00000  Uiso   1.00
H76    H     0.78049   0.90273   0.51294   0.00000  Uiso   1.00
H77    H     0.97069   0.49435   0.46505   0.00000  Uiso   1.00
H78    H     0.37957   0.94266   0.45545   0.00000  Uiso   1.00
H79    H     0.89796   0.56043   0.39912   0.00000  Uiso   1.00
H80    H     0.63815   0.98620   0.55186   0.00000  Uiso   1.00
H81    H     0.27281   0.87557   0.42700   0.00000  Uiso   1.00
H82    H     0.81162   0.62390   0.30822   0.00000  Uiso   1.00
H83    H     0.81811   0.96736   0.63031   0.00000  Uiso   1.00
O84    O     0.19324   0.80789   0.35950   0.00000  Uiso   1.00
O85    O     0.74417   0.63369   0.20369   0.00000  Uiso   1.00
O86    O     0.90867   0.92832   0.62626   0.00000  Uiso   1.00
N87    N     0.75656   0.33324   0.33857   0.00000  Uiso   1.00
N88    N     0.79283   0.56541   0.22752   0.00000  Uiso   1.00
N89    N     0.76636   0.91907   0.52865   0.00000  Uiso   1.00
N90    N     0.27681   0.86802   0.40173   0.00000  Uiso   1.00
N91    N     0.81307   0.60019   0.29068   0.00000  Uiso   1.00
N92    N     0.78661   0.95385   0.59180   0.00000  Uiso   1.00
C93    C     0.50464   0.37692   0.08150   0.00000  Uiso   1.00
C94    C     0.97646   0.89052   0.10559   0.00000  Uiso   1.00
C95    C     0.96946   0.93110   0.11419   0.00000  Uiso   1.00
C96    C     0.94262   0.93708   0.13667   0.00000  Uiso   1.00
C97    C     0.90182   0.96328   0.17206   0.00000  Uiso   1.00
C98    C     0.58210   0.34815   0.12891   0.00000  Uiso   1.00
C99    C     0.66391   0.35312   0.15710   0.00000  Uiso   1.00
C100   C     0.72599   0.32344   0.19920   0.00000  Uiso   1.00
C101   C     0.84917   0.28385   0.27076   0.00000  Uiso   1.00
C102   C     0.43125   0.34991   0.02689   0.00000  Uiso   1.00
C103   C     0.38623   0.35634   0.96931   0.00000  Uiso   1.00
C104   C     0.32132   0.32812   0.92552   0.00000  Uiso   1.00
C105   C     0.21027   0.29125   0.83868   0.00000  Uiso   1.00
C106   C     0.46943   0.31536   0.10612   0.00000  Uiso   1.00
C107   C     0.95734   0.85708   0.11896   0.00000  Uiso   1.00
C108   C     0.93050   0.86300   0.14143   0.00000  Uiso   1.00
C109   C     0.92346   0.90359   0.15006   0.00000  Uiso   1.00
C110   C     0.56298   0.31472   0.14228   0.00000  Uiso   1.00
C111   C     0.62495   0.28502   0.18434   0.00000  Uiso   1.00
C112   C     0.70684   0.28994   0.21259   0.00000  Uiso   1.00
C113   C     0.41212   0.31647   0.04026   0.00000  Uiso   1.00
C114   C     0.34727   0.28824   0.99655   0.00000  Uiso   1.00
C115   C     0.30216   0.29463   0.93891   0.00000  Uiso   1.00
H116   H     0.51954   0.40295   0.07110   0.00000  Uiso   1.00
H117   H     0.98428   0.95697   0.10384   0.00000  Uiso   1.00
H118   H     0.67869   0.37900   0.14674   0.00000  Uiso   1.00
H119   H     0.40105   0.38221   0.95898   0.00000  Uiso   1.00
H120   H     0.93678   0.00212   0.14607   0.00000  Uiso   1.00
H121   H     0.84670   0.33770   0.23650   0.00000  Uiso   1.00
H122   H     0.26124   0.34448   0.84057   0.00000  Uiso   1.00
H123   H     0.45454   0.28933   0.11653   0.00000  Uiso   1.00
H124   H     0.91571   0.83712   0.15177   0.00000  Uiso   1.00
H125   H     0.61013   0.25915   0.19467   0.00000  Uiso   1.00
H126   H     0.33249   0.26237   0.00691   0.00000  Uiso   1.00
H127   H     0.88113   0.90485   0.18497   0.00000  Uiso   1.00
H128   H     0.79105   0.24043   0.27541   0.00000  Uiso   1.00
H129   H     0.20559   0.24721   0.87948   0.00000  Uiso   1.00
O130   O     0.88461   0.98697   0.18790   0.00000  Uiso   1.00
O131   O     0.92240   0.27126   0.30654   0.00000  Uiso   1.00
O132   O     0.15430   0.28016   0.78709   0.00000  Uiso   1.00
N133   N     0.92899   0.97267   0.15037   0.00000  Uiso   1.00
N134   N     0.81225   0.31895   0.23494   0.00000  Uiso   1.00
N135   N     0.26491   0.32529   0.86478   0.00000  Uiso   1.00
N136   N     0.89905   0.92033   0.17131   0.00000  Uiso   1.00
N137   N     0.78231   0.26661   0.25587   0.00000  Uiso   1.00
N138   N     0.23497   0.27295   0.88571   0.00000  Uiso   1.00
C139   C     0.95187   0.15280   0.01675   0.00000  Uiso   1.00
C140   C     0.96309   0.16005   0.06493   0.00000  Uiso   1.00
C141   C     0.04155   0.16036   0.12645   0.00000  Uiso   1.00
C142   C     0.03806   0.16754   0.16307   0.00000  Uiso   1.00
C143   C     0.06752   0.17777   0.24155   0.00000  Uiso   1.00
C144   C     0.88962   0.11632   0.97947   0.00000  Uiso   1.00
C145   C     0.90630   0.07986   0.96913   0.00000  Uiso   1.00
C146   C     0.34095   0.55023   0.93381   0.00000  Uiso   1.00
C147   C     0.25632   0.49258   0.87957   0.00000  Uiso   1.00
C148   C     0.90304   0.19040   0.97546   0.00000  Uiso   1.00
C149   C     0.93099   0.21621   0.96173   0.00000  Uiso   1.00
C150   C     0.87692   0.24895   0.92302   0.00000  Uiso   1.00
C151   C     0.81312   0.30631   0.86256   0.00000  Uiso   1.00
C152   C     0.80615   0.16502   0.97241   0.00000  Uiso   1.00
C153   C     0.88394   0.16669   0.04085   0.00000  Uiso   1.00
C154   C     0.38033   0.67388   0.07739   0.00000  Uiso   1.00
C155   C     0.45877   0.67419   0.13895   0.00000  Uiso   1.00
C156   C     0.31047   0.62296   0.95539   0.00000  Uiso   1.00
C157   C     0.24508   0.59338   0.92007   0.00000  Uiso   1.00
C158   C     0.26166   0.55688   0.90968   0.00000  Uiso   1.00
C159   C     0.82389   0.19704   0.95138   0.00000  Uiso   1.00
C160   C     0.76976   0.22973   0.91268   0.00000  Uiso   1.00
C161   C     0.79763   0.25560   0.89889   0.00000  Uiso   1.00
H162   H     0.01349   0.14763   0.03550   0.00000  Uiso   1.00
H163   H     0.10279   0.15522   0.14507   0.00000  Uiso   1.00
H164   H     0.96755   0.07473   0.98777   0.00000  Uiso   1.00
H165   H     0.99224   0.21107   0.98038   0.00000  Uiso   1.00
H166   H     0.16689   0.16654   0.25592   0.00000  Uiso   1.00
H167   H     0.38173   0.49684   0.92423   0.00000  Uiso   1.00
H168   H     0.93378   0.28433   0.90864   0.00000  Uiso   1.00
H169   H     0.24452   0.67019   0.95366   0.00000  Uiso   1.00
H170   H     0.31907   0.67901   0.05874   0.00000  Uiso   1.00
H171   H     0.18383   0.59853   0.90144   0.00000  Uiso   1.00
H172   H     0.70852   0.23486   0.89405   0.00000  Uiso   1.00
H173   H     0.43661   0.68585   0.18586   0.00000  Uiso   1.00
H174   H     0.15144   0.51615   0.85416   0.00000  Uiso   1.00
H175   H     0.70350   0.30364   0.83857   0.00000  Uiso   1.00
O176   O     0.10564   0.18158   0.29149   0.00000  Uiso   1.00
O177   O     0.23151   0.45895   0.85631   0.00000  Uiso   1.00
O178   O     0.79980   0.33612   0.83586   0.00000  Uiso   1.00
N179   N     0.10246   0.16988   0.22501   0.00000  Uiso   1.00
N180   N     0.33586   0.51122   0.91491   0.00000  Uiso   1.00
N181   N     0.88451   0.27999   0.90032   0.00000  Uiso   1.00
N182   N     0.47855   0.68027   0.18731   0.00000  Uiso   1.00
N183   N     0.21195   0.52161   0.87720   0.00000  Uiso   1.00
N184   N     0.76060   0.29038   0.86262   0.00000  Uiso   1.00
C185   C     0.93682   0.43616   0.35937   0.00000  Uiso   1.00
C186   C     0.39210   0.91629   0.36908   0.00000  Uiso   1.00
C187   C     0.34321   0.88021   0.34206   0.00000  Uiso   1.00
C188   C     0.30767   0.86712   0.35682   0.00000  Uiso   1.00
C189   C     0.73623   0.33290   0.36574   0.00000  Uiso   1.00
C190   C     0.90208   0.48028   0.33847   0.00000  Uiso   1.00
C191   C     0.86159   0.49800   0.28571   0.00000  Uiso   1.00
C192   C     0.33446   0.03878   0.27471   0.00000  Uiso   1.00
C193   C     0.27857   0.10391   0.23612   0.00000  Uiso   1.00
C194   C     0.03258   0.43994   0.42146   0.00000  Uiso   1.00
C195   C     0.10183   0.42376   0.43848   0.00000  Uiso   1.00
C196   C     0.18457   0.43058   0.49735   0.00000  Uiso   1.00
C197   C     0.33131   0.43308   0.58761   0.00000  Uiso   1.00
C198   C     0.96062   0.47706   0.43365   0.00000  Uiso   1.00
C199   C     0.40503   0.93851   0.40942   0.00000  Uiso   1.00
C200   C     0.86955   0.42546   0.42423   0.00000  Uiso   1.00
C201   C     0.82062   0.38938   0.39724   0.00000  Uiso   1.00
C202   C     0.41501   0.00249   0.37881   0.00000  Uiso   1.00
C203   C     0.38793   0.04325   0.36789   0.00000  Uiso   1.00
C204   C     0.34742   0.06103   0.31512   0.00000  Uiso   1.00
C205   C     0.04551   0.46215   0.46180   0.00000  Uiso   1.00
C206   C     0.12816   0.46901   0.52065   0.00000  Uiso   1.00
C207   C     0.19753   0.45284   0.53776   0.00000  Uiso   1.00
H208   H     0.92675   0.41887   0.32796   0.00000  Uiso   1.00
H209   H     0.33321   0.86303   0.31084   0.00000  Uiso   1.00
H210   H     0.85160   0.48080   0.25450   0.00000  Uiso   1.00
H211   H     0.09180   0.40657   0.40725   0.00000  Uiso   1.00
H212   H     0.23519   0.81094   0.30962   0.00000  Uiso   1.00
H213   H     0.27399   0.05927   0.19085   0.00000  Uiso   1.00
H214   H     0.28049   0.40273   0.51294   0.00000  Uiso   1.00
H215   H     0.47069   0.99435   0.46505   0.00000  Uiso   1.00
H216   H     0.87957   0.44266   0.45545   0.00000  Uiso   1.00
H217   H     0.39796   0.06043   0.39912   0.00000  Uiso   1.00
H218   H     0.13815   0.48620   0.55186   0.00000  Uiso   1.00
H219   H     0.77281   0.37557   0.42700   0.00000  Uiso   1.00
H220   H     0.31162   0.12390   0.30822   0.00000  Uiso   1.00
H221   H     0.31811   0.46736   0.63031   0.00000  Uiso   1.00
O222   O     0.69324   0.30789   0.35950   0.00000  Uiso   1.00
O223   O     0.24417   0.13369   0.20369   0.00000  Uiso   1.00
O224   O     0.40867   0.42832   0.62626   0.00000  Uiso   1.00
N225   N     0.25656   0.83324   0.33857   0.00000  Uiso   1.00
N226   N     0.29283   0.06541   0.22752   0.00000  Uiso   1.00
N227   N     0.26636   0.41907   0.52865   0.00000  Uiso   1.00
N228   N     0.77681   0.36802   0.40173   0.00000  Uiso   1.00
N229   N     0.31307   0.10019   0.29068   0.00000  Uiso   1.00
N230   N     0.28661   0.45385   0.59180   0.00000  Uiso   1.00
C231   C     0.00464   0.87692   0.08150   0.00000  Uiso   1.00
C232   C     0.47646   0.39052   0.10559   0.00000  Uiso   1.00
C233   C     0.46946   0.43110   0.11419   0.00000  Uiso   1.00
C234   C     0.44262   0.43708   0.13667   0.00000  Uiso   1.00
C235   C     0.40182   0.46328   0.17206   0.00000  Uiso   1.00
C236   C     0.08210   0.84815   0.12891   0.00000  Uiso   1.00
C237   C     0.16391   0.85312   0.15710   0.00000  Uiso   1.00
C238   C     0.22599   0.82344   0.19920   0.00000  Uiso   1.00
C239   C     0.34917   0.78385   0.27076   0.00000  Uiso   1.00
C240   C     0.93125   0.84991   0.02689   0.00000  Uiso   1.00
C241   C     0.88623   0.85634   0.96931   0.00000  Uiso   1.00
C242   C     0.82132   0.82812   0.92552   0.00000  Uiso   1.00
C243   C     0.71027   0.79125   0.83868   0.00000  Uiso   1.00
C244   C     0.96943   0.81536   0.10612   0.00000  Uiso   1.00
C245   C     0.45734   0.35708   0.11896   0.00000  Uiso   1.00
C246   C     0.43050   0.36300   0.14143   0.00000  Uiso   1.00
C247   C     0.42346   0.40359   0.15006   0.00000  Uiso   1.00
C248   C     0.06298   0.81472   0.14228   0.00000  Uiso   1.00
C249   C     0.12495   0.78502   0.18434   0.00000  Uiso   1.00
C250   C     0.20684   0.78994   0.21259   0.00000  Uiso   1.00
C251   C     0.91212   0.81647   0.04026   0.00000  Uiso   1.00
C252   C     0.84727   0.78824   0.99655   0.00000  Uiso   1.00
C253   C     0.80216   0.79463   0.93891   0.00000  Uiso   1.00
H254   H     0.01954   0.90295   0.07110   0.00000  Uiso   1.00
H255   H     0.48428   0.45697   0.10384   0.00000  Uiso   1.00
H256   H     0.17869   0.87900   0.14674   0.00000  Uiso   1.00
H257   H     0.90105   0.88221   0.95898   0.00000  Uiso   1.00
H258   H     0.43678   0.50212   0.14607   0.00000  Uiso   1.00
H259   H     0.34670   0.83770   0.23650   0.00000  Uiso   1.00
H260   H     0.76124   0.84448   0.84057   0.00000  Uiso   1.00
H261   H     0.95454   0.78933   0.11653   0.00000  Uiso   1.00
H262   H     0.41571   0.33712   0.15177   0.00000  Uiso   1.00
H263   H     0.11013   0.75915   0.19467   0.00000  Uiso   1.00
H264   H     0.83249   0.76237   0.00691   0.00000  Uiso   1.00
H265   H     0.38113   0.40485   0.18497   0.00000  Uiso   1.00
H266   H     0.29105   0.74043   0.27541   0.00000  Uiso   1.00
H267   H     0.70559   0.74721   0.87948   0.00000  Uiso   1.00
O268   O     0.38461   0.48697   0.18790   0.00000  Uiso   1.00
O269   O     0.42240   0.77126   0.30654   0.00000  Uiso   1.00
O270   O     0.65430   0.78016   0.78709   0.00000  Uiso   1.00
N271   N     0.42899   0.47267   0.15037   0.00000  Uiso   1.00
N272   N     0.31225   0.81895   0.23494   0.00000  Uiso   1.00
N273   N     0.76491   0.82529   0.86478   0.00000  Uiso   1.00
N274   N     0.39905   0.42033   0.17131   0.00000  Uiso   1.00
N275   N     0.28231   0.76661   0.25587   0.00000  Uiso   1.00
N276   N     0.73497   0.77295   0.88571   0.00000  Uiso   1.00
C277   C     0.54813   0.65280   0.48325   0.00000  Uiso   1.00
C278   C     0.53691   0.66005   0.43507   0.00000  Uiso   1.00
C279   C     0.45845   0.66036   0.37355   0.00000  Uiso   1.00
C280   C     0.46194   0.66754   0.33693   0.00000  Uiso   1.00
C281   C     0.43248   0.67777   0.25845   0.00000  Uiso   1.00
C282   C     0.61038   0.61632   0.52053   0.00000  Uiso   1.00
C283   C     0.59370   0.57986   0.53087   0.00000  Uiso   1.00
C284   C     0.15905   0.05023   0.56619   0.00000  Uiso   1.00
C285   C     0.24368   0.99258   0.62043   0.00000  Uiso   1.00
C286   C     0.59696   0.69040   0.52454   0.00000  Uiso   1.00
C287   C     0.56901   0.71621   0.53827   0.00000  Uiso   1.00
C288   C     0.62308   0.74895   0.57698   0.00000  Uiso   1.00
C289   C     0.68688   0.80631   0.63744   0.00000  Uiso   1.00
C290   C     0.69385   0.66502   0.52759   0.00000  Uiso   1.00
C291   C     0.61606   0.66669   0.45915   0.00000  Uiso   1.00
C292   C     0.11967   0.17388   0.42261   0.00000  Uiso   1.00
C293   C     0.04123   0.17419   0.36105   0.00000  Uiso   1.00
C294   C     0.18953   0.12296   0.54461   0.00000  Uiso   1.00
C295   C     0.25492   0.09338   0.57993   0.00000  Uiso   1.00
C296   C     0.23834   0.05688   0.59032   0.00000  Uiso   1.00
C297   C     0.67611   0.69704   0.54862   0.00000  Uiso   1.00
C298   C     0.73024   0.72973   0.58732   0.00000  Uiso   1.00
C299   C     0.70237   0.75560   0.60111   0.00000  Uiso   1.00
H300   H     0.48651   0.64763   0.46450   0.00000  Uiso   1.00
H301   H     0.39721   0.65522   0.35493   0.00000  Uiso   1.00
H302   H     0.53245   0.57473   0.51223   0.00000  Uiso   1.00
H303   H     0.50776   0.71107   0.51962   0.00000  Uiso   1.00
H304   H     0.33311   0.66654   0.24408   0.00000  Uiso   1.00
H305   H     0.11827   0.99684   0.57577   0.00000  Uiso   1.00
H306   H     0.56622   0.78433   0.59136   0.00000  Uiso   1.00
H307   H     0.25548   0.17019   0.54634   0.00000  Uiso   1.00
H308   H     0.18093   0.17901   0.44126   0.00000  Uiso   1.00
H309   H     0.31617   0.09853   0.59856   0.00000  Uiso   1.00
H310   H     0.79148   0.73486   0.60595   0.00000  Uiso   1.00
H311   H     0.06339   0.18585   0.31414   0.00000  Uiso   1.00
H312   H     0.34856   0.01615   0.64584   0.00000  Uiso   1.00
H313   H     0.79650   0.80364   0.66143   0.00000  Uiso   1.00
O314   O     0.39436   0.68158   0.20851   0.00000  Uiso   1.00
O315   O     0.26849   0.95895   0.64369   0.00000  Uiso   1.00
O316   O     0.70020   0.83612   0.66414   0.00000  Uiso   1.00
N317   N     0.39754   0.66988   0.27499   0.00000  Uiso   1.00
N318   N     0.16414   0.01122   0.58509   0.00000  Uiso   1.00
N319   N     0.61549   0.77999   0.59968   0.00000  Uiso   1.00
N320   N     0.02145   0.18027   0.31269   0.00000  Uiso   1.00
N321   N     0.28805   0.02161   0.62280   0.00000  Uiso   1.00
N322   N     0.73940   0.79038   0.63738   0.00000  Uiso   1.00
C323   C     0.56318   0.93616   0.14063   0.00000  Uiso   1.00
C324   C     0.10790   0.41629   0.13092   0.00000  Uiso   1.00
C325   C     0.15679   0.38021   0.15794   0.00000  Uiso   1.00
C326   C     0.19233   0.36712   0.14318   0.00000  Uiso   1.00
C327   C     0.76377   0.83290   0.13426   0.00000  Uiso   1.00
C328   C     0.59792   0.98028   0.16153   0.00000  Uiso   1.00
C329   C     0.63841   0.99800   0.21429   0.00000  Uiso   1.00
C330   C     0.16554   0.53878   0.22529   0.00000  Uiso   1.00
C331   C     0.22143   0.60391   0.26388   0.00000  Uiso   1.00
C332   C     0.46742   0.93994   0.07854   0.00000  Uiso   1.00
C333   C     0.39817   0.92376   0.06152   0.00000  Uiso   1.00
C334   C     0.31543   0.93058   0.00265   0.00000  Uiso   1.00
C335   C     0.16869   0.93308   0.91239   0.00000  Uiso   1.00
C336   C     0.53938   0.97706   0.06635   0.00000  Uiso   1.00
C337   C     0.09497   0.43851   0.09058   0.00000  Uiso   1.00
C338   C     0.63045   0.92546   0.07577   0.00000  Uiso   1.00
C339   C     0.67938   0.88938   0.10276   0.00000  Uiso   1.00
C340   C     0.08499   0.50249   0.12119   0.00000  Uiso   1.00
C341   C     0.11207   0.54325   0.13211   0.00000  Uiso   1.00
C342   C     0.15258   0.56103   0.18488   0.00000  Uiso   1.00
C343   C     0.45449   0.96215   0.03820   0.00000  Uiso   1.00
C344   C     0.37184   0.96901   0.97935   0.00000  Uiso   1.00
C345   C     0.30247   0.95284   0.96224   0.00000  Uiso   1.00
H346   H     0.57325   0.91887   0.17204   0.00000  Uiso   1.00
H347   H     0.16679   0.36303   0.18916   0.00000  Uiso   1.00
H348   H     0.64840   0.98080   0.24550   0.00000  Uiso   1.00
H349   H     0.40820   0.90657   0.09275   0.00000  Uiso   1.00
H350   H     0.26481   0.31094   0.19038   0.00000  Uiso   1.00
H351   H     0.22601   0.55927   0.30915   0.00000  Uiso   1.00
H352   H     0.21951   0.90273   0.98706   0.00000  Uiso   1.00
H353   H     0.02931   0.49435   0.03495   0.00000  Uiso   1.00
H354   H     0.62043   0.94266   0.04455   0.00000  Uiso   1.00
H355   H     0.10204   0.56043   0.10088   0.00000  Uiso   1.00
H356   H     0.36185   0.98620   0.94814   0.00000  Uiso   1.00
H357   H     0.72719   0.87557   0.07300   0.00000  Uiso   1.00
H358   H     0.18838   0.62390   0.19178   0.00000  Uiso   1.00
H359   H     0.18189   0.96736   0.86969   0.00000  Uiso   1.00
O360   O     0.80676   0.80789   0.14050   0.00000  Uiso   1.00
O361   O     0.25583   0.63369   0.29631   0.00000  Uiso   1.00
O362   O     0.09133   0.92832   0.87374   0.00000  Uiso   1.00
N363   N     0.24344   0.33324   0.16143   0.00000  Uiso   1.00
N364   N     0.20717   0.56541   0.27248   0.00000  Uiso   1.00
N365   N     0.23364   0.91907   0.97135   0.00000  Uiso   1.00
N366   N     0.72319   0.86802   0.09827   0.00000  Uiso   1.00
N367   N     0.18693   0.60019   0.20932   0.00000  Uiso   1.00
N368   N     0.21339   0.95385   0.90820   0.00000  Uiso   1.00
C369   C     0.49536   0.37692   0.41850   0.00000  Uiso   1.00
C370   C     0.02354   0.89052   0.39441   0.00000  Uiso   1.00
C371   C     0.03054   0.93110   0.38581   0.00000  Uiso   1.00
C372   C     0.05738   0.93708   0.36333   0.00000  Uiso   1.00
C373   C     0.09818   0.96328   0.32794   0.00000  Uiso   1.00
C374   C     0.41790   0.34815   0.37109   0.00000  Uiso   1.00
C375   C     0.33609   0.35312   0.34290   0.00000  Uiso   1.00
C376   C     0.27401   0.32344   0.30080   0.00000  Uiso   1.00
C377   C     0.15083   0.28385   0.22924   0.00000  Uiso   1.00
C378   C     0.56875   0.34991   0.47311   0.00000  Uiso   1.00
C379   C     0.61377   0.35634   0.53069   0.00000  Uiso   1.00
C380   C     0.67868   0.32812   0.57448   0.00000  Uiso   1.00
C381   C     0.78973   0.29125   0.66132   0.00000  Uiso   1.00
C382   C     0.53057   0.31536   0.39388   0.00000  Uiso   1.00
C383   C     0.04266   0.85708   0.38104   0.00000  Uiso   1.00
C384   C     0.06950   0.86300   0.35857   0.00000  Uiso   1.00
C385   C     0.07654   0.90359   0.34994   0.00000  Uiso   1.00
C386   C     0.43702   0.31472   0.35772   0.00000  Uiso   1.00
C387   C     0.37505   0.28502   0.31566   0.00000  Uiso   1.00
C388   C     0.29316   0.28994   0.28741   0.00000  Uiso   1.00
C389   C     0.58788   0.31647   0.45974   0.00000  Uiso   1.00
C390   C     0.65273   0.28824   0.50345   0.00000  Uiso   1.00
C391   C     0.69784   0.29463   0.56109   0.00000  Uiso   1.00
H392   H     0.48046   0.40295   0.42890   0.00000  Uiso   1.00
H393   H     0.01572   0.95697   0.39616   0.00000  Uiso   1.00
H394   H     0.32131   0.37900   0.35326   0.00000  Uiso   1.00
H395   H     0.59895   0.38221   0.54102   0.00000  Uiso   1.00
H396   H     0.06322   0.00212   0.35393   0.00000  Uiso   1.00
H397   H     0.15330   0.33770   0.26350   0.00000  Uiso   1.00
H398   H     0.73876   0.34448   0.65943   0.00000  Uiso   1.00
H399   H     0.54546   0.28933   0.38347   0.00000  Uiso   1.00
H400   H     0.08429   0.83712   0.34823   0.00000  Uiso   1.00
H401   H     0.38987   0.25915   0.30533   0.00000  Uiso   1.00
H402   H     0.66751   0.26237   0.49309   0.00000  Uiso   1.00
H403   H     0.11887   0.90485   0.31503   0.00000  Uiso   1.00
H404   H     0.20895   0.24043   0.22459   0.00000  Uiso   1.00
H405   H     0.79441   0.24721   0.62052   0.00000  Uiso   1.00
O406   O     0.11539   0.98697   0.31210   0.00000  Uiso   1.00
O407   O     0.07760   0.27126   0.19346   0.00000  Uiso   1.00
O408   O     0.84570   0.28016   0.71291   0.00000  Uiso   1.00
N409   N     0.07101   0.97267   0.34963   0.00000  Uiso   1.00
N410   N     0.18775   0.31895   0.26506   0.00000  Uiso   1.00
N411   N     0.73509   0.32529   0.63522   0.00000  Uiso   1.00
N412   N     0.10095   0.92033   0.32869   0.00000  Uiso   1.00
N413   N     0.21769   0.26661   0.24413   0.00000  Uiso   1.00
N414   N     0.76503   0.27295   0.61429   0.00000  Uiso   1.00
C415   C     0.04813   0.15280   0.48325   0.00000  Uiso   1.00
C416   C     0.03691   0.16005   0.43507   0.00000  Uiso   1.00
C417   C     0.95845   0.16036   0.37355   0.00000  Uiso   1.00
C418   C     0.96194   0.16754   0.33693   0.00000  Uiso   1.00
C419   C     0.93248   0.17777   0.25845   0.00000  Uiso   1.00
C420   C     0.11038   0.11632   0.52053   0.00000  Uiso   1.00
C421   C     0.09370   0.07986   0.53087   0.00000  Uiso   1.00
C422   C     0.65905   0.55023   0.56619   0.00000  Uiso   1.00
C423   C     0.74368   0.49258   0.62043   0.00000  Uiso   1.00
C424   C     0.09696   0.19040   0.52454   0.00000  Uiso   1.00
C425   C     0.06901   0.21621   0.53827   0.00000  Uiso   1.00
C426   C     0.12308   0.24895   0.57698   0.00000  Uiso   1.00
C427   C     0.18688   0.30631   0.63744   0.00000  Uiso   1.00
C428   C     0.19385   0.16502   0.52759   0.00000  Uiso   1.00
C429   C     0.11606   0.16669   0.45915   0.00000  Uiso   1.00
C430   C     0.61967   0.67388   0.42261   0.00000  Uiso   1.00
C431   C     0.54123   0.67419   0.36105   0.00000  Uiso   1.00
C432   C     0.68953   0.62296   0.54461   0.00000  Uiso   1.00
C433   C     0.75492   0.59338   0.57993   0.00000  Uiso   1.00
C434   C     0.73834   0.55688   0.59032   0.00000  Uiso   1.00
C435   C     0.17611   0.19704   0.54862   0.00000  Uiso   1.00
C436   C     0.23024   0.22973   0.58732   0.00000  Uiso   1.00
C437   C     0.20237   0.25560   0.60111   0.00000  Uiso   1.00
H438   H     0.98651   0.14763   0.46450   0.00000  Uiso   1.00
H439   H     0.89721   0.15522   0.35493   0.00000  Uiso   1.00
H440   H     0.03245   0.07473   0.51223   0.00000  Uiso   1.00
H441   H     0.00776   0.21107   0.51962   0.00000  Uiso   1.00
H442   H     0.83311   0.16654   0.24408   0.00000  Uiso   1.00
H443   H     0.61827   0.49684   0.57577   0.00000  Uiso   1.00
H444   H     0.06622   0.28433   0.59136   0.00000  Uiso   1.00
H445   H     0.75548   0.67019   0.54634   0.00000  Uiso   1.00
H446   H     0.68093   0.67901   0.44126   0.00000  Uiso   1.00
H447   H     0.81617   0.59853   0.59856   0.00000  Uiso   1.00
H448   H     0.29148   0.23486   0.60595   0.00000  Uiso   1.00
H449   H     0.56339   0.68585   0.31414   0.00000  Uiso   1.00
H450   H     0.84856   0.51615   0.64584   0.00000  Uiso   1.00
H451   H     0.29650   0.30364   0.66143   0.00000  Uiso   1.00
O452   O     0.89436   0.18158   0.20851   0.00000  Uiso   1.00
O453   O     0.76849   0.45895   0.64369   0.00000  Uiso   1.00
O454   O     0.20020   0.33612   0.66414   0.00000  Uiso   1.00
N455   N     0.89754   0.16988   0.27499   0.00000  Uiso   1.00
N456   N     0.66414   0.51122   0.58509   0.00000  Uiso   1.00
N457   N     0.11549   0.27999   0.59968   0.00000  Uiso   1.00
N458   N     0.52145   0.68027   0.31269   0.00000  Uiso   1.00
N459   N     0.78805   0.52161   0.62280   0.00000  Uiso   1.00
N460   N     0.23940   0.29038   0.63738   0.00000  Uiso   1.00
C461   C     0.06318   0.43616   0.14063   0.00000  Uiso   1.00
C462   C     0.60790   0.91629   0.13092   0.00000  Uiso   1.00
C463   C     0.65679   0.88021   0.15794   0.00000  Uiso   1.00
C464   C     0.69233   0.86712   0.14318   0.00000  Uiso   1.00
C465   C     0.26377   0.33290   0.13426   0.00000  Uiso   1.00
C466   C     0.09792   0.48028   0.16153   0.00000  Uiso   1.00
C467   C     0.13841   0.49800   0.21429   0.00000  Uiso   1.00
C468   C     0.66554   0.03878   0.22529   0.00000  Uiso   1.00
C469   C     0.72143   0.10391   0.26388   0.00000  Uiso   1.00
C470   C     0.96742   0.43994   0.07854   0.00000  Uiso   1.00
C471   C     0.89817   0.42376   0.06152   0.00000  Uiso   1.00
C472   C     0.81543   0.43058   0.00265   0.00000  Uiso   1.00
C473   C     0.66869   0.43308   0.91239   0.00000  Uiso   1.00
C474   C     0.03938   0.47706   0.06635   0.00000  Uiso   1.00
C475   C     0.59497   0.93851   0.09058   0.00000  Uiso   1.00
C476   C     0.13045   0.42546   0.07577   0.00000  Uiso   1.00
C477   C     0.17938   0.38938   0.10276   0.00000  Uiso   1.00
C478   C     0.58499   0.00249   0.12119   0.00000  Uiso   1.00
C479   C     0.61207   0.04325   0.13211   0.00000  Uiso   1.00
C480   C     0.65258   0.06103   0.18488   0.00000  Uiso   1.00
C481   C     0.95449   0.46215   0.03820   0.00000  Uiso   1.00
C482   C     0.87184   0.46901   0.97935   0.00000  Uiso   1.00
C483   C     0.80247   0.45284   0.96224   0.00000  Uiso   1.00
H484   H     0.07325   0.41887   0.17204   0.00000  Uiso   1.00
H485   H     0.66679   0.86303   0.18916   0.00000  Uiso   1.00
H486   H     0.14840   0.48080   0.24550   0.00000  Uiso   1.00
H487   H     0.90820   0.40657   0.09275   0.00000  Uiso   1.00
H488   H     0.76481   0.81094   0.19038   0.00000  Uiso   1.00
H489   H     0.72601   0.05927   0.30915   0.00000  Uiso   1.00
H490   H     0.71951   0.40273   0.98706   0.00000  Uiso   1.00
H491   H     0.52931   0.99435   0.03495   0.00000  Uiso   1.00
H492   H     0.12043   0.44266   0.04455   0.00000  Uiso   1.00
H493   H     0.60204   0.06043   0.10088   0.00000  Uiso   1.00
H494   H     0.86185   0.48620   0.94814   0.00000  Uiso   1.00
H495   H     0.22719   0.37557   0.07300   0.00000  Uiso   1.00
H496   H     0.68838   0.12390   0.19178   0.00000  Uiso   1.00
H497   H     0.68189   0.46736   0.86969   0.00000  Uiso   1.00
O498   O     0.30676   0.30789   0.14050   0.00000  Uiso   1.00
O499   O     0.75583   0.13369   0.29631   0.00000  Uiso   1.00
O500   O     0.59133   0.42832   0.87374   0.00000  Uiso   1.00
N501   N     0.74344   0.83324   0.16143   0.00000  Uiso   1.00
N502   N     0.70717   0.06541   0.27248   0.00000  Uiso   1.00
N503   N     0.73364   0.41907   0.97135   0.00000  Uiso   1.00
N504   N     0.22319   0.36802   0.09827   0.00000  Uiso   1.00
N505   N     0.68693   0.10019   0.20932   0.00000  Uiso   1.00
N506   N     0.71339   0.45385   0.90820   0.00000  Uiso   1.00
C507   C     0.99536   0.87692   0.41850   0.00000  Uiso   1.00
C508   C     0.52354   0.39052   0.39441   0.00000  Uiso   1.00
C509   C     0.53054   0.43110   0.38581   0.00000  Uiso   1.00
C510   C     0.55738   0.43708   0.36333   0.00000  Uiso   1.00
C511   C     0.59818   0.46328   0.32794   0.00000  Uiso   1.00
C512   C     0.91790   0.84815   0.37109   0.00000  Uiso   1.00
C513   C     0.83609   0.85312   0.34290   0.00000  Uiso   1.00
C514   C     0.77401   0.82344   0.30080   0.00000  Uiso   1.00
C515   C     0.65083   0.78385   0.22924   0.00000  Uiso   1.00
C516   C     0.06875   0.84991   0.47311   0.00000  Uiso   1.00
C517   C     0.11377   0.85634   0.53069   0.00000  Uiso   1.00
C518   C     0.17868   0.82812   0.57448   0.00000  Uiso   1.00
C519   C     0.28973   0.79125   0.66132   0.00000  Uiso   1.00
C520   C     0.03057   0.81536   0.39388   0.00000  Uiso   1.00
C521   C     0.54266   0.35708   0.38104   0.00000  Uiso   1.00
C522   C     0.56950   0.36300   0.35857   0.00000  Uiso   1.00
C523   C     0.57654   0.40359   0.34994   0.00000  Uiso   1.00
C524   C     0.93702   0.81472   0.35772   0.00000  Uiso   1.00
C525   C     0.87505   0.78502   0.31566   0.00000  Uiso   1.00
C526   C     0.79316   0.78994   0.28741   0.00000  Uiso   1.00
C527   C     0.08788   0.81647   0.45974   0.00000  Uiso   1.00
C528   C     0.15273   0.78824   0.50345   0.00000  Uiso   1.00
C529   C     0.19784   0.79463   0.56109   0.00000  Uiso   1.00
H530   H     0.98046   0.90295   0.42890   0.00000  Uiso   1.00
H531   H     0.51572   0.45697   0.39616   0.00000  Uiso   1.00
H532   H     0.82131   0.87900   0.35326   0.00000  Uiso   1.00
H533   H     0.09895   0.88221   0.54102   0.00000  Uiso   1.00
H534   H     0.56322   0.50212   0.35393   0.00000  Uiso   1.00
H535   H     0.65330   0.83770   0.26350   0.00000  Uiso   1.00
H536   H     0.23876   0.84448   0.65943   0.00000  Uiso   1.00
H537   H     0.04546   0.78933   0.38347   0.00000  Uiso   1.00
H538   H     0.58429   0.33712   0.34823   0.00000  Uiso   1.00
H539   H     0.88987   0.75915   0.30533   0.00000  Uiso   1.00
H540   H     0.16751   0.76237   0.49309   0.00000  Uiso   1.00
H541   H     0.61887   0.40485   0.31503   0.00000  Uiso   1.00
H542   H     0.70895   0.74043   0.22459   0.00000  Uiso   1.00
H543   H     0.29441   0.74721   0.62052   0.00000  Uiso   1.00
O544   O     0.61539   0.48697   0.31210   0.00000  Uiso   1.00
O545   O     0.57760   0.77126   0.19346   0.00000  Uiso   1.00
O546   O     0.34570   0.78016   0.71291   0.00000  Uiso   1.00
N547   N     0.57101   0.47267   0.34963   0.00000  Uiso   1.00
N548   N     0.68775   0.81895   0.26506   0.00000  Uiso   1.00
N549   N     0.23509   0.82529   0.63522   0.00000  Uiso   1.00
N550   N     0.60095   0.42033   0.32869   0.00000  Uiso   1.00
N551   N     0.71769   0.76661   0.24413   0.00000  Uiso   1.00
N552   N     0.26503   0.77295   0.61429   0.00000  Uiso   1.00
C553   C     0.54813   0.34720   0.98325   0.00000  Uiso   1.00
C554   C     0.53691   0.33995   0.93507   0.00000  Uiso   1.00
C555   C     0.45845   0.33964   0.87355   0.00000  Uiso   1.00
C556   C     0.46194   0.33246   0.83693   0.00000  Uiso   1.00
C557   C     0.43248   0.32223   0.75845   0.00000  Uiso   1.00
C558   C     0.61038   0.38368   0.02053   0.00000  Uiso   1.00
C559   C     0.59370   0.42014   0.03087   0.00000  Uiso   1.00
C560   C     0.15905   0.94977   0.06619   0.00000  Uiso   1.00
C561   C     0.24368   0.00742   0.12043   0.00000  Uiso   1.00
C562   C     0.59696   0.30960   0.02454   0.00000  Uiso   1.00
C563   C     0.56901   0.28379   0.03827   0.00000  Uiso   1.00
C564   C     0.62308   0.25105   0.07698   0.00000  Uiso   1.00
C565   C     0.68688   0.19369   0.13744   0.00000  Uiso   1.00
C566   C     0.69385   0.33498   0.02759   0.00000  Uiso   1.00
C567   C     0.61606   0.33331   0.95915   0.00000  Uiso   1.00
C568   C     0.11967   0.82612   0.92261   0.00000  Uiso   1.00
C569   C     0.04123   0.82581   0.86105   0.00000  Uiso   1.00
C570   C     0.18953   0.87704   0.04461   0.00000  Uiso   1.00
C571   C     0.25492   0.90662   0.07993   0.00000  Uiso   1.00
C572   C     0.23834   0.94312   0.09032   0.00000  Uiso   1.00
C573   C     0.67611   0.30296   0.04862   0.00000  Uiso   1.00
C574   C     0.73024   0.27027   0.08732   0.00000  Uiso   1.00
C575   C     0.70237   0.24440   0.10111   0.00000  Uiso   1.00
H576   H     0.48651   0.35237   0.96450   0.00000  Uiso   1.00
H577   H     0.39721   0.34478   0.85493   0.00000  Uiso   1.00
H578   H     0.53245   0.42527   0.01223   0.00000  Uiso   1.00
H579   H     0.50776   0.28893   0.01962   0.00000  Uiso   1.00
H580   H     0.33311   0.33346   0.74408   0.00000  Uiso   1.00
H581   H     0.11827   0.00316   0.07577   0.00000  Uiso   1.00
H582   H     0.56622   0.21567   0.09136   0.00000  Uiso   1.00
H583   H     0.25548   0.82981   0.04634   0.00000  Uiso   1.00
H584   H     0.18093   0.82099   0.94126   0.00000  Uiso   1.00
H585   H     0.31617   0.90147   0.09856   0.00000  Uiso   1.00
H586   H     0.79148   0.26514   0.10595   0.00000  Uiso   1.00
H587   H     0.06339   0.81415   0.81414   0.00000  Uiso   1.00
H588   H     0.34856   0.98385   0.14584   0.00000  Uiso   1.00
H589   H     0.79650   0.19636   0.16143   0.00000  Uiso   1.00
O590   O     0.39436   0.31842   0.70851   0.00000  Uiso   1.00
O591   O     0.26849   0.04105   0.14369   0.00000  Uiso   1.00
O592   O     0.70020   0.16388   0.16414   0.00000  Uiso   1.00
N593   N     0.39754   0.33012   0.77499   0.00000  Uiso   1.00
N594   N     0.16414   0.98878   0.08509   0.00000  Uiso   1.00
N595   N     0.61549   0.22001   0.09968   0.00000  Uiso   1.00
N596   N     0.02145   0.81973   0.81269   0.00000  Uiso   1.00
N597   N     0.28805   0.97839   0.12280   0.00000  Uiso   1.00
N598   N     0.73940   0.20962   0.13738   0.00000  Uiso   1.00
C599   C     0.56318   0.06384   0.64063   0.00000  Uiso   1.00
C600   C     0.10790   0.58371   0.63092   0.00000  Uiso   1.00
C601   C     0.15679   0.61979   0.65794   0.00000  Uiso   1.00
C602   C     0.19233   0.63288   0.64318   0.00000  Uiso   1.00
C603   C     0.76377   0.16710   0.63426   0.00000  Uiso   1.00
C604   C     0.59792   0.01972   0.66153   0.00000  Uiso   1.00
C605   C     0.63841   0.00200   0.71429   0.00000  Uiso   1.00
C606   C     0.16554   0.46122   0.72529   0.00000  Uiso   1.00
C607   C     0.22143   0.39609   0.76388   0.00000  Uiso   1.00
C608   C     0.46742   0.06006   0.57854   0.00000  Uiso   1.00
C609   C     0.39817   0.07624   0.56152   0.00000  Uiso   1.00
C610   C     0.31543   0.06942   0.50265   0.00000  Uiso   1.00
C611   C     0.16869   0.06692   0.41239   0.00000  Uiso   1.00
C612   C     0.53938   0.02294   0.56635   0.00000  Uiso   1.00
C613   C     0.09497   0.56149   0.59058   0.00000  Uiso   1.00
C614   C     0.63045   0.07454   0.57577   0.00000  Uiso   1.00
C615   C     0.67938   0.11062   0.60276   0.00000  Uiso   1.00
C616   C     0.08499   0.49751   0.62119   0.00000  Uiso   1.00
C617   C     0.11207   0.45675   0.63211   0.00000  Uiso   1.00
C618   C     0.15258   0.43897   0.68488   0.00000  Uiso   1.00
C619   C     0.45449   0.03785   0.53820   0.00000  Uiso   1.00
C620   C     0.37184   0.03099   0.47935   0.00000  Uiso   1.00
C621   C     0.30247   0.04716   0.46224   0.00000  Uiso   1.00
H622   H     0.57325   0.08113   0.67204   0.00000  Uiso   1.00
H623   H     0.16679   0.63697   0.68916   0.00000  Uiso   1.00
H624   H     0.64840   0.01920   0.74550   0.00000  Uiso   1.00
H625   H     0.40820   0.09343   0.59275   0.00000  Uiso   1.00
H626   H     0.26481   0.68906   0.69038   0.00000  Uiso   1.00
H627   H     0.22601   0.44073   0.80915   0.00000  Uiso   1.00
H628   H     0.21951   0.09727   0.48706   0.00000  Uiso   1.00
H629   H     0.02931   0.50565   0.53495   0.00000  Uiso   1.00
H630   H     0.62043   0.05734   0.54455   0.00000  Uiso   1.00
H631   H     0.10204   0.43957   0.60088   0.00000  Uiso   1.00
H632   H     0.36185   0.01380   0.44814   0.00000  Uiso   1.00
H633   H     0.72719   0.12443   0.57300   0.00000  Uiso   1.00
H634   H     0.18838   0.37610   0.69178   0.00000  Uiso   1.00
H635   H     0.18189   0.03264   0.36969   0.00000  Uiso   1.00
O636   O     0.80676   0.19211   0.64050   0.00000  Uiso   1.00
O637   O     0.25583   0.36631   0.79631   0.00000  Uiso   1.00
O638   O     0.09133   0.07168   0.37374   0.00000  Uiso   1.00
N639   N     0.24344   0.66676   0.66143   0.00000  Uiso   1.00
N640   N     0.20717   0.43459   0.77248   0.00000  Uiso   1.00
N641   N     0.23364   0.08093   0.47135   0.00000  Uiso   1.00
N642   N     0.72319   0.13198   0.59827   0.00000  Uiso   1.00
N643   N     0.18693   0.39981   0.70932   0.00000  Uiso   1.00
N644   N     0.21339   0.04615   0.40820   0.00000  Uiso   1.00
C645   C     0.49536   0.62308   0.91850   0.00000  Uiso   1.00
C646   C     0.02354   0.10948   0.89441   0.00000  Uiso   1.00
C647   C     0.03054   0.06890   0.88581   0.00000  Uiso   1.00
C648   C     0.05738   0.06292   0.86333   0.00000  Uiso   1.00
C649   C     0.09818   0.03672   0.82794   0.00000  Uiso   1.00
C650   C     0.41790   0.65185   0.87109   0.00000  Uiso   1.00
C651   C     0.33609   0.64688   0.84290   0.00000  Uiso   1.00
C652   C     0.27401   0.67656   0.80080   0.00000  Uiso   1.00
C653   C     0.15083   0.71615   0.72924   0.00000  Uiso   1.00
C654   C     0.56875   0.65009   0.97311   0.00000  Uiso   1.00
C655   C     0.61377   0.64366   0.03069   0.00000  Uiso   1.00
C656   C     0.67868   0.67188   0.07448   0.00000  Uiso   1.00
C657   C     0.78973   0.70875   0.16132   0.00000  Uiso   1.00
C658   C     0.53057   0.68464   0.89388   0.00000  Uiso   1.00
C659   C     0.04266   0.14292   0.88104   0.00000  Uiso   1.00
C660   C     0.06950   0.13700   0.85857   0.00000  Uiso   1.00
C661   C     0.07654   0.09641   0.84994   0.00000  Uiso   1.00
C662   C     0.43702   0.68528   0.85772   0.00000  Uiso   1.00
C663   C     0.37505   0.71498   0.81566   0.00000  Uiso   1.00
C664   C     0.29316   0.71006   0.78741   0.00000  Uiso   1.00
C665   C     0.58788   0.68353   0.95974   0.00000  Uiso   1.00
C666   C     0.65273   0.71176   0.00345   0.00000  Uiso   1.00
C667   C     0.69784   0.70537   0.06109   0.00000  Uiso   1.00
H668   H     0.48046   0.59705   0.92890   0.00000  Uiso   1.00
H669   H     0.01572   0.04303   0.89616   0.00000  Uiso   1.00
H670   H     0.32131   0.62100   0.85326   0.00000  Uiso   1.00
H671   H     0.59895   0.61779   0.04102   0.00000  Uiso   1.00
H672   H     0.06322   0.99788   0.85393   0.00000  Uiso   1.00
H673   H     0.15330   0.66230   0.76350   0.00000  Uiso   1.00
H674   H     0.73876   0.65552   0.15943   0.00000  Uiso   1.00
H675   H     0.54546   0.71067   0.88347   0.00000  Uiso   1.00
H676   H     0.08429   0.16288   0.84823   0.00000  Uiso   1.00
H677   H     0.38987   0.74085   0.80533   0.00000  Uiso   1.00
H678   H     0.66751   0.73763   0.99309   0.00000  Uiso   1.00
H679   H     0.11887   0.09515   0.81503   0.00000  Uiso   1.00
H680   H     0.20895   0.75957   0.72459   0.00000  Uiso   1.00
H681   H     0.79441   0.75279   0.12052   0.00000  Uiso   1.00
O682   O     0.11539   0.01303   0.81210   0.00000  Uiso   1.00
O683   O     0.07760   0.72874   0.69346   0.00000  Uiso   1.00
O684   O     0.84570   0.71984   0.21291   0.00000  Uiso   1.00
N685   N     0.07101   0.02733   0.84963   0.00000  Uiso   1.00
N686   N     0.18775   0.68105   0.76506   0.00000  Uiso   1.00
N687   N     0.73509   0.67471   0.13522   0.00000  Uiso   1.00
N688   N     0.10095   0.07967   0.82869   0.00000  Uiso   1.00
N689   N     0.21769   0.73339   0.74413   0.00000  Uiso   1.00
N690   N     0.76503   0.72705   0.11429   0.00000  Uiso   1.00
C691   C     0.04813   0.84720   0.98325   0.00000  Uiso   1.00
C692   C     0.03691   0.83995   0.93507   0.00000  Uiso   1.00
C693   C     0.95845   0.83964   0.87355   0.00000  Uiso   1.00
C694   C     0.96194   0.83246   0.83693   0.00000  Uiso   1.00
C695   C     0.93248   0.82223   0.75845   0.00000  Uiso   1.00
C696   C     0.11038   0.88368   0.02053   0.00000  Uiso   1.00
C697   C     0.09370   0.92014   0.03087   0.00000  Uiso   1.00
C698   C     0.65905   0.44977   0.06619   0.00000  Uiso   1.00
C699   C     0.74368   0.50742   0.12043   0.00000  Uiso   1.00
C700   C     0.09696   0.80960   0.02454   0.00000  Uiso   1.00
C701   C     0.06901   0.78379   0.03827   0.00000  Uiso   1.00
C702   C     0.12308   0.75105   0.07698   0.00000  Uiso   1.00
C703   C     0.18688   0.69369   0.13744   0.00000  Uiso   1.00
C704   C     0.19385   0.83498   0.02759   0.00000  Uiso   1.00
C705   C     0.11606   0.83331   0.95915   0.00000  Uiso   1.00
C706   C     0.61967   0.32612   0.92261   0.00000  Uiso   1.00
C707   C     0.54123   0.32581   0.86105   0.00000  Uiso   1.00
C708   C     0.68953   0.37704   0.04461   0.00000  Uiso   1.00
C709   C     0.75492   0.40662   0.07993   0.00000  Uiso   1.00
C710   C     0.73834   0.44312   0.09032   0.00000  Uiso   1.00
C711   C     0.17611   0.80296   0.04862   0.00000  Uiso   1.00
C712   C     0.23024   0.77027   0.08732   0.00000  Uiso   1.00
C713   C     0.20237   0.74440   0.10111   0.00000  Uiso   1.00
H714   H     0.98651   0.85237   0.96450   0.00000  Uiso   1.00
H715   H     0.89721   0.84478   0.85493   0.00000  Uiso   1.00
H716   H     0.03245   0.92527   0.01223   0.00000  Uiso   1.00
H717   H     0.00776   0.78893   0.01962   0.00000  Uiso   1.00
H718   H     0.83311   0.83346   0.74408   0.00000  Uiso   1.00
H719   H     0.61827   0.50316   0.07577   0.00000  Uiso   1.00
H720   H     0.06622   0.71567   0.09136   0.00000  Uiso   1.00
H721   H     0.75548   0.32981   0.04634   0.00000  Uiso   1.00
H722   H     0.68093   0.32099   0.94126   0.00000  Uiso   1.00
H723   H     0.81617   0.40147   0.09856   0.00000  Uiso   1.00
H724   H     0.29148   0.76514   0.10595   0.00000  Uiso   1.00
H725   H     0.56339   0.31415   0.81414   0.00000  Uiso   1.00
H726   H     0.84856   0.48385   0.14584   0.00000  Uiso   1.00
H727   H     0.29650   0.69636   0.16143   0.00000  Uiso   1.00
O728   O     0.89436   0.81842   0.70851   0.00000  Uiso   1.00
O729   O     0.76849   0.54105   0.14369   0.00000  Uiso   1.00
O730   O     0.20020   0.66388   0.16414   0.00000  Uiso   1.00
N731   N     0.89754   0.83012   0.77499   0.00000  Uiso   1.00
N732   N     0.66414   0.48878   0.08509   0.00000  Uiso   1.00
N733   N     0.11549   0.72001   0.09968   0.00000  Uiso   1.00
N734   N     0.52145   0.31973   0.81269   0.00000  Uiso   1.00
N735   N     0.78805   0.47839   0.12280   0.00000  Uiso   1.00
N736   N     0.23940   0.70962   0.13738   0.00000  Uiso   1.00
C737   C     0.06318   0.56384   0.64063   0.00000  Uiso   1.00
C738   C     0.60790   0.08371   0.63092   0.00000  Uiso   1.00
C739   C     0.65679   0.11979   0.65794   0.00000  Uiso   1.00
C740   C     0.69233   0.13288   0.64318   0.00000  Uiso   1.00
C741   C     0.26377   0.66710   0.63426   0.00000  Uiso   1.00
C742   C     0.09792   0.51972   0.66153   0.00000  Uiso   1.00
C743   C     0.13841   0.50200   0.71429   0.00000  Uiso   1.00
C744   C     0.66554   0.96122   0.72529   0.00000  Uiso   1.00
C745   C     0.72143   0.89609   0.76388   0.00000  Uiso   1.00
C746   C     0.96742   0.56006   0.57854   0.00000  Uiso   1.00
C747   C     0.89817   0.57624   0.56152   0.00000  Uiso   1.00
C748   C     0.81543   0.56942   0.50265   0.00000  Uiso   1.00
C749   C     0.66869   0.56692   0.41239   0.00000  Uiso   1.00
C750   C     0.03938   0.52294   0.56635   0.00000  Uiso   1.00
C751   C     0.59497   0.06149   0.59058   0.00000  Uiso   1.00
C752   C     0.13045   0.57454   0.57577   0.00000  Uiso   1.00
C753   C     0.17938   0.61062   0.60276   0.00000  Uiso   1.00
C754   C     0.58499   0.99751   0.62119   0.00000  Uiso   1.00
C755   C     0.61207   0.95675   0.63211   0.00000  Uiso   1.00
C756   C     0.65258   0.93897   0.68488   0.00000  Uiso   1.00
C757   C     0.95449   0.53785   0.53820   0.00000  Uiso   1.00
C758   C     0.87184   0.53099   0.47935   0.00000  Uiso   1.00
C759   C     0.80247   0.54716   0.46224   0.00000  Uiso   1.00
H760   H     0.07325   0.58113   0.67204   0.00000  Uiso   1.00
H761   H     0.66679   0.13697   0.68916   0.00000  Uiso   1.00
H762   H     0.14840   0.51920   0.74550   0.00000  Uiso   1.00
H763   H     0.90820   0.59343   0.59275   0.00000  Uiso   1.00
H764   H     0.76481   0.18906   0.69038   0.00000  Uiso   1.00
H765   H     0.72601   0.94073   0.80915   0.00000  Uiso   1.00
H766   H     0.71951   0.59727   0.48706   0.00000  Uiso   1.00
H767   H     0.52931   0.00565   0.53495   0.00000  Uiso   1.00
H768   H     0.12043   0.55734   0.54455   0.00000  Uiso   1.00
H769   H     0.60204   0.93957   0.60088   0.00000  Uiso   1.00
H770   H     0.86185   0.51380   0.44814   0.00000  Uiso   1.00
H771   H     0.22719   0.62443   0.57300   0.00000  Uiso   1.00
H772   H     0.68838   0.87610   0.69178   0.00000  Uiso   1.00
H773   H     0.68189   0.53264   0.36969   0.00000  Uiso   1.00
O774   O     0.30676   0.69211   0.64050   0.00000  Uiso   1.00
O775   O     0.75583   0.86631   0.79631   0.00000  Uiso   1.00
O776   O     0.59133   0.57168   0.37374   0.00000  Uiso   1.00
N777   N     0.74344   0.16676   0.66143   0.00000  Uiso   1.00
N778   N     0.70717   0.93459   0.77248   0.00000  Uiso   1.00
N779   N     0.73364   0.58093   0.47135   0.00000  Uiso   1.00
N780   N     0.22319   0.63198   0.59827   0.00000  Uiso   1.00
N781   N     0.68693   0.89981   0.70932   0.00000  Uiso   1.00
N782   N     0.71339   0.54615   0.40820   0.00000  Uiso   1.00
C783   C     0.99536   0.12308   0.91850   0.00000  Uiso   1.00
C784   C     0.52354   0.60948   0.89441   0.00000  Uiso   1.00
C785   C     0.53054   0.56890   0.88581   0.00000  Uiso   1.00
C786   C     0.55738   0.56292   0.86333   0.00000  Uiso   1.00
C787   C     0.59818   0.53672   0.82794   0.00000  Uiso   1.00
C788   C     0.91790   0.15185   0.87109   0.00000  Uiso   1.00
C789   C     0.83609   0.14688   0.84290   0.00000  Uiso   1.00
C790   C     0.77401   0.17656   0.80080   0.00000  Uiso   1.00
C791   C     0.65083   0.21615   0.72924   0.00000  Uiso   1.00
C792   C     0.06875   0.15009   0.97311   0.00000  Uiso   1.00
C793   C     0.11377   0.14366   0.03069   0.00000  Uiso   1.00
C794   C     0.17868   0.17188   0.07448   0.00000  Uiso   1.00
C795   C     0.28973   0.20875   0.16132   0.00000  Uiso   1.00
C796   C     0.03057   0.18464   0.89388   0.00000  Uiso   1.00
C797   C     0.54266   0.64292   0.88104   0.00000  Uiso   1.00
C798   C     0.56950   0.63700   0.85857   0.00000  Uiso   1.00
C799   C     0.57654   0.59641   0.84994   0.00000  Uiso   1.00
C800   C     0.93702   0.18528   0.85772   0.00000  Uiso   1.00
C801   C     0.87505   0.21498   0.81566   0.00000  Uiso   1.00
C802   C     0.79316   0.21006   0.78741   0.00000  Uiso   1.00
C803   C     0.08788   0.18353   0.95974   0.00000  Uiso   1.00
C804   C     0.15273   0.21176   0.00345   0.00000  Uiso   1.00
C805   C     0.19784   0.20537   0.06109   0.00000  Uiso   1.00
H806   H     0.98046   0.09705   0.92890   0.00000  Uiso   1.00
H807   H     0.51572   0.54303   0.89616   0.00000  Uiso   1.00
H808   H     0.82131   0.12100   0.85326   0.00000  Uiso   1.00
H809   H     0.09895   0.11779   0.04102   0.00000  Uiso   1.00
H810   H     0.56322   0.49788   0.85393   0.00000  Uiso   1.00
H811   H     0.65330   0.16230   0.76350   0.00000  Uiso   1.00
H812   H     0.23876   0.15552   0.15943   0.00000  Uiso   1.00
H813   H     0.04546   0.21067   0.88347   0.00000  Uiso   1.00
H814   H     0.58429   0.66288   0.84823   0.00000  Uiso   1.00
H815   H     0.88987   0.24085   0.80533   0.00000  Uiso   1.00
H816   H     0.16751   0.23763   0.99309   0.00000  Uiso   1.00
H817   H     0.61887   0.59515   0.81503   0.00000  Uiso   1.00
H818   H     0.70895   0.25957   0.72459   0.00000  Uiso   1.00
H819   H     0.29441   0.25279   0.12052   0.00000  Uiso   1.00
O820   O     0.61539   0.51303   0.81210   0.00000  Uiso   1.00
O821   O     0.57760   0.22874   0.69346   0.00000  Uiso   1.00
O822   O     0.34570   0.21984   0.21291   0.00000  Uiso   1.00
N823   N     0.57101   0.52733   0.84963   0.00000  Uiso   1.00
N824   N     0.68775   0.18105   0.76506   0.00000  Uiso   1.00
N825   N     0.23509   0.17471   0.13522   0.00000  Uiso   1.00
N826   N     0.60095   0.57967   0.82869   0.00000  Uiso   1.00
N827   N     0.71769   0.23339   0.74413   0.00000  Uiso   1.00
N828   N     0.26503   0.22705   0.11429   0.00000  Uiso   1.00
C829   C     0.45187   0.34720   0.51675   0.00000  Uiso   1.00
C830   C     0.46309   0.33995   0.56493   0.00000  Uiso   1.00
C831   C     0.54155   0.33964   0.62645   0.00000  Uiso   1.00
C832   C     0.53806   0.33246   0.66307   0.00000  Uiso   1.00
C833   C     0.56752   0.32223   0.74155   0.00000  Uiso   1.00
C834   C     0.38962   0.38368   0.47947   0.00000  Uiso   1.00
C835   C     0.40630   0.42014   0.46913   0.00000  Uiso   1.00
C836   C     0.84095   0.94977   0.43381   0.00000  Uiso   1.00
C837   C     0.75632   0.00742   0.37957   0.00000  Uiso   1.00
C838   C     0.40304   0.30960   0.47546   0.00000  Uiso   1.00
C839   C     0.43099   0.28379   0.46173   0.00000  Uiso   1.00
C840   C     0.37692   0.25105   0.42302   0.00000  Uiso   1.00
C841   C     0.31312   0.19369   0.36256   0.00000  Uiso   1.00
C842   C     0.30615   0.33498   0.47241   0.00000  Uiso   1.00
C843   C     0.38394   0.33331   0.54085   0.00000  Uiso   1.00
C844   C     0.88033   0.82612   0.57739   0.00000  Uiso   1.00
C845   C     0.95877   0.82581   0.63895   0.00000  Uiso   1.00
C846   C     0.81047   0.87704   0.45539   0.00000  Uiso   1.00
C847   C     0.74508   0.90662   0.42007   0.00000  Uiso   1.00
C848   C     0.76166   0.94312   0.40968   0.00000  Uiso   1.00
C849   C     0.32389   0.30296   0.45138   0.00000  Uiso   1.00
C850   C     0.26976   0.27027   0.41268   0.00000  Uiso   1.00
C851   C     0.29763   0.24440   0.39889   0.00000  Uiso   1.00
H852   H     0.51349   0.35237   0.53550   0.00000  Uiso   1.00
H853   H     0.60279   0.34478   0.64507   0.00000  Uiso   1.00
H854   H     0.46755   0.42527   0.48777   0.00000  Uiso   1.00
H855   H     0.49224   0.28893   0.48038   0.00000  Uiso   1.00
H856   H     0.66689   0.33346   0.75592   0.00000  Uiso   1.00
H857   H     0.88173   0.00316   0.42423   0.00000  Uiso   1.00
H858   H     0.43378   0.21567   0.40864   0.00000  Uiso   1.00
H859   H     0.74452   0.82981   0.45366   0.00000  Uiso   1.00
H860   H     0.81907   0.82099   0.55874   0.00000  Uiso   1.00
H861   H     0.68383   0.90147   0.40144   0.00000  Uiso   1.00
H862   H     0.20852   0.26514   0.39405   0.00000  Uiso   1.00
H863   H     0.93661   0.81415   0.68586   0.00000  Uiso   1.00
H864   H     0.65144   0.98385   0.35416   0.00000  Uiso   1.00
H865   H     0.20350   0.19636   0.33857   0.00000  Uiso   1.00
O866   O     0.60564   0.31842   0.79149   0.00000  Uiso   1.00
O867   O     0.73151   0.04105   0.35631   0.00000  Uiso   1.00
O868   O     0.29980   0.16388   0.33586   0.00000  Uiso   1.00
N869   N     0.60246   0.33012   0.72501   0.00000  Uiso   1.00
N870   N     0.83586   0.98878   0.41491   0.00000  Uiso   1.00
N871   N     0.38451   0.22001   0.40032   0.00000  Uiso   1.00
N872   N     0.97855   0.81973   0.68731   0.00000  Uiso   1.00
N873   N     0.71195   0.97839   0.37720   0.00000  Uiso   1.00
N874   N     0.26060   0.20962   0.36262   0.00000  Uiso   1.00
C875   C     0.43682   0.06384   0.85937   0.00000  Uiso   1.00
C876   C     0.89210   0.58371   0.86908   0.00000  Uiso   1.00
C877   C     0.84321   0.61979   0.84206   0.00000  Uiso   1.00
C878   C     0.80767   0.63288   0.85682   0.00000  Uiso   1.00
C879   C     0.23623   0.16710   0.86574   0.00000  Uiso   1.00
C880   C     0.40208   0.01972   0.83847   0.00000  Uiso   1.00
C881   C     0.36159   0.00200   0.78571   0.00000  Uiso   1.00
C882   C     0.83446   0.46122   0.77471   0.00000  Uiso   1.00
C883   C     0.77857   0.39609   0.73612   0.00000  Uiso   1.00
C884   C     0.53258   0.06006   0.92146   0.00000  Uiso   1.00
C885   C     0.60183   0.07624   0.93848   0.00000  Uiso   1.00
C886   C     0.68457   0.06942   0.99735   0.00000  Uiso   1.00
C887   C     0.83131   0.06692   0.08761   0.00000  Uiso   1.00
C888   C     0.46062   0.02294   0.93365   0.00000  Uiso   1.00
C889   C     0.90503   0.56149   0.90942   0.00000  Uiso   1.00
C890   C     0.36955   0.07454   0.92423   0.00000  Uiso   1.00
C891   C     0.32062   0.11062   0.89724   0.00000  Uiso   1.00
C892   C     0.91501   0.49751   0.87881   0.00000  Uiso   1.00
C893   C     0.88793   0.45675   0.86789   0.00000  Uiso   1.00
C894   C     0.84742   0.43897   0.81512   0.00000  Uiso   1.00
C895   C     0.54551   0.03785   0.96180   0.00000  Uiso   1.00
C896   C     0.62816   0.03099   0.02065   0.00000  Uiso   1.00
C897   C     0.69753   0.04716   0.03776   0.00000  Uiso   1.00
H898   H     0.42675   0.08113   0.82796   0.00000  Uiso   1.00
H899   H     0.83321   0.63697   0.81084   0.00000  Uiso   1.00
H900   H     0.35160   0.01920   0.75450   0.00000  Uiso   1.00
H901   H     0.59180   0.09343   0.90725   0.00000  Uiso   1.00
H902   H     0.73519   0.68906   0.80962   0.00000  Uiso   1.00
H903   H     0.77399   0.44073   0.69085   0.00000  Uiso   1.00
H904   H     0.78049   0.09727   0.01294   0.00000  Uiso   1.00
H905   H     0.97069   0.50565   0.96505   0.00000  Uiso   1.00
H906   H     0.37957   0.05734   0.95545   0.00000  Uiso   1.00
H907   H     0.89796   0.43957   0.89912   0.00000  Uiso   1.00
H908   H     0.63815   0.01380   0.05186   0.00000  Uiso   1.00
H909   H     0.27281   0.12443   0.92700   0.00000  Uiso   1.00
H910   H     0.81162   0.37610   0.80822   0.00000  Uiso   1.00
H911   H     0.81811   0.03264   0.13031   0.00000  Uiso   1.00
O912   O     0.19324   0.19211   0.85950   0.00000  Uiso   1.00
O913   O     0.74417   0.36631   0.70369   0.00000  Uiso   1.00
O914   O     0.90867   0.07168   0.12626   0.00000  Uiso   1.00
N915   N     0.75656   0.66676   0.83857   0.00000  Uiso   1.00
N916   N     0.79283   0.43459   0.72752   0.00000  Uiso   1.00
N917   N     0.76636   0.08093   0.02865   0.00000  Uiso   1.00
N918   N     0.27681   0.13198   0.90173   0.00000  Uiso   1.00
N919   N     0.81307   0.39981   0.79068   0.00000  Uiso   1.00
N920   N     0.78661   0.04615   0.09180   0.00000  Uiso   1.00
C921   C     0.50464   0.62308   0.58150   0.00000  Uiso   1.00
C922   C     0.97646   0.10948   0.60559   0.00000  Uiso   1.00
C923   C     0.96946   0.06890   0.61419   0.00000  Uiso   1.00
C924   C     0.94262   0.06292   0.63667   0.00000  Uiso   1.00
C925   C     0.90182   0.03672   0.67206   0.00000  Uiso   1.00
C926   C     0.58210   0.65185   0.62891   0.00000  Uiso   1.00
C927   C     0.66391   0.64688   0.65710   0.00000  Uiso   1.00
C928   C     0.72599   0.67656   0.69920   0.00000  Uiso   1.00
C929   C     0.84917   0.71615   0.77076   0.00000  Uiso   1.00
C930   C     0.43125   0.65009   0.52689   0.00000  Uiso   1.00
C931   C     0.38623   0.64366   0.46931   0.00000  Uiso   1.00
C932   C     0.32132   0.67188   0.42552   0.00000  Uiso   1.00
C933   C     0.21027   0.70875   0.33868   0.00000  Uiso   1.00
C934   C     0.46943   0.68464   0.60612   0.00000  Uiso   1.00
C935   C     0.95734   0.14292   0.61896   0.00000  Uiso   1.00
C936   C     0.93050   0.13700   0.64143   0.00000  Uiso   1.00
C937   C     0.92346   0.09641   0.65006   0.00000  Uiso   1.00
C938   C     0.56298   0.68528   0.64228   0.00000  Uiso   1.00
C939   C     0.62495   0.71498   0.68434   0.00000  Uiso   1.00
C940   C     0.70684   0.71006   0.71259   0.00000  Uiso   1.00
C941   C     0.41212   0.68353   0.54026   0.00000  Uiso   1.00
C942   C     0.34727   0.71176   0.49655   0.00000  Uiso   1.00
C943   C     0.30216   0.70537   0.43891   0.00000  Uiso   1.00
H944   H     0.51954   0.59705   0.57110   0.00000  Uiso   1.00
H945   H     0.98428   0.04303   0.60384   0.00000  Uiso   1.00
H946   H     0.67869   0.62100   0.64674   0.00000  Uiso   1.00
H947   H     0.40105   0.61779   0.45898   0.00000  Uiso   1.00
H948   H     0.93678   0.99788   0.64607   0.00000  Uiso   1.00
H949   H     0.84670   0.66230   0.73650   0.00000  Uiso   1.00
H950   H     0.26124   0.65552   0.34057   0.00000  Uiso   1.00
H951   H     0.45454   0.71067   0.61653   0.00000  Uiso   1.00
H952   H     0.91571   0.16288   0.65177   0.00000  Uiso   1.00
H953   H     0.61013   0.74085   0.69467   0.00000  Uiso   1.00
H954   H     0.33249   0.73763   0.50691   0.00000  Uiso   1.00
H955   H     0.88113   0.09515   0.68497   0.00000  Uiso   1.00
H956   H     0.79105   0.75957   0.77541   0.00000  Uiso   1.00
H957   H     0.20559   0.75279   0.37948   0.00000  Uiso   1.00
O958   O     0.88461   0.01303   0.68790   0.00000  Uiso   1.00
O959   O     0.92240   0.72874   0.80654   0.00000  Uiso   1.00
O960   O     0.15430   0.71984   0.28709   0.00000  Uiso   1.00
N961   N     0.92899   0.02733   0.65037   0.00000  Uiso   1.00
N962   N     0.81225   0.68105   0.73494   0.00000  Uiso   1.00
N963   N     0.26491   0.67471   0.36478   0.00000  Uiso   1.00
N964   N     0.89905   0.07967   0.67131   0.00000  Uiso   1.00
N965   N     0.78231   0.73339   0.75587   0.00000  Uiso   1.00
N966   N     0.23497   0.72705   0.38571   0.00000  Uiso   1.00
C967   C     0.95187   0.84720   0.51675   0.00000  Uiso   1.00
C968   C     0.96309   0.83995   0.56493   0.00000  Uiso   1.00
C969   C     0.04155   0.83964   0.62645   0.00000  Uiso   1.00
C970   C     0.03806   0.83246   0.66307   0.00000  Uiso   1.00
C971   C     0.06752   0.82223   0.74155   0.00000  Uiso   1.00
C972   C     0.88962   0.88368   0.47947   0.00000  Uiso   1.00
C973   C     0.90630   0.92014   0.46913   0.00000  Uiso   1.00
C974   C     0.34095   0.44977   0.43381   0.00000  Uiso   1.00
C975   C     0.25632   0.50742   0.37957   0.00000  Uiso   1.00
C976   C     0.90304   0.80960   0.47546   0.00000  Uiso   1.00
C977   C     0.93099   0.78379   0.46173   0.00000  Uiso   1.00
C978   C     0.87692   0.75105   0.42302   0.00000  Uiso   1.00
C979   C     0.81312   0.69369   0.36256   0.00000  Uiso   1.00
C980   C     0.80615   0.83498   0.47241   0.00000  Uiso   1.00
C981   C     0.88394   0.83331   0.54085   0.00000  Uiso   1.00
C982   C     0.38033   0.32612   0.57739   0.00000  Uiso   1.00
C983   C     0.45877   0.32581   0.63895   0.00000  Uiso   1.00
C984   C     0.31047   0.37704   0.45539   0.00000  Uiso   1.00
C985   C     0.24508   0.40662   0.42007   0.00000  Uiso   1.00
C986   C     0.26166   0.44312   0.40968   0.00000  Uiso   1.00
C987   C     0.82389   0.80296   0.45138   0.00000  Uiso   1.00
C988   C     0.76976   0.77027   0.41268   0.00000  Uiso   1.00
C989   C     0.79763   0.74440   0.39889   0.00000  Uiso   1.00
H990   H     0.01349   0.85237   0.53550   0.00000  Uiso   1.00
H991   H     0.10279   0.84478   0.64507   0.00000  Uiso   1.00
H992   H     0.96755   0.92527   0.48777   0.00000  Uiso   1.00
H993   H     0.99224   0.78893   0.48038   0.00000  Uiso   1.00
H994   H     0.16689   0.83346   0.75592   0.00000  Uiso   1.00
H995   H     0.38173   0.50316   0.42423   0.00000  Uiso   1.00
H996   H     0.93378   0.71567   0.40864   0.00000  Uiso   1.00
H997   H     0.24452   0.32981   0.45366   0.00000  Uiso   1.00
H998   H     0.31907   0.32099   0.55874   0.00000  Uiso   1.00
H999   H     0.18383   0.40147   0.40144   0.00000  Uiso   1.00
H1000  H     0.70852   0.76514   0.39405   0.00000  Uiso   1.00
H1001  H     0.43661   0.31415   0.68586   0.00000  Uiso   1.00
H1002  H     0.15144   0.48385   0.35416   0.00000  Uiso   1.00
H1003  H     0.70350   0.69636   0.33857   0.00000  Uiso   1.00
O1004  O     0.10564   0.81842   0.79149   0.00000  Uiso   1.00
O1005  O     0.23151   0.54105   0.35631   0.00000  Uiso   1.00
O1006  O     0.79980   0.66388   0.33586   0.00000  Uiso   1.00
N1007  N     0.10246   0.83012   0.72501   0.00000  Uiso   1.00
N1008  N     0.33586   0.48878   0.41491   0.00000  Uiso   1.00
N1009  N     0.88451   0.72001   0.40032   0.00000  Uiso   1.00
N1010  N     0.47855   0.31973   0.68731   0.00000  Uiso   1.00
N1011  N     0.21195   0.47839   0.37720   0.00000  Uiso   1.00
N1012  N     0.76060   0.70962   0.36262   0.00000  Uiso   1.00
C1013  C     0.93682   0.56384   0.85937   0.00000  Uiso   1.00
C1014  C     0.39210   0.08371   0.86908   0.00000  Uiso   1.00
C1015  C     0.34321   0.11979   0.84206   0.00000  Uiso   1.00
C1016  C     0.30767   0.13288   0.85682   0.00000  Uiso   1.00
C1017  C     0.73623   0.66710   0.86574   0.00000  Uiso   1.00
C1018  C     0.90208   0.51972   0.83847   0.00000  Uiso   1.00
C1019  C     0.86159   0.50200   0.78571   0.00000  Uiso   1.00
C1020  C     0.33446   0.96122   0.77471   0.00000  Uiso   1.00
C1021  C     0.27857   0.89609   0.73612   0.00000  Uiso   1.00
C1022  C     0.03258   0.56006   0.92146   0.00000  Uiso   1.00
C1023  C     0.10183   0.57624   0.93848   0.00000  Uiso   1.00
C1024  C     0.18457   0.56942   0.99735   0.00000  Uiso   1.00
C1025  C     0.33131   0.56692   0.08761   0.00000  Uiso   1.00
C1026  C     0.96062   0.52294   0.93365   0.00000  Uiso   1.00
C1027  C     0.40503   0.06149   0.90942   0.00000  Uiso   1.00
C1028  C     0.86955   0.57454   0.92423   0.00000  Uiso   1.00
C1029  C     0.82062   0.61062   0.89724   0.00000  Uiso   1.00
C1030  C     0.41501   0.99751   0.87881   0.00000  Uiso   1.00
C1031  C     0.38793   0.95675   0.86789   0.00000  Uiso   1.00
C1032  C     0.34742   0.93897   0.81512   0.00000  Uiso   1.00
C1033  C     0.04551   0.53785   0.96180   0.00000  Uiso   1.00
C1034  C     0.12816   0.53099   0.02065   0.00000  Uiso   1.00
C1035  C     0.19753   0.54716   0.03776   0.00000  Uiso   1.00
H1036  H     0.92675   0.58113   0.82796   0.00000  Uiso   1.00
H1037  H     0.33321   0.13697   0.81084   0.00000  Uiso   1.00
H1038  H     0.85160   0.51920   0.75450   0.00000  Uiso   1.00
H1039  H     0.09180   0.59343   0.90725   0.00000  Uiso   1.00
H1040  H     0.23519   0.18906   0.80962   0.00000  Uiso   1.00
H1041  H     0.27399   0.94073   0.69085   0.00000  Uiso   1.00
H1042  H     0.28049   0.59727   0.01294   0.00000  Uiso   1.00
H1043  H     0.47069   0.00565   0.96505   0.00000  Uiso   1.00
H1044  H     0.87957   0.55734   0.95545   0.00000  Uiso   1.00
H1045  H     0.39796   0.93957   0.89912   0.00000  Uiso   1.00
H1046  H     0.13815   0.51380   0.05186   0.00000  Uiso   1.00
H1047  H     0.77281   0.62443   0.92700   0.00000  Uiso   1.00
H1048  H     0.31162   0.87610   0.80822   0.00000  Uiso   1.00
H1049  H     0.31811   0.53264   0.13031   0.00000  Uiso   1.00
O1050  O     0.69324   0.69211   0.85950   0.00000  Uiso   1.00
O1051  O     0.24417   0.86631   0.70369   0.00000  Uiso   1.00
O1052  O     0.40867   0.57168   0.12626   0.00000  Uiso   1.00
N1053  N     0.25656   0.16676   0.83857   0.00000  Uiso   1.00
N1054  N     0.29283   0.93459   0.72752   0.00000  Uiso   1.00
N1055  N     0.26636   0.58093   0.02865   0.00000  Uiso   1.00
N1056  N     0.77681   0.63198   0.90173   0.00000  Uiso   1.00
N1057  N     0.31307   0.89981   0.79068   0.00000  Uiso   1.00
N1058  N     0.28661   0.54615   0.09180   0.00000  Uiso   1.00
C1059  C     0.00464   0.12308   0.58150   0.00000  Uiso   1.00
C1060  C     0.47646   0.60948   0.60559   0.00000  Uiso   1.00
C1061  C     0.46946   0.56890   0.61419   0.00000  Uiso   1.00
C1062  C     0.44262   0.56292   0.63667   0.00000  Uiso   1.00
C1063  C     0.40182   0.53672   0.67206   0.00000  Uiso   1.00
C1064  C     0.08210   0.15185   0.62891   0.00000  Uiso   1.00
C1065  C     0.16391   0.14688   0.65710   0.00000  Uiso   1.00
C1066  C     0.22599   0.17656   0.69920   0.00000  Uiso   1.00
C1067  C     0.34917   0.21615   0.77076   0.00000  Uiso   1.00
C1068  C     0.93125   0.15009   0.52689   0.00000  Uiso   1.00
C1069  C     0.88623   0.14366   0.46931   0.00000  Uiso   1.00
C1070  C     0.82132   0.17188   0.42552   0.00000  Uiso   1.00
C1071  C     0.71027   0.20875   0.33868   0.00000  Uiso   1.00
C1072  C     0.96943   0.18464   0.60612   0.00000  Uiso   1.00
C1073  C     0.45734   0.64292   0.61896   0.00000  Uiso   1.00
C1074  C     0.43050   0.63700   0.64143   0.00000  Uiso   1.00
C1075  C     0.42346   0.59641   0.65006   0.00000  Uiso   1.00
C1076  C     0.06298   0.18528   0.64228   0.00000  Uiso   1.00
C1077  C     0.12495   0.21498   0.68434   0.00000  Uiso   1.00
C1078  C     0.20684   0.21006   0.71259   0.00000  Uiso   1.00
C1079  C     0.91212   0.18353   0.54026   0.00000  Uiso   1.00
C1080  C     0.84727   0.21176   0.49655   0.00000  Uiso   1.00
C1081  C     0.80216   0.20537   0.43891   0.00000  Uiso   1.00
H1082  H     0.01954   0.09705   0.57110   0.00000  Uiso   1.00
H1083  H     0.48428   0.54303   0.60384   0.00000  Uiso   1.00
H1084  H     0.17869   0.12100   0.64674   0.00000  Uiso   1.00
H1085  H     0.90105   0.11779   0.45898   0.00000  Uiso   1.00
H1086  H     0.43678   0.49788   0.64607   0.00000  Uiso   1.00
H1087  H     0.34670   0.16230   0.73650   0.00000  Uiso   1.00
H1088  H     0.76124   0.15552   0.34057   0.00000  Uiso   1.00
H1089  H     0.95454   0.21067   0.61653   0.00000  Uiso   1.00
H1090  H     0.41571   0.66288   0.65177   0.00000  Uiso   1.00
H1091  H     0.11013   0.24085   0.69467   0.00000  Uiso   1.00
H1092  H     0.83249   0.23763   0.50691   0.00000  Uiso   1.00
H1093  H     0.38113   0.59515   0.68497   0.00000  Uiso   1.00
H1094  H     0.29105   0.25957   0.77541   0.00000  Uiso   1.00
H1095  H     0.70559   0.25279   0.37948   0.00000  Uiso   1.00
O1096  O     0.38461   0.51303   0.68790   0.00000  Uiso   1.00
O1097  O     0.42240   0.22874   0.80654   0.00000  Uiso   1.00
O1098  O     0.65430   0.21984   0.28709   0.00000  Uiso   1.00
N1099  N     0.42899   0.52733   0.65037   0.00000  Uiso   1.00
N1100  N     0.31225   0.18105   0.73494   0.00000  Uiso   1.00
N1101  N     0.76491   0.17471   0.36478   0.00000  Uiso   1.00
N1102  N     0.39905   0.57967   0.67131   0.00000  Uiso   1.00
N1103  N     0.28231   0.23339   0.75587   0.00000  Uiso   1.00
N1104  N     0.73497   0.22705   0.38571   0.00000  Uiso   1.00
