data_job_02055
_audit_creation_date              2018-12-19
_audit_creation_method            'Materials Studio'
_symmetry_space_group_name_H-M    'P1'
_symmetry_Int_Tables_number       1
_symmetry_cell_setting            triclinic
loop_
_symmetry_equiv_pos_as_xyz
  x,y,z
_cell_length_a                    25.2078
_cell_length_b                    24.1242
_cell_length_c                    25.9094
_cell_angle_alpha                 90.0000
_cell_angle_beta                  90.0000
_cell_angle_gamma                 90.0000
loop_
_atom_site_label
_atom_site_type_symbol
_atom_site_fract_x
_atom_site_fract_y
_atom_site_fract_z
_atom_site_U_iso_or_equiv
_atom_site_adp_type
_atom_site_occupancy
C1     C     0.39686   0.24813   0.97673   0.00000  Uiso   1.00
C2     C     0.37075   0.29351   0.00888   0.00000  Uiso   1.00
C3     C     0.35559   0.34538   0.99102   0.00000  Uiso   1.00
C4     C     0.33235   0.38102   0.02651   0.00000  Uiso   1.00
C5     C     0.29303   0.45388   0.06861   0.00000  Uiso   1.00
C6     C     0.44858   0.23384   0.00421   0.00000  Uiso   1.00
C7     C     0.49885   0.23553   0.98241   0.00000  Uiso   1.00
C8     C     0.54112   0.22092   0.01396   0.00000  Uiso   1.00
C9     C     0.62261   0.20111   0.04879   0.00000  Uiso   1.00
C10    C     0.36144   0.19721   0.98205   0.00000  Uiso   1.00
C11    C     0.33845   0.16808   0.94163   0.00000  Uiso   1.00
C12    C     0.30737   0.12263   0.95453   0.00000  Uiso   1.00
C13    C     0.25357   0.04594   0.95496   0.00000  Uiso   1.00
C14    C     0.38255   0.21918   0.07151   0.00000  Uiso   1.00
C15    C     0.36298   0.27779   0.06036   0.00000  Uiso   1.00
C16    C     0.33976   0.31335   0.09588   0.00000  Uiso   1.00
C17    C     0.32457   0.36527   0.07808   0.00000  Uiso   1.00
C18    C     0.44081   0.21812   0.05568   0.00000  Uiso   1.00
C19    C     0.48301   0.20350   0.08727   0.00000  Uiso   1.00
C20    C     0.53333   0.20517   0.06553   0.00000  Uiso   1.00
C21    C     0.35367   0.18148   0.03353   0.00000  Uiso   1.00
C22    C     0.32262   0.13606   0.04649   0.00000  Uiso   1.00
C23    C     0.29959   0.10688   0.00610   0.00000  Uiso   1.00
H24    H     0.40291   0.26037   0.93665   0.00000  Uiso   1.00
H25    H     0.36162   0.35753   0.95118   0.00000  Uiso   1.00
H26    H     0.50485   0.24769   0.94257   0.00000  Uiso   1.00
H27    H     0.34448   0.18026   0.90180   0.00000  Uiso   1.00
H28    H     0.31243   0.45833   0.99000   0.00000  Uiso   1.00
H29    H     0.61443   0.22671   0.97184   0.00000  Uiso   1.00
H30    H     0.27626   0.08452   0.88586   0.00000  Uiso   1.00
H31    H     0.37650   0.20694   0.11159   0.00000  Uiso   1.00
H32    H     0.33375   0.30118   0.13572   0.00000  Uiso   1.00
H33    H     0.47698   0.19133   0.12711   0.00000  Uiso   1.00
H34    H     0.31661   0.12391   0.08633   0.00000  Uiso   1.00
H35    H     0.28981   0.41259   0.13978   0.00000  Uiso   1.00
H36    H     0.59182   0.18096   0.12161   0.00000  Uiso   1.00
H37    H     0.25365   0.03878   0.03564   0.00000  Uiso   1.00
O38    O     0.27349   0.49842   0.07761   0.00000  Uiso   1.00
O39    O     0.66971   0.19453   0.05378   0.00000  Uiso   1.00
O40    O     0.22604   0.00799   0.94098   0.00000  Uiso   1.00
N41    N     0.31296   0.43463   0.02194   0.00000  Uiso   1.00
N42    N     0.59532   0.21808   0.00496   0.00000  Uiso   1.00
N43    N     0.27917   0.08514   0.92458   0.00000  Uiso   1.00
N44    N     0.30079   0.41002   0.10253   0.00000  Uiso   1.00
N45    N     0.58315   0.19347   0.08555   0.00000  Uiso   1.00
N46    N     0.26700   0.06053   0.00517   0.00000  Uiso   1.00
C47    C     0.39490   0.33283   0.78650   0.00000  Uiso   1.00
C48    C     0.36895   0.28774   0.75388   0.00000  Uiso   1.00
C49    C     0.35343   0.23583   0.77133   0.00000  Uiso   1.00
C50    C     0.33041   0.20049   0.73545   0.00000  Uiso   1.00
C51    C     0.29125   0.12802   0.69262   0.00000  Uiso   1.00
C52    C     0.44694   0.34707   0.75958   0.00000  Uiso   1.00
C53    C     0.49698   0.34506   0.78183   0.00000  Uiso   1.00
C54    C     0.53962   0.35967   0.75075   0.00000  Uiso   1.00
C55    C     0.62152   0.37937   0.71679   0.00000  Uiso   1.00
C56    C     0.35972   0.38392   0.78110   0.00000  Uiso   1.00
C57    C     0.33644   0.41290   0.82145   0.00000  Uiso   1.00
C58    C     0.30565   0.45855   0.80849   0.00000  Uiso   1.00
C59    C     0.25213   0.53546   0.80794   0.00000  Uiso   1.00
C60    C     0.38163   0.36237   0.69174   0.00000  Uiso   1.00
C61    C     0.36175   0.30379   0.70241   0.00000  Uiso   1.00
C62    C     0.33875   0.26852   0.66649   0.00000  Uiso   1.00
C63    C     0.32319   0.21656   0.68389   0.00000  Uiso   1.00
C64    C     0.43973   0.36312   0.70811   0.00000  Uiso   1.00
C65    C     0.48230   0.37775   0.67699   0.00000  Uiso   1.00
C66    C     0.53240   0.37575   0.69919   0.00000  Uiso   1.00
C67    C     0.35251   0.39997   0.72963   0.00000  Uiso   1.00
C68    C     0.32176   0.44559   0.71660   0.00000  Uiso   1.00
C69    C     0.29843   0.47463   0.75692   0.00000  Uiso   1.00
H70    H     0.40051   0.32034   0.82657   0.00000  Uiso   1.00
H71    H     0.35901   0.22342   0.81116   0.00000  Uiso   1.00
H72    H     0.50254   0.33264   0.82166   0.00000  Uiso   1.00
H73    H     0.34202   0.40047   0.86127   0.00000  Uiso   1.00
H74    H     0.30985   0.12304   0.77139   0.00000  Uiso   1.00
H75    H     0.61249   0.35336   0.79353   0.00000  Uiso   1.00
H76    H     0.27399   0.49639   0.87705   0.00000  Uiso   1.00
H77    H     0.37602   0.37487   0.65166   0.00000  Uiso   1.00
H78    H     0.33318   0.28095   0.62666   0.00000  Uiso   1.00
H79    H     0.47671   0.39017   0.63716   0.00000  Uiso   1.00
H80    H     0.31619   0.45799   0.67677   0.00000  Uiso   1.00
H81    H     0.28888   0.16973   0.62164   0.00000  Uiso   1.00
H82    H     0.59152   0.40005   0.64378   0.00000  Uiso   1.00
H83    H     0.25303   0.54308   0.72730   0.00000  Uiso   1.00
O84    O     0.27164   0.08361   0.68322   0.00000  Uiso   1.00
O85    O     0.66869   0.38579   0.71227   0.00000  Uiso   1.00
O86    O     0.22459   0.57344   0.82185   0.00000  Uiso   1.00
N87    N     0.31078   0.14693   0.73958   0.00000  Uiso   1.00
N88    N     0.59373   0.36225   0.76027   0.00000  Uiso   1.00
N89    N     0.27728   0.49598   0.83836   0.00000  Uiso   1.00
N90    N     0.29950   0.17205   0.65900   0.00000  Uiso   1.00
N91    N     0.58245   0.38737   0.67970   0.00000  Uiso   1.00
N92    N     0.26600   0.52110   0.75778   0.00000  Uiso   1.00
C93    C     0.89686   0.74813   0.47673   0.00000  Uiso   1.00
C94    C     0.87075   0.79351   0.50888   0.00000  Uiso   1.00
C95    C     0.85559   0.84538   0.49102   0.00000  Uiso   1.00
C96    C     0.83235   0.88102   0.52651   0.00000  Uiso   1.00
C97    C     0.79303   0.95388   0.56861   0.00000  Uiso   1.00
C98    C     0.94858   0.73384   0.50421   0.00000  Uiso   1.00
C99    C     0.99885   0.73553   0.48241   0.00000  Uiso   1.00
C100   C     0.04112   0.72092   0.51396   0.00000  Uiso   1.00
C101   C     0.12261   0.70111   0.54879   0.00000  Uiso   1.00
C102   C     0.86144   0.69721   0.48205   0.00000  Uiso   1.00
C103   C     0.83845   0.66808   0.44163   0.00000  Uiso   1.00
C104   C     0.80737   0.62263   0.45453   0.00000  Uiso   1.00
C105   C     0.75357   0.54594   0.45496   0.00000  Uiso   1.00
C106   C     0.88255   0.71918   0.57151   0.00000  Uiso   1.00
C107   C     0.86298   0.77779   0.56036   0.00000  Uiso   1.00
C108   C     0.83976   0.81335   0.59588   0.00000  Uiso   1.00
C109   C     0.82457   0.86527   0.57808   0.00000  Uiso   1.00
C110   C     0.94081   0.71812   0.55568   0.00000  Uiso   1.00
C111   C     0.98301   0.70350   0.58727   0.00000  Uiso   1.00
C112   C     0.03333   0.70517   0.56553   0.00000  Uiso   1.00
C113   C     0.85367   0.68148   0.53353   0.00000  Uiso   1.00
C114   C     0.82262   0.63606   0.54649   0.00000  Uiso   1.00
C115   C     0.79959   0.60688   0.50610   0.00000  Uiso   1.00
H116   H     0.90291   0.76037   0.43665   0.00000  Uiso   1.00
H117   H     0.86162   0.85753   0.45118   0.00000  Uiso   1.00
H118   H     0.00485   0.74769   0.44257   0.00000  Uiso   1.00
H119   H     0.84448   0.68026   0.40180   0.00000  Uiso   1.00
H120   H     0.81243   0.95833   0.49000   0.00000  Uiso   1.00
H121   H     0.11443   0.72671   0.47184   0.00000  Uiso   1.00
H122   H     0.77626   0.58452   0.38586   0.00000  Uiso   1.00
H123   H     0.87650   0.70694   0.61159   0.00000  Uiso   1.00
H124   H     0.83375   0.80118   0.63572   0.00000  Uiso   1.00
H125   H     0.97698   0.69133   0.62711   0.00000  Uiso   1.00
H126   H     0.81661   0.62391   0.58633   0.00000  Uiso   1.00
H127   H     0.78981   0.91259   0.63978   0.00000  Uiso   1.00
H128   H     0.09182   0.68096   0.62161   0.00000  Uiso   1.00
H129   H     0.75365   0.53878   0.53564   0.00000  Uiso   1.00
O130   O     0.77349   0.99842   0.57761   0.00000  Uiso   1.00
O131   O     0.16971   0.69453   0.55378   0.00000  Uiso   1.00
O132   O     0.72604   0.50799   0.44098   0.00000  Uiso   1.00
N133   N     0.81296   0.93463   0.52194   0.00000  Uiso   1.00
N134   N     0.09532   0.71808   0.50496   0.00000  Uiso   1.00
N135   N     0.77917   0.58514   0.42458   0.00000  Uiso   1.00
N136   N     0.80079   0.91002   0.60253   0.00000  Uiso   1.00
N137   N     0.08315   0.69347   0.58555   0.00000  Uiso   1.00
N138   N     0.76700   0.56053   0.50517   0.00000  Uiso   1.00
C139   C     0.89490   0.83283   0.28650   0.00000  Uiso   1.00
C140   C     0.86895   0.78774   0.25388   0.00000  Uiso   1.00
C141   C     0.85343   0.73583   0.27133   0.00000  Uiso   1.00
C142   C     0.83041   0.70049   0.23545   0.00000  Uiso   1.00
C143   C     0.79125   0.62802   0.19262   0.00000  Uiso   1.00
C144   C     0.94694   0.84707   0.25958   0.00000  Uiso   1.00
C145   C     0.99698   0.84506   0.28183   0.00000  Uiso   1.00
C146   C     0.03962   0.85967   0.25075   0.00000  Uiso   1.00
C147   C     0.12152   0.87937   0.21679   0.00000  Uiso   1.00
C148   C     0.85972   0.88392   0.28110   0.00000  Uiso   1.00
C149   C     0.83644   0.91290   0.32145   0.00000  Uiso   1.00
C150   C     0.80565   0.95855   0.30849   0.00000  Uiso   1.00
C151   C     0.75213   0.03546   0.30794   0.00000  Uiso   1.00
C152   C     0.88163   0.86237   0.19174   0.00000  Uiso   1.00
C153   C     0.86175   0.80379   0.20241   0.00000  Uiso   1.00
C154   C     0.83875   0.76852   0.16649   0.00000  Uiso   1.00
C155   C     0.82319   0.71656   0.18389   0.00000  Uiso   1.00
C156   C     0.93973   0.86312   0.20811   0.00000  Uiso   1.00
C157   C     0.98230   0.87775   0.17699   0.00000  Uiso   1.00
C158   C     0.03240   0.87575   0.19919   0.00000  Uiso   1.00
C159   C     0.85251   0.89997   0.22963   0.00000  Uiso   1.00
C160   C     0.82176   0.94559   0.21660   0.00000  Uiso   1.00
C161   C     0.79843   0.97463   0.25692   0.00000  Uiso   1.00
H162   H     0.90051   0.82034   0.32657   0.00000  Uiso   1.00
H163   H     0.85901   0.72342   0.31116   0.00000  Uiso   1.00
H164   H     0.00254   0.83264   0.32166   0.00000  Uiso   1.00
H165   H     0.84202   0.90047   0.36127   0.00000  Uiso   1.00
H166   H     0.80985   0.62304   0.27139   0.00000  Uiso   1.00
H167   H     0.11249   0.85336   0.29353   0.00000  Uiso   1.00
H168   H     0.77399   0.99639   0.37705   0.00000  Uiso   1.00
H169   H     0.87602   0.87487   0.15166   0.00000  Uiso   1.00
H170   H     0.83318   0.78095   0.12666   0.00000  Uiso   1.00
H171   H     0.97671   0.89017   0.13716   0.00000  Uiso   1.00
H172   H     0.81619   0.95799   0.17677   0.00000  Uiso   1.00
H173   H     0.78888   0.66973   0.12164   0.00000  Uiso   1.00
H174   H     0.09152   0.90005   0.14378   0.00000  Uiso   1.00
H175   H     0.75303   0.04308   0.22730   0.00000  Uiso   1.00
O176   O     0.77164   0.58361   0.18322   0.00000  Uiso   1.00
O177   O     0.16869   0.88579   0.21227   0.00000  Uiso   1.00
O178   O     0.72459   0.07344   0.32185   0.00000  Uiso   1.00
N179   N     0.81078   0.64693   0.23958   0.00000  Uiso   1.00
N180   N     0.09373   0.86225   0.26027   0.00000  Uiso   1.00
N181   N     0.77728   0.99598   0.33836   0.00000  Uiso   1.00
N182   N     0.79950   0.67205   0.15900   0.00000  Uiso   1.00
N183   N     0.08245   0.88737   0.17970   0.00000  Uiso   1.00
N184   N     0.76600   0.02110   0.25778   0.00000  Uiso   1.00
C185   C     0.60314   0.75187   0.97673   0.00000  Uiso   1.00
C186   C     0.62925   0.70649   0.00888   0.00000  Uiso   1.00
C187   C     0.64441   0.65462   0.99102   0.00000  Uiso   1.00
C188   C     0.66765   0.61898   0.02651   0.00000  Uiso   1.00
C189   C     0.70697   0.54612   0.06861   0.00000  Uiso   1.00
C190   C     0.55142   0.76616   0.00421   0.00000  Uiso   1.00
C191   C     0.50115   0.76447   0.98241   0.00000  Uiso   1.00
C192   C     0.45888   0.77908   0.01396   0.00000  Uiso   1.00
C193   C     0.37739   0.79889   0.04879   0.00000  Uiso   1.00
C194   C     0.63856   0.80279   0.98205   0.00000  Uiso   1.00
C195   C     0.66155   0.83192   0.94163   0.00000  Uiso   1.00
C196   C     0.69263   0.87737   0.95453   0.00000  Uiso   1.00
C197   C     0.74643   0.95406   0.95496   0.00000  Uiso   1.00
C198   C     0.61745   0.78082   0.07151   0.00000  Uiso   1.00
C199   C     0.63702   0.72221   0.06036   0.00000  Uiso   1.00
C200   C     0.66024   0.68665   0.09588   0.00000  Uiso   1.00
C201   C     0.67543   0.63473   0.07808   0.00000  Uiso   1.00
C202   C     0.55919   0.78188   0.05568   0.00000  Uiso   1.00
C203   C     0.51699   0.79650   0.08727   0.00000  Uiso   1.00
C204   C     0.46667   0.79483   0.06553   0.00000  Uiso   1.00
C205   C     0.64633   0.81852   0.03353   0.00000  Uiso   1.00
C206   C     0.67738   0.86394   0.04649   0.00000  Uiso   1.00
C207   C     0.70041   0.89312   0.00610   0.00000  Uiso   1.00
H208   H     0.59709   0.73963   0.93665   0.00000  Uiso   1.00
H209   H     0.63838   0.64247   0.95118   0.00000  Uiso   1.00
H210   H     0.49515   0.75231   0.94257   0.00000  Uiso   1.00
H211   H     0.65552   0.81974   0.90180   0.00000  Uiso   1.00
H212   H     0.68757   0.54167   0.99000   0.00000  Uiso   1.00
H213   H     0.38557   0.77329   0.97184   0.00000  Uiso   1.00
H214   H     0.72374   0.91548   0.88586   0.00000  Uiso   1.00
H215   H     0.62350   0.79306   0.11159   0.00000  Uiso   1.00
H216   H     0.66625   0.69882   0.13572   0.00000  Uiso   1.00
H217   H     0.52302   0.80867   0.12711   0.00000  Uiso   1.00
H218   H     0.68339   0.87609   0.08633   0.00000  Uiso   1.00
H219   H     0.71019   0.58741   0.13978   0.00000  Uiso   1.00
H220   H     0.40818   0.81904   0.12161   0.00000  Uiso   1.00
H221   H     0.74635   0.96122   0.03564   0.00000  Uiso   1.00
O222   O     0.72651   0.50158   0.07761   0.00000  Uiso   1.00
O223   O     0.33029   0.80547   0.05378   0.00000  Uiso   1.00
O224   O     0.77396   0.99201   0.94098   0.00000  Uiso   1.00
N225   N     0.68704   0.56537   0.02194   0.00000  Uiso   1.00
N226   N     0.40468   0.78192   0.00496   0.00000  Uiso   1.00
N227   N     0.72083   0.91486   0.92458   0.00000  Uiso   1.00
N228   N     0.69921   0.58998   0.10253   0.00000  Uiso   1.00
N229   N     0.41685   0.80653   0.08555   0.00000  Uiso   1.00
N230   N     0.73300   0.93947   0.00517   0.00000  Uiso   1.00
C231   C     0.60510   0.66717   0.78650   0.00000  Uiso   1.00
C232   C     0.63105   0.71226   0.75388   0.00000  Uiso   1.00
C233   C     0.64657   0.76417   0.77133   0.00000  Uiso   1.00
C234   C     0.66959   0.79951   0.73545   0.00000  Uiso   1.00
C235   C     0.70875   0.87198   0.69262   0.00000  Uiso   1.00
C236   C     0.55306   0.65293   0.75958   0.00000  Uiso   1.00
C237   C     0.50302   0.65494   0.78183   0.00000  Uiso   1.00
C238   C     0.46038   0.64033   0.75075   0.00000  Uiso   1.00
C239   C     0.37848   0.62063   0.71679   0.00000  Uiso   1.00
C240   C     0.64028   0.61608   0.78110   0.00000  Uiso   1.00
C241   C     0.66356   0.58710   0.82145   0.00000  Uiso   1.00
C242   C     0.69435   0.54145   0.80849   0.00000  Uiso   1.00
C243   C     0.74787   0.46454   0.80794   0.00000  Uiso   1.00
C244   C     0.61837   0.63763   0.69174   0.00000  Uiso   1.00
C245   C     0.63825   0.69621   0.70241   0.00000  Uiso   1.00
C246   C     0.66125   0.73148   0.66649   0.00000  Uiso   1.00
C247   C     0.67681   0.78344   0.68389   0.00000  Uiso   1.00
C248   C     0.56027   0.63688   0.70811   0.00000  Uiso   1.00
C249   C     0.51770   0.62225   0.67699   0.00000  Uiso   1.00
C250   C     0.46760   0.62425   0.69919   0.00000  Uiso   1.00
C251   C     0.64749   0.60003   0.72963   0.00000  Uiso   1.00
C252   C     0.67824   0.55441   0.71660   0.00000  Uiso   1.00
C253   C     0.70157   0.52537   0.75692   0.00000  Uiso   1.00
H254   H     0.59949   0.67966   0.82657   0.00000  Uiso   1.00
H255   H     0.64099   0.77658   0.81116   0.00000  Uiso   1.00
H256   H     0.49746   0.66736   0.82166   0.00000  Uiso   1.00
H257   H     0.65798   0.59953   0.86127   0.00000  Uiso   1.00
H258   H     0.69015   0.87696   0.77139   0.00000  Uiso   1.00
H259   H     0.38751   0.64664   0.79353   0.00000  Uiso   1.00
H260   H     0.72601   0.50361   0.87705   0.00000  Uiso   1.00
H261   H     0.62398   0.62513   0.65166   0.00000  Uiso   1.00
H262   H     0.66682   0.71905   0.62666   0.00000  Uiso   1.00
H263   H     0.52329   0.60983   0.63716   0.00000  Uiso   1.00
H264   H     0.68381   0.54201   0.67677   0.00000  Uiso   1.00
H265   H     0.71112   0.83027   0.62164   0.00000  Uiso   1.00
H266   H     0.40848   0.59995   0.64378   0.00000  Uiso   1.00
H267   H     0.74697   0.45692   0.72730   0.00000  Uiso   1.00
O268   O     0.72836   0.91639   0.68322   0.00000  Uiso   1.00
O269   O     0.33131   0.61421   0.71227   0.00000  Uiso   1.00
O270   O     0.77541   0.42656   0.82185   0.00000  Uiso   1.00
N271   N     0.68922   0.85307   0.73958   0.00000  Uiso   1.00
N272   N     0.40627   0.63775   0.76027   0.00000  Uiso   1.00
N273   N     0.72272   0.50402   0.83836   0.00000  Uiso   1.00
N274   N     0.70050   0.82795   0.65900   0.00000  Uiso   1.00
N275   N     0.41755   0.61263   0.67970   0.00000  Uiso   1.00
N276   N     0.73400   0.47890   0.75778   0.00000  Uiso   1.00
C277   C     0.10314   0.25187   0.47673   0.00000  Uiso   1.00
C278   C     0.12925   0.20649   0.50888   0.00000  Uiso   1.00
C279   C     0.14441   0.15462   0.49102   0.00000  Uiso   1.00
C280   C     0.16765   0.11898   0.52651   0.00000  Uiso   1.00
C281   C     0.20697   0.04612   0.56861   0.00000  Uiso   1.00
C282   C     0.05142   0.26616   0.50421   0.00000  Uiso   1.00
C283   C     0.00115   0.26447   0.48241   0.00000  Uiso   1.00
C284   C     0.95888   0.27908   0.51396   0.00000  Uiso   1.00
C285   C     0.87739   0.29889   0.54879   0.00000  Uiso   1.00
C286   C     0.13856   0.30279   0.48205   0.00000  Uiso   1.00
C287   C     0.16155   0.33192   0.44163   0.00000  Uiso   1.00
C288   C     0.19263   0.37737   0.45453   0.00000  Uiso   1.00
C289   C     0.24643   0.45406   0.45496   0.00000  Uiso   1.00
C290   C     0.11745   0.28082   0.57151   0.00000  Uiso   1.00
C291   C     0.13702   0.22221   0.56036   0.00000  Uiso   1.00
C292   C     0.16024   0.18665   0.59588   0.00000  Uiso   1.00
C293   C     0.17543   0.13473   0.57808   0.00000  Uiso   1.00
C294   C     0.05919   0.28188   0.55568   0.00000  Uiso   1.00
C295   C     0.01699   0.29650   0.58727   0.00000  Uiso   1.00
C296   C     0.96667   0.29483   0.56553   0.00000  Uiso   1.00
C297   C     0.14633   0.31852   0.53353   0.00000  Uiso   1.00
C298   C     0.17738   0.36394   0.54649   0.00000  Uiso   1.00
C299   C     0.20041   0.39312   0.50610   0.00000  Uiso   1.00
H300   H     0.09709   0.23963   0.43665   0.00000  Uiso   1.00
H301   H     0.13838   0.14247   0.45118   0.00000  Uiso   1.00
H302   H     0.99515   0.25231   0.44257   0.00000  Uiso   1.00
H303   H     0.15552   0.31974   0.40180   0.00000  Uiso   1.00
H304   H     0.18757   0.04167   0.49000   0.00000  Uiso   1.00
H305   H     0.88557   0.27329   0.47184   0.00000  Uiso   1.00
H306   H     0.22374   0.41548   0.38586   0.00000  Uiso   1.00
H307   H     0.12350   0.29306   0.61159   0.00000  Uiso   1.00
H308   H     0.16625   0.19882   0.63572   0.00000  Uiso   1.00
H309   H     0.02302   0.30867   0.62711   0.00000  Uiso   1.00
H310   H     0.18339   0.37609   0.58633   0.00000  Uiso   1.00
H311   H     0.21019   0.08741   0.63978   0.00000  Uiso   1.00
H312   H     0.90818   0.31904   0.62161   0.00000  Uiso   1.00
H313   H     0.24635   0.46122   0.53564   0.00000  Uiso   1.00
O314   O     0.22651   0.00158   0.57761   0.00000  Uiso   1.00
O315   O     0.83029   0.30547   0.55378   0.00000  Uiso   1.00
O316   O     0.27396   0.49201   0.44098   0.00000  Uiso   1.00
N317   N     0.18704   0.06537   0.52194   0.00000  Uiso   1.00
N318   N     0.90468   0.28192   0.50496   0.00000  Uiso   1.00
N319   N     0.22083   0.41486   0.42458   0.00000  Uiso   1.00
N320   N     0.19921   0.08998   0.60253   0.00000  Uiso   1.00
N321   N     0.91685   0.30653   0.58555   0.00000  Uiso   1.00
N322   N     0.23300   0.43947   0.50517   0.00000  Uiso   1.00
C323   C     0.10510   0.16717   0.28650   0.00000  Uiso   1.00
C324   C     0.13105   0.21226   0.25388   0.00000  Uiso   1.00
C325   C     0.14657   0.26417   0.27133   0.00000  Uiso   1.00
C326   C     0.16959   0.29951   0.23545   0.00000  Uiso   1.00
C327   C     0.20875   0.37198   0.19262   0.00000  Uiso   1.00
C328   C     0.05306   0.15293   0.25958   0.00000  Uiso   1.00
C329   C     0.00302   0.15494   0.28183   0.00000  Uiso   1.00
C330   C     0.96038   0.14033   0.25075   0.00000  Uiso   1.00
C331   C     0.87848   0.12063   0.21679   0.00000  Uiso   1.00
C332   C     0.14028   0.11608   0.28110   0.00000  Uiso   1.00
C333   C     0.16356   0.08710   0.32145   0.00000  Uiso   1.00
C334   C     0.19435   0.04145   0.30849   0.00000  Uiso   1.00
C335   C     0.24787   0.96454   0.30794   0.00000  Uiso   1.00
C336   C     0.11837   0.13763   0.19174   0.00000  Uiso   1.00
C337   C     0.13825   0.19621   0.20241   0.00000  Uiso   1.00
C338   C     0.16125   0.23148   0.16649   0.00000  Uiso   1.00
C339   C     0.17681   0.28344   0.18389   0.00000  Uiso   1.00
C340   C     0.06027   0.13688   0.20811   0.00000  Uiso   1.00
C341   C     0.01770   0.12225   0.17699   0.00000  Uiso   1.00
C342   C     0.96760   0.12425   0.19919   0.00000  Uiso   1.00
C343   C     0.14749   0.10003   0.22963   0.00000  Uiso   1.00
C344   C     0.17824   0.05441   0.21660   0.00000  Uiso   1.00
C345   C     0.20157   0.02537   0.25692   0.00000  Uiso   1.00
H346   H     0.09949   0.17966   0.32657   0.00000  Uiso   1.00
H347   H     0.14099   0.27658   0.31116   0.00000  Uiso   1.00
H348   H     0.99746   0.16736   0.32166   0.00000  Uiso   1.00
H349   H     0.15798   0.09953   0.36127   0.00000  Uiso   1.00
H350   H     0.19015   0.37696   0.27139   0.00000  Uiso   1.00
H351   H     0.88751   0.14664   0.29353   0.00000  Uiso   1.00
H352   H     0.22601   0.00361   0.37705   0.00000  Uiso   1.00
H353   H     0.12398   0.12513   0.15166   0.00000  Uiso   1.00
H354   H     0.16682   0.21905   0.12666   0.00000  Uiso   1.00
H355   H     0.02329   0.10983   0.13716   0.00000  Uiso   1.00
H356   H     0.18381   0.04201   0.17677   0.00000  Uiso   1.00
H357   H     0.21112   0.33027   0.12164   0.00000  Uiso   1.00
H358   H     0.90848   0.09995   0.14378   0.00000  Uiso   1.00
H359   H     0.24697   0.95692   0.22730   0.00000  Uiso   1.00
O360   O     0.22836   0.41639   0.18322   0.00000  Uiso   1.00
O361   O     0.83131   0.11421   0.21227   0.00000  Uiso   1.00
O362   O     0.27541   0.92656   0.32185   0.00000  Uiso   1.00
N363   N     0.18922   0.35307   0.23958   0.00000  Uiso   1.00
N364   N     0.90627   0.13775   0.26027   0.00000  Uiso   1.00
N365   N     0.22272   0.00402   0.33836   0.00000  Uiso   1.00
N366   N     0.20050   0.32795   0.15900   0.00000  Uiso   1.00
N367   N     0.91755   0.11263   0.17970   0.00000  Uiso   1.00
N368   N     0.23400   0.97890   0.25778   0.00000  Uiso   1.00
C369   C     0.89686   0.25187   0.97673   0.00000  Uiso   1.00
C370   C     0.87075   0.20649   0.00888   0.00000  Uiso   1.00
C371   C     0.85559   0.15462   0.99102   0.00000  Uiso   1.00
C372   C     0.83235   0.11898   0.02651   0.00000  Uiso   1.00
C373   C     0.79303   0.04612   0.06861   0.00000  Uiso   1.00
C374   C     0.94858   0.26616   0.00421   0.00000  Uiso   1.00
C375   C     0.99885   0.26447   0.98241   0.00000  Uiso   1.00
C376   C     0.04112   0.27908   0.01396   0.00000  Uiso   1.00
C377   C     0.12261   0.29889   0.04879   0.00000  Uiso   1.00
C378   C     0.86144   0.30279   0.98205   0.00000  Uiso   1.00
C379   C     0.83845   0.33192   0.94163   0.00000  Uiso   1.00
C380   C     0.80737   0.37737   0.95453   0.00000  Uiso   1.00
C381   C     0.75357   0.45406   0.95496   0.00000  Uiso   1.00
C382   C     0.88255   0.28082   0.07151   0.00000  Uiso   1.00
C383   C     0.86298   0.22221   0.06036   0.00000  Uiso   1.00
C384   C     0.83976   0.18665   0.09588   0.00000  Uiso   1.00
C385   C     0.82457   0.13473   0.07808   0.00000  Uiso   1.00
C386   C     0.94081   0.28188   0.05568   0.00000  Uiso   1.00
C387   C     0.98301   0.29650   0.08727   0.00000  Uiso   1.00
C388   C     0.03333   0.29483   0.06553   0.00000  Uiso   1.00
C389   C     0.85367   0.31852   0.03353   0.00000  Uiso   1.00
C390   C     0.82262   0.36394   0.04649   0.00000  Uiso   1.00
C391   C     0.79959   0.39312   0.00610   0.00000  Uiso   1.00
H392   H     0.90291   0.23963   0.93665   0.00000  Uiso   1.00
H393   H     0.86162   0.14247   0.95118   0.00000  Uiso   1.00
H394   H     0.00485   0.25231   0.94257   0.00000  Uiso   1.00
H395   H     0.84448   0.31974   0.90180   0.00000  Uiso   1.00
H396   H     0.81243   0.04167   0.99000   0.00000  Uiso   1.00
H397   H     0.11443   0.27329   0.97184   0.00000  Uiso   1.00
H398   H     0.77626   0.41548   0.88586   0.00000  Uiso   1.00
H399   H     0.87650   0.29306   0.11159   0.00000  Uiso   1.00
H400   H     0.83375   0.19882   0.13572   0.00000  Uiso   1.00
H401   H     0.97698   0.30867   0.12711   0.00000  Uiso   1.00
H402   H     0.81661   0.37609   0.08633   0.00000  Uiso   1.00
H403   H     0.78981   0.08741   0.13978   0.00000  Uiso   1.00
H404   H     0.09182   0.31904   0.12161   0.00000  Uiso   1.00
H405   H     0.75365   0.46122   0.03564   0.00000  Uiso   1.00
O406   O     0.77349   0.00158   0.07761   0.00000  Uiso   1.00
O407   O     0.16971   0.30547   0.05378   0.00000  Uiso   1.00
O408   O     0.72604   0.49201   0.94098   0.00000  Uiso   1.00
N409   N     0.81296   0.06537   0.02194   0.00000  Uiso   1.00
N410   N     0.09532   0.28192   0.00496   0.00000  Uiso   1.00
N411   N     0.77917   0.41486   0.92458   0.00000  Uiso   1.00
N412   N     0.80079   0.08998   0.10253   0.00000  Uiso   1.00
N413   N     0.08315   0.30653   0.08555   0.00000  Uiso   1.00
N414   N     0.76700   0.43947   0.00517   0.00000  Uiso   1.00
C415   C     0.89490   0.16717   0.78650   0.00000  Uiso   1.00
C416   C     0.86895   0.21226   0.75388   0.00000  Uiso   1.00
C417   C     0.85343   0.26417   0.77133   0.00000  Uiso   1.00
C418   C     0.83041   0.29951   0.73545   0.00000  Uiso   1.00
C419   C     0.79125   0.37198   0.69262   0.00000  Uiso   1.00
C420   C     0.94694   0.15293   0.75958   0.00000  Uiso   1.00
C421   C     0.99698   0.15494   0.78183   0.00000  Uiso   1.00
C422   C     0.03962   0.14033   0.75075   0.00000  Uiso   1.00
C423   C     0.12152   0.12063   0.71679   0.00000  Uiso   1.00
C424   C     0.85972   0.11608   0.78110   0.00000  Uiso   1.00
C425   C     0.83644   0.08710   0.82145   0.00000  Uiso   1.00
C426   C     0.80565   0.04145   0.80849   0.00000  Uiso   1.00
C427   C     0.75213   0.96454   0.80794   0.00000  Uiso   1.00
C428   C     0.88163   0.13763   0.69174   0.00000  Uiso   1.00
C429   C     0.86175   0.19621   0.70241   0.00000  Uiso   1.00
C430   C     0.83875   0.23148   0.66649   0.00000  Uiso   1.00
C431   C     0.82319   0.28344   0.68389   0.00000  Uiso   1.00
C432   C     0.93973   0.13688   0.70811   0.00000  Uiso   1.00
C433   C     0.98230   0.12225   0.67699   0.00000  Uiso   1.00
C434   C     0.03240   0.12425   0.69919   0.00000  Uiso   1.00
C435   C     0.85251   0.10003   0.72963   0.00000  Uiso   1.00
C436   C     0.82176   0.05441   0.71660   0.00000  Uiso   1.00
C437   C     0.79843   0.02537   0.75692   0.00000  Uiso   1.00
H438   H     0.90051   0.17966   0.82657   0.00000  Uiso   1.00
H439   H     0.85901   0.27658   0.81116   0.00000  Uiso   1.00
H440   H     0.00254   0.16736   0.82166   0.00000  Uiso   1.00
H441   H     0.84202   0.09953   0.86127   0.00000  Uiso   1.00
H442   H     0.80985   0.37696   0.77139   0.00000  Uiso   1.00
H443   H     0.11249   0.14664   0.79353   0.00000  Uiso   1.00
H444   H     0.77399   0.00361   0.87705   0.00000  Uiso   1.00
H445   H     0.87602   0.12513   0.65166   0.00000  Uiso   1.00
H446   H     0.83318   0.21905   0.62666   0.00000  Uiso   1.00
H447   H     0.97671   0.10983   0.63716   0.00000  Uiso   1.00
H448   H     0.81619   0.04201   0.67677   0.00000  Uiso   1.00
H449   H     0.78888   0.33027   0.62164   0.00000  Uiso   1.00
H450   H     0.09152   0.09995   0.64378   0.00000  Uiso   1.00
H451   H     0.75303   0.95692   0.72730   0.00000  Uiso   1.00
O452   O     0.77164   0.41639   0.68322   0.00000  Uiso   1.00
O453   O     0.16869   0.11421   0.71227   0.00000  Uiso   1.00
O454   O     0.72459   0.92656   0.82185   0.00000  Uiso   1.00
N455   N     0.81078   0.35307   0.73958   0.00000  Uiso   1.00
N456   N     0.09373   0.13775   0.76027   0.00000  Uiso   1.00
N457   N     0.77728   0.00402   0.83836   0.00000  Uiso   1.00
N458   N     0.79950   0.32795   0.65900   0.00000  Uiso   1.00
N459   N     0.08245   0.11263   0.67970   0.00000  Uiso   1.00
N460   N     0.76600   0.97890   0.75778   0.00000  Uiso   1.00
C461   C     0.39686   0.75187   0.47673   0.00000  Uiso   1.00
C462   C     0.37075   0.70649   0.50888   0.00000  Uiso   1.00
C463   C     0.35559   0.65462   0.49102   0.00000  Uiso   1.00
C464   C     0.33235   0.61898   0.52651   0.00000  Uiso   1.00
C465   C     0.29303   0.54612   0.56861   0.00000  Uiso   1.00
C466   C     0.44858   0.76616   0.50421   0.00000  Uiso   1.00
C467   C     0.49885   0.76447   0.48241   0.00000  Uiso   1.00
C468   C     0.54112   0.77908   0.51396   0.00000  Uiso   1.00
C469   C     0.62261   0.79889   0.54879   0.00000  Uiso   1.00
C470   C     0.36144   0.80279   0.48205   0.00000  Uiso   1.00
C471   C     0.33845   0.83192   0.44163   0.00000  Uiso   1.00
C472   C     0.30737   0.87737   0.45453   0.00000  Uiso   1.00
C473   C     0.25357   0.95406   0.45496   0.00000  Uiso   1.00
C474   C     0.38255   0.78082   0.57151   0.00000  Uiso   1.00
C475   C     0.36298   0.72221   0.56036   0.00000  Uiso   1.00
C476   C     0.33976   0.68665   0.59588   0.00000  Uiso   1.00
C477   C     0.32457   0.63473   0.57808   0.00000  Uiso   1.00
C478   C     0.44081   0.78188   0.55568   0.00000  Uiso   1.00
C479   C     0.48301   0.79650   0.58727   0.00000  Uiso   1.00
C480   C     0.53333   0.79483   0.56553   0.00000  Uiso   1.00
C481   C     0.35367   0.81852   0.53353   0.00000  Uiso   1.00
C482   C     0.32262   0.86394   0.54649   0.00000  Uiso   1.00
C483   C     0.29959   0.89312   0.50610   0.00000  Uiso   1.00
H484   H     0.40291   0.73963   0.43665   0.00000  Uiso   1.00
H485   H     0.36162   0.64247   0.45118   0.00000  Uiso   1.00
H486   H     0.50485   0.75231   0.44257   0.00000  Uiso   1.00
H487   H     0.34448   0.81974   0.40180   0.00000  Uiso   1.00
H488   H     0.31243   0.54167   0.49000   0.00000  Uiso   1.00
H489   H     0.61443   0.77329   0.47184   0.00000  Uiso   1.00
H490   H     0.27626   0.91548   0.38586   0.00000  Uiso   1.00
H491   H     0.37650   0.79306   0.61159   0.00000  Uiso   1.00
H492   H     0.33375   0.69882   0.63572   0.00000  Uiso   1.00
H493   H     0.47698   0.80867   0.62711   0.00000  Uiso   1.00
H494   H     0.31661   0.87609   0.58633   0.00000  Uiso   1.00
H495   H     0.28981   0.58741   0.63978   0.00000  Uiso   1.00
H496   H     0.59182   0.81904   0.62161   0.00000  Uiso   1.00
H497   H     0.25365   0.96122   0.53564   0.00000  Uiso   1.00
O498   O     0.27349   0.50158   0.57761   0.00000  Uiso   1.00
O499   O     0.66971   0.80547   0.55378   0.00000  Uiso   1.00
O500   O     0.22604   0.99201   0.44098   0.00000  Uiso   1.00
N501   N     0.31296   0.56537   0.52194   0.00000  Uiso   1.00
N502   N     0.59532   0.78192   0.50496   0.00000  Uiso   1.00
N503   N     0.27917   0.91486   0.42458   0.00000  Uiso   1.00
N504   N     0.30079   0.58998   0.60253   0.00000  Uiso   1.00
N505   N     0.58315   0.80653   0.58555   0.00000  Uiso   1.00
N506   N     0.26700   0.93947   0.50517   0.00000  Uiso   1.00
C507   C     0.39490   0.66717   0.28650   0.00000  Uiso   1.00
C508   C     0.36895   0.71226   0.25388   0.00000  Uiso   1.00
C509   C     0.35343   0.76417   0.27133   0.00000  Uiso   1.00
C510   C     0.33041   0.79951   0.23545   0.00000  Uiso   1.00
C511   C     0.29125   0.87198   0.19262   0.00000  Uiso   1.00
C512   C     0.44694   0.65293   0.25958   0.00000  Uiso   1.00
C513   C     0.49698   0.65494   0.28183   0.00000  Uiso   1.00
C514   C     0.53962   0.64033   0.25075   0.00000  Uiso   1.00
C515   C     0.62152   0.62063   0.21679   0.00000  Uiso   1.00
C516   C     0.35972   0.61608   0.28110   0.00000  Uiso   1.00
C517   C     0.33644   0.58710   0.32145   0.00000  Uiso   1.00
C518   C     0.30565   0.54145   0.30849   0.00000  Uiso   1.00
C519   C     0.25213   0.46454   0.30794   0.00000  Uiso   1.00
C520   C     0.38163   0.63763   0.19174   0.00000  Uiso   1.00
C521   C     0.36175   0.69621   0.20241   0.00000  Uiso   1.00
C522   C     0.33875   0.73148   0.16649   0.00000  Uiso   1.00
C523   C     0.32319   0.78344   0.18389   0.00000  Uiso   1.00
C524   C     0.43973   0.63688   0.20811   0.00000  Uiso   1.00
C525   C     0.48230   0.62225   0.17699   0.00000  Uiso   1.00
C526   C     0.53240   0.62425   0.19919   0.00000  Uiso   1.00
C527   C     0.35251   0.60003   0.22963   0.00000  Uiso   1.00
C528   C     0.32176   0.55441   0.21660   0.00000  Uiso   1.00
C529   C     0.29843   0.52537   0.25692   0.00000  Uiso   1.00
H530   H     0.40051   0.67966   0.32657   0.00000  Uiso   1.00
H531   H     0.35901   0.77658   0.31116   0.00000  Uiso   1.00
H532   H     0.50254   0.66736   0.32166   0.00000  Uiso   1.00
H533   H     0.34202   0.59953   0.36127   0.00000  Uiso   1.00
H534   H     0.30985   0.87696   0.27139   0.00000  Uiso   1.00
H535   H     0.61249   0.64664   0.29353   0.00000  Uiso   1.00
H536   H     0.27399   0.50361   0.37705   0.00000  Uiso   1.00
H537   H     0.37602   0.62513   0.15166   0.00000  Uiso   1.00
H538   H     0.33318   0.71905   0.12666   0.00000  Uiso   1.00
H539   H     0.47671   0.60983   0.13716   0.00000  Uiso   1.00
H540   H     0.31619   0.54201   0.17677   0.00000  Uiso   1.00
H541   H     0.28888   0.83027   0.12164   0.00000  Uiso   1.00
H542   H     0.59152   0.59995   0.14378   0.00000  Uiso   1.00
H543   H     0.25303   0.45692   0.22730   0.00000  Uiso   1.00
O544   O     0.27164   0.91639   0.18322   0.00000  Uiso   1.00
O545   O     0.66869   0.61421   0.21227   0.00000  Uiso   1.00
O546   O     0.22459   0.42656   0.32185   0.00000  Uiso   1.00
N547   N     0.31078   0.85307   0.23958   0.00000  Uiso   1.00
N548   N     0.59373   0.63775   0.26027   0.00000  Uiso   1.00
N549   N     0.27728   0.50402   0.33836   0.00000  Uiso   1.00
N550   N     0.29950   0.82795   0.15900   0.00000  Uiso   1.00
N551   N     0.58245   0.61263   0.17970   0.00000  Uiso   1.00
N552   N     0.26600   0.47890   0.25778   0.00000  Uiso   1.00
C553   C     0.10314   0.74813   0.97673   0.00000  Uiso   1.00
C554   C     0.12925   0.79351   0.00888   0.00000  Uiso   1.00
C555   C     0.14441   0.84538   0.99102   0.00000  Uiso   1.00
C556   C     0.16765   0.88102   0.02651   0.00000  Uiso   1.00
C557   C     0.20697   0.95388   0.06861   0.00000  Uiso   1.00
C558   C     0.05142   0.73384   0.00421   0.00000  Uiso   1.00
C559   C     0.00115   0.73553   0.98241   0.00000  Uiso   1.00
C560   C     0.95888   0.72092   0.01396   0.00000  Uiso   1.00
C561   C     0.87739   0.70111   0.04879   0.00000  Uiso   1.00
C562   C     0.13856   0.69721   0.98205   0.00000  Uiso   1.00
C563   C     0.16155   0.66808   0.94163   0.00000  Uiso   1.00
C564   C     0.19263   0.62263   0.95453   0.00000  Uiso   1.00
C565   C     0.24643   0.54594   0.95496   0.00000  Uiso   1.00
C566   C     0.11745   0.71918   0.07151   0.00000  Uiso   1.00
C567   C     0.13702   0.77779   0.06036   0.00000  Uiso   1.00
C568   C     0.16024   0.81335   0.09588   0.00000  Uiso   1.00
C569   C     0.17543   0.86527   0.07808   0.00000  Uiso   1.00
C570   C     0.05919   0.71812   0.05568   0.00000  Uiso   1.00
C571   C     0.01699   0.70350   0.08727   0.00000  Uiso   1.00
C572   C     0.96667   0.70517   0.06553   0.00000  Uiso   1.00
C573   C     0.14633   0.68148   0.03353   0.00000  Uiso   1.00
C574   C     0.17738   0.63606   0.04649   0.00000  Uiso   1.00
C575   C     0.20041   0.60688   0.00610   0.00000  Uiso   1.00
H576   H     0.09709   0.76037   0.93665   0.00000  Uiso   1.00
H577   H     0.13838   0.85753   0.95118   0.00000  Uiso   1.00
H578   H     0.99515   0.74769   0.94257   0.00000  Uiso   1.00
H579   H     0.15552   0.68026   0.90180   0.00000  Uiso   1.00
H580   H     0.18757   0.95833   0.99000   0.00000  Uiso   1.00
H581   H     0.88557   0.72671   0.97184   0.00000  Uiso   1.00
H582   H     0.22374   0.58452   0.88586   0.00000  Uiso   1.00
H583   H     0.12350   0.70694   0.11159   0.00000  Uiso   1.00
H584   H     0.16625   0.80118   0.13572   0.00000  Uiso   1.00
H585   H     0.02302   0.69133   0.12711   0.00000  Uiso   1.00
H586   H     0.18339   0.62391   0.08633   0.00000  Uiso   1.00
H587   H     0.21019   0.91259   0.13978   0.00000  Uiso   1.00
H588   H     0.90818   0.68096   0.12161   0.00000  Uiso   1.00
H589   H     0.24635   0.53878   0.03564   0.00000  Uiso   1.00
O590   O     0.22651   0.99842   0.07761   0.00000  Uiso   1.00
O591   O     0.83029   0.69453   0.05378   0.00000  Uiso   1.00
O592   O     0.27396   0.50799   0.94098   0.00000  Uiso   1.00
N593   N     0.18704   0.93463   0.02194   0.00000  Uiso   1.00
N594   N     0.90468   0.71808   0.00496   0.00000  Uiso   1.00
N595   N     0.22083   0.58514   0.92458   0.00000  Uiso   1.00
N596   N     0.19921   0.91002   0.10253   0.00000  Uiso   1.00
N597   N     0.91685   0.69347   0.08555   0.00000  Uiso   1.00
N598   N     0.23300   0.56053   0.00517   0.00000  Uiso   1.00
C599   C     0.10510   0.83283   0.78650   0.00000  Uiso   1.00
C600   C     0.13105   0.78774   0.75388   0.00000  Uiso   1.00
C601   C     0.14657   0.73583   0.77133   0.00000  Uiso   1.00
C602   C     0.16959   0.70049   0.73545   0.00000  Uiso   1.00
C603   C     0.20875   0.62802   0.69262   0.00000  Uiso   1.00
C604   C     0.05306   0.84707   0.75958   0.00000  Uiso   1.00
C605   C     0.00302   0.84506   0.78183   0.00000  Uiso   1.00
C606   C     0.96038   0.85967   0.75075   0.00000  Uiso   1.00
C607   C     0.87848   0.87937   0.71679   0.00000  Uiso   1.00
C608   C     0.14028   0.88392   0.78110   0.00000  Uiso   1.00
C609   C     0.16356   0.91290   0.82145   0.00000  Uiso   1.00
C610   C     0.19435   0.95855   0.80849   0.00000  Uiso   1.00
C611   C     0.24787   0.03546   0.80794   0.00000  Uiso   1.00
C612   C     0.11837   0.86237   0.69174   0.00000  Uiso   1.00
C613   C     0.13825   0.80379   0.70241   0.00000  Uiso   1.00
C614   C     0.16125   0.76852   0.66649   0.00000  Uiso   1.00
C615   C     0.17681   0.71656   0.68389   0.00000  Uiso   1.00
C616   C     0.06027   0.86312   0.70811   0.00000  Uiso   1.00
C617   C     0.01770   0.87775   0.67699   0.00000  Uiso   1.00
C618   C     0.96760   0.87575   0.69919   0.00000  Uiso   1.00
C619   C     0.14749   0.89997   0.72963   0.00000  Uiso   1.00
C620   C     0.17824   0.94559   0.71660   0.00000  Uiso   1.00
C621   C     0.20157   0.97463   0.75692   0.00000  Uiso   1.00
H622   H     0.09949   0.82034   0.82657   0.00000  Uiso   1.00
H623   H     0.14099   0.72342   0.81116   0.00000  Uiso   1.00
H624   H     0.99746   0.83264   0.82166   0.00000  Uiso   1.00
H625   H     0.15798   0.90047   0.86127   0.00000  Uiso   1.00
H626   H     0.19015   0.62304   0.77139   0.00000  Uiso   1.00
H627   H     0.88751   0.85336   0.79353   0.00000  Uiso   1.00
H628   H     0.22601   0.99639   0.87705   0.00000  Uiso   1.00
H629   H     0.12398   0.87487   0.65166   0.00000  Uiso   1.00
H630   H     0.16682   0.78095   0.62666   0.00000  Uiso   1.00
H631   H     0.02329   0.89017   0.63716   0.00000  Uiso   1.00
H632   H     0.18381   0.95799   0.67677   0.00000  Uiso   1.00
H633   H     0.21112   0.66973   0.62164   0.00000  Uiso   1.00
H634   H     0.90848   0.90005   0.64378   0.00000  Uiso   1.00
H635   H     0.24697   0.04308   0.72730   0.00000  Uiso   1.00
O636   O     0.22836   0.58361   0.68322   0.00000  Uiso   1.00
O637   O     0.83131   0.88579   0.71227   0.00000  Uiso   1.00
O638   O     0.27541   0.07344   0.82185   0.00000  Uiso   1.00
N639   N     0.18922   0.64693   0.73958   0.00000  Uiso   1.00
N640   N     0.90627   0.86225   0.76027   0.00000  Uiso   1.00
N641   N     0.22272   0.99598   0.83836   0.00000  Uiso   1.00
N642   N     0.20050   0.67205   0.65900   0.00000  Uiso   1.00
N643   N     0.91755   0.88737   0.67970   0.00000  Uiso   1.00
N644   N     0.23400   0.02110   0.75778   0.00000  Uiso   1.00
C645   C     0.60314   0.24813   0.47673   0.00000  Uiso   1.00
C646   C     0.62925   0.29351   0.50888   0.00000  Uiso   1.00
C647   C     0.64441   0.34538   0.49102   0.00000  Uiso   1.00
C648   C     0.66765   0.38102   0.52651   0.00000  Uiso   1.00
C649   C     0.70697   0.45388   0.56861   0.00000  Uiso   1.00
C650   C     0.55142   0.23384   0.50421   0.00000  Uiso   1.00
C651   C     0.50115   0.23553   0.48241   0.00000  Uiso   1.00
C652   C     0.45888   0.22092   0.51396   0.00000  Uiso   1.00
C653   C     0.37739   0.20111   0.54879   0.00000  Uiso   1.00
C654   C     0.63856   0.19721   0.48205   0.00000  Uiso   1.00
C655   C     0.66155   0.16808   0.44163   0.00000  Uiso   1.00
C656   C     0.69263   0.12263   0.45453   0.00000  Uiso   1.00
C657   C     0.74643   0.04594   0.45496   0.00000  Uiso   1.00
C658   C     0.61745   0.21918   0.57151   0.00000  Uiso   1.00
C659   C     0.63702   0.27779   0.56036   0.00000  Uiso   1.00
C660   C     0.66024   0.31335   0.59588   0.00000  Uiso   1.00
C661   C     0.67543   0.36527   0.57808   0.00000  Uiso   1.00
C662   C     0.55919   0.21812   0.55568   0.00000  Uiso   1.00
C663   C     0.51699   0.20350   0.58727   0.00000  Uiso   1.00
C664   C     0.46667   0.20517   0.56553   0.00000  Uiso   1.00
C665   C     0.64633   0.18148   0.53353   0.00000  Uiso   1.00
C666   C     0.67738   0.13606   0.54649   0.00000  Uiso   1.00
C667   C     0.70041   0.10688   0.50610   0.00000  Uiso   1.00
H668   H     0.59709   0.26037   0.43665   0.00000  Uiso   1.00
H669   H     0.63838   0.35753   0.45118   0.00000  Uiso   1.00
H670   H     0.49515   0.24769   0.44257   0.00000  Uiso   1.00
H671   H     0.65552   0.18026   0.40180   0.00000  Uiso   1.00
H672   H     0.68757   0.45833   0.49000   0.00000  Uiso   1.00
H673   H     0.38557   0.22671   0.47184   0.00000  Uiso   1.00
H674   H     0.72374   0.08452   0.38586   0.00000  Uiso   1.00
H675   H     0.62350   0.20694   0.61159   0.00000  Uiso   1.00
H676   H     0.66625   0.30118   0.63572   0.00000  Uiso   1.00
H677   H     0.52302   0.19133   0.62711   0.00000  Uiso   1.00
H678   H     0.68339   0.12391   0.58633   0.00000  Uiso   1.00
H679   H     0.71019   0.41259   0.63978   0.00000  Uiso   1.00
H680   H     0.40818   0.18096   0.62161   0.00000  Uiso   1.00
H681   H     0.74635   0.03878   0.53564   0.00000  Uiso   1.00
O682   O     0.72651   0.49842   0.57761   0.00000  Uiso   1.00
O683   O     0.33029   0.19453   0.55378   0.00000  Uiso   1.00
O684   O     0.77396   0.00799   0.44098   0.00000  Uiso   1.00
N685   N     0.68704   0.43463   0.52194   0.00000  Uiso   1.00
N686   N     0.40468   0.21808   0.50496   0.00000  Uiso   1.00
N687   N     0.72083   0.08514   0.42458   0.00000  Uiso   1.00
N688   N     0.69921   0.41002   0.60253   0.00000  Uiso   1.00
N689   N     0.41685   0.19347   0.58555   0.00000  Uiso   1.00
N690   N     0.73300   0.06053   0.50517   0.00000  Uiso   1.00
C691   C     0.60510   0.33283   0.28650   0.00000  Uiso   1.00
C692   C     0.63105   0.28774   0.25388   0.00000  Uiso   1.00
C693   C     0.64657   0.23583   0.27133   0.00000  Uiso   1.00
C694   C     0.66959   0.20049   0.23545   0.00000  Uiso   1.00
C695   C     0.70875   0.12802   0.19262   0.00000  Uiso   1.00
C696   C     0.55306   0.34707   0.25958   0.00000  Uiso   1.00
C697   C     0.50302   0.34506   0.28183   0.00000  Uiso   1.00
C698   C     0.46038   0.35967   0.25075   0.00000  Uiso   1.00
C699   C     0.37848   0.37937   0.21679   0.00000  Uiso   1.00
C700   C     0.64028   0.38392   0.28110   0.00000  Uiso   1.00
C701   C     0.66356   0.41290   0.32145   0.00000  Uiso   1.00
C702   C     0.69435   0.45855   0.30849   0.00000  Uiso   1.00
C703   C     0.74787   0.53546   0.30794   0.00000  Uiso   1.00
C704   C     0.61837   0.36237   0.19174   0.00000  Uiso   1.00
C705   C     0.63825   0.30379   0.20241   0.00000  Uiso   1.00
C706   C     0.66125   0.26852   0.16649   0.00000  Uiso   1.00
C707   C     0.67681   0.21656   0.18389   0.00000  Uiso   1.00
C708   C     0.56027   0.36312   0.20811   0.00000  Uiso   1.00
C709   C     0.51770   0.37775   0.17699   0.00000  Uiso   1.00
C710   C     0.46760   0.37575   0.19919   0.00000  Uiso   1.00
C711   C     0.64749   0.39997   0.22963   0.00000  Uiso   1.00
C712   C     0.67824   0.44559   0.21660   0.00000  Uiso   1.00
C713   C     0.70157   0.47463   0.25692   0.00000  Uiso   1.00
H714   H     0.59949   0.32034   0.32657   0.00000  Uiso   1.00
H715   H     0.64099   0.22342   0.31116   0.00000  Uiso   1.00
H716   H     0.49746   0.33264   0.32166   0.00000  Uiso   1.00
H717   H     0.65798   0.40047   0.36127   0.00000  Uiso   1.00
H718   H     0.69015   0.12304   0.27139   0.00000  Uiso   1.00
H719   H     0.38751   0.35336   0.29353   0.00000  Uiso   1.00
H720   H     0.72601   0.49639   0.37705   0.00000  Uiso   1.00
H721   H     0.62398   0.37487   0.15166   0.00000  Uiso   1.00
H722   H     0.66682   0.28095   0.12666   0.00000  Uiso   1.00
H723   H     0.52329   0.39017   0.13716   0.00000  Uiso   1.00
H724   H     0.68381   0.45799   0.17677   0.00000  Uiso   1.00
H725   H     0.71112   0.16973   0.12164   0.00000  Uiso   1.00
H726   H     0.40848   0.40005   0.14378   0.00000  Uiso   1.00
H727   H     0.74697   0.54308   0.22730   0.00000  Uiso   1.00
O728   O     0.72836   0.08361   0.18322   0.00000  Uiso   1.00
O729   O     0.33131   0.38579   0.21227   0.00000  Uiso   1.00
O730   O     0.77541   0.57344   0.32185   0.00000  Uiso   1.00
N731   N     0.68922   0.14693   0.23958   0.00000  Uiso   1.00
N732   N     0.40627   0.36225   0.26027   0.00000  Uiso   1.00
N733   N     0.72272   0.49598   0.33836   0.00000  Uiso   1.00
N734   N     0.70050   0.17205   0.15900   0.00000  Uiso   1.00
N735   N     0.41755   0.38737   0.17970   0.00000  Uiso   1.00
N736   N     0.73400   0.52110   0.25778   0.00000  Uiso   1.00
