data_job_03353
_audit_creation_date              2018-12-19
_audit_creation_method            'Materials Studio'
_symmetry_space_group_name_H-M    'P1'
_symmetry_Int_Tables_number       1
_symmetry_cell_setting            triclinic
loop_
_symmetry_equiv_pos_as_xyz
  x,y,z
_cell_length_a                    18.7124
_cell_length_b                    18.7124
_cell_length_c                    28.3615
_cell_angle_alpha                 90.0000
_cell_angle_beta                  90.0000
_cell_angle_gamma                 90.0000
loop_
_atom_site_label
_atom_site_type_symbol
_atom_site_fract_x
_atom_site_fract_y
_atom_site_fract_z
_atom_site_U_iso_or_equiv
_atom_site_adp_type
_atom_site_occupancy
C1     C     0.37403   0.37690   0.73244   0.00000  Uiso   1.00
C2     C     0.36066   0.43490   0.76916   0.00000  Uiso   1.00
C3     C     0.41032   0.46029   0.80142   0.00000  Uiso   1.00
C4     C     0.38765   0.51349   0.83208   0.00000  Uiso   1.00
C5     C     0.37751   0.59945   0.88936   0.00000  Uiso   1.00
C6     C     0.31779   0.31946   0.74127   0.00000  Uiso   1.00
C7     C     0.33140   0.24779   0.75007   0.00000  Uiso   1.00
C8     C     0.27263   0.20382   0.75726   0.00000  Uiso   1.00
C9     C     0.19592   0.11055   0.77120   0.00000  Uiso   1.00
C10    C     0.35553   0.41015   0.68489   0.00000  Uiso   1.00
C11    C     0.40086   0.41470   0.64628   0.00000  Uiso   1.00
C12    C     0.37386   0.44707   0.60599   0.00000  Uiso   1.00
C13    C     0.35575   0.49460   0.53240   0.00000  Uiso   1.00
C14    C     0.24546   0.42626   0.72953   0.00000  Uiso   1.00
C15    C     0.29083   0.46171   0.76758   0.00000  Uiso   1.00
C16    C     0.26808   0.51489   0.79821   0.00000  Uiso   1.00
C17    C     0.31769   0.54035   0.83050   0.00000  Uiso   1.00
C18    C     0.24796   0.34627   0.73970   0.00000  Uiso   1.00
C19    C     0.18916   0.30239   0.74686   0.00000  Uiso   1.00
C20    C     0.20267   0.23067   0.75568   0.00000  Uiso   1.00
C21    C     0.28570   0.43696   0.68331   0.00000  Uiso   1.00
C22    C     0.25862   0.46932   0.64307   0.00000  Uiso   1.00
C23    C     0.30390   0.47392   0.60441   0.00000  Uiso   1.00
H24    H     0.42839   0.35602   0.73366   0.00000  Uiso   1.00
H25    H     0.46436   0.43952   0.80263   0.00000  Uiso   1.00
H26    H     0.38545   0.22705   0.75129   0.00000  Uiso   1.00
H27    H     0.45490   0.39395   0.64751   0.00000  Uiso   1.00
H28    H     0.47342   0.54390   0.87840   0.00000  Uiso   1.00
H29    H     0.30703   0.09590   0.77013   0.00000  Uiso   1.00
H30    H     0.45349   0.44782   0.55131   0.00000  Uiso   1.00
H31    H     0.19109   0.44713   0.72831   0.00000  Uiso   1.00
H32    H     0.21403   0.53563   0.79698   0.00000  Uiso   1.00
H33    H     0.13512   0.32316   0.74564   0.00000  Uiso   1.00
H34    H     0.20458   0.49006   0.64187   0.00000  Uiso   1.00
H35    H     0.27025   0.62190   0.87382   0.00000  Uiso   1.00
H36    H     0.10386   0.17390   0.76555   0.00000  Uiso   1.00
H37    H     0.25032   0.52583   0.54672   0.00000  Uiso   1.00
O38    O     0.39120   0.63946   0.92139   0.00000  Uiso   1.00
O39    O     0.17291   0.05170   0.77934   0.00000  Uiso   1.00
O40    O     0.36506   0.51342   0.49224   0.00000  Uiso   1.00
N41    N     0.42246   0.55012   0.86789   0.00000  Uiso   1.00
N42    N     0.26690   0.13127   0.76668   0.00000  Uiso   1.00
N43    N     0.40382   0.46027   0.56209   0.00000  Uiso   1.00
N44    N     0.31313   0.59209   0.86543   0.00000  Uiso   1.00
N45    N     0.15757   0.17324   0.76421   0.00000  Uiso   1.00
N46    N     0.29449   0.50225   0.55962   0.00000  Uiso   1.00
C47    C     0.87403   0.87690   0.23244   0.00000  Uiso   1.00
C48    C     0.86066   0.93490   0.26916   0.00000  Uiso   1.00
C49    C     0.91032   0.96029   0.30142   0.00000  Uiso   1.00
C50    C     0.88765   0.01349   0.33208   0.00000  Uiso   1.00
C51    C     0.87751   0.09945   0.38936   0.00000  Uiso   1.00
C52    C     0.81779   0.81946   0.24127   0.00000  Uiso   1.00
C53    C     0.83140   0.74779   0.25007   0.00000  Uiso   1.00
C54    C     0.77263   0.70382   0.25726   0.00000  Uiso   1.00
C55    C     0.69592   0.61055   0.27120   0.00000  Uiso   1.00
C56    C     0.85553   0.91015   0.18489   0.00000  Uiso   1.00
C57    C     0.90086   0.91470   0.14628   0.00000  Uiso   1.00
C58    C     0.87386   0.94707   0.10599   0.00000  Uiso   1.00
C59    C     0.85575   0.99460   0.03240   0.00000  Uiso   1.00
C60    C     0.74546   0.92626   0.22953   0.00000  Uiso   1.00
C61    C     0.79083   0.96171   0.26758   0.00000  Uiso   1.00
C62    C     0.76808   0.01489   0.29821   0.00000  Uiso   1.00
C63    C     0.81769   0.04035   0.33050   0.00000  Uiso   1.00
C64    C     0.74796   0.84627   0.23970   0.00000  Uiso   1.00
C65    C     0.68916   0.80239   0.24686   0.00000  Uiso   1.00
C66    C     0.70267   0.73067   0.25568   0.00000  Uiso   1.00
C67    C     0.78570   0.93696   0.18331   0.00000  Uiso   1.00
C68    C     0.75862   0.96932   0.14307   0.00000  Uiso   1.00
C69    C     0.80390   0.97392   0.10441   0.00000  Uiso   1.00
H70    H     0.92839   0.85602   0.23366   0.00000  Uiso   1.00
H71    H     0.96436   0.93952   0.30263   0.00000  Uiso   1.00
H72    H     0.88545   0.72705   0.25129   0.00000  Uiso   1.00
H73    H     0.95490   0.89395   0.14751   0.00000  Uiso   1.00
H74    H     0.97342   0.04390   0.37840   0.00000  Uiso   1.00
H75    H     0.80703   0.59590   0.27013   0.00000  Uiso   1.00
H76    H     0.95349   0.94782   0.05131   0.00000  Uiso   1.00
H77    H     0.69109   0.94713   0.22831   0.00000  Uiso   1.00
H78    H     0.71403   0.03563   0.29698   0.00000  Uiso   1.00
H79    H     0.63512   0.82316   0.24564   0.00000  Uiso   1.00
H80    H     0.70458   0.99006   0.14187   0.00000  Uiso   1.00
H81    H     0.77025   0.12190   0.37382   0.00000  Uiso   1.00
H82    H     0.60386   0.67390   0.26555   0.00000  Uiso   1.00
H83    H     0.75032   0.02583   0.04672   0.00000  Uiso   1.00
O84    O     0.89120   0.13946   0.42139   0.00000  Uiso   1.00
O85    O     0.67291   0.55170   0.27934   0.00000  Uiso   1.00
O86    O     0.86506   0.01342   0.99224   0.00000  Uiso   1.00
N87    N     0.92246   0.05012   0.36789   0.00000  Uiso   1.00
N88    N     0.76690   0.63127   0.26668   0.00000  Uiso   1.00
N89    N     0.90382   0.96027   0.06209   0.00000  Uiso   1.00
N90    N     0.81313   0.09209   0.36543   0.00000  Uiso   1.00
N91    N     0.65757   0.67324   0.26421   0.00000  Uiso   1.00
N92    N     0.79449   0.00225   0.05962   0.00000  Uiso   1.00
C93    C     0.12597   0.12310   0.23244   0.00000  Uiso   1.00
C94    C     0.13934   0.06510   0.26916   0.00000  Uiso   1.00
C95    C     0.08968   0.03971   0.30142   0.00000  Uiso   1.00
C96    C     0.11235   0.98651   0.33208   0.00000  Uiso   1.00
C97    C     0.12249   0.90055   0.38936   0.00000  Uiso   1.00
C98    C     0.18221   0.18054   0.24127   0.00000  Uiso   1.00
C99    C     0.16860   0.25221   0.25007   0.00000  Uiso   1.00
C100   C     0.22737   0.29618   0.25726   0.00000  Uiso   1.00
C101   C     0.30408   0.38945   0.27120   0.00000  Uiso   1.00
C102   C     0.14447   0.08985   0.18489   0.00000  Uiso   1.00
C103   C     0.09914   0.08530   0.14628   0.00000  Uiso   1.00
C104   C     0.12614   0.05293   0.10599   0.00000  Uiso   1.00
C105   C     0.14425   0.00540   0.03240   0.00000  Uiso   1.00
C106   C     0.25454   0.07374   0.22953   0.00000  Uiso   1.00
C107   C     0.20917   0.03829   0.26758   0.00000  Uiso   1.00
C108   C     0.23192   0.98511   0.29821   0.00000  Uiso   1.00
C109   C     0.18231   0.95965   0.33050   0.00000  Uiso   1.00
C110   C     0.25204   0.15373   0.23970   0.00000  Uiso   1.00
C111   C     0.31084   0.19761   0.24686   0.00000  Uiso   1.00
C112   C     0.29733   0.26933   0.25568   0.00000  Uiso   1.00
C113   C     0.21430   0.06304   0.18331   0.00000  Uiso   1.00
C114   C     0.24138   0.03068   0.14307   0.00000  Uiso   1.00
C115   C     0.19610   0.02608   0.10441   0.00000  Uiso   1.00
H116   H     0.07161   0.14398   0.23366   0.00000  Uiso   1.00
H117   H     0.03564   0.06048   0.30263   0.00000  Uiso   1.00
H118   H     0.11455   0.27295   0.25129   0.00000  Uiso   1.00
H119   H     0.04510   0.10605   0.14751   0.00000  Uiso   1.00
H120   H     0.02658   0.95610   0.37840   0.00000  Uiso   1.00
H121   H     0.19297   0.40410   0.27013   0.00000  Uiso   1.00
H122   H     0.04651   0.05218   0.05131   0.00000  Uiso   1.00
H123   H     0.30891   0.05287   0.22831   0.00000  Uiso   1.00
H124   H     0.28597   0.96437   0.29698   0.00000  Uiso   1.00
H125   H     0.36488   0.17684   0.24564   0.00000  Uiso   1.00
H126   H     0.29542   0.00994   0.14187   0.00000  Uiso   1.00
H127   H     0.22975   0.87810   0.37382   0.00000  Uiso   1.00
H128   H     0.39614   0.32610   0.26555   0.00000  Uiso   1.00
H129   H     0.24968   0.97417   0.04672   0.00000  Uiso   1.00
O130   O     0.10880   0.86054   0.42139   0.00000  Uiso   1.00
O131   O     0.32709   0.44830   0.27934   0.00000  Uiso   1.00
O132   O     0.13494   0.98658   0.99224   0.00000  Uiso   1.00
N133   N     0.07754   0.94988   0.36789   0.00000  Uiso   1.00
N134   N     0.23310   0.36873   0.26668   0.00000  Uiso   1.00
N135   N     0.09618   0.03973   0.06209   0.00000  Uiso   1.00
N136   N     0.18687   0.90791   0.36543   0.00000  Uiso   1.00
N137   N     0.34243   0.32676   0.26421   0.00000  Uiso   1.00
N138   N     0.20551   0.99775   0.05962   0.00000  Uiso   1.00
C139   C     0.62597   0.62310   0.73244   0.00000  Uiso   1.00
C140   C     0.63934   0.56510   0.76916   0.00000  Uiso   1.00
C141   C     0.58968   0.53971   0.80142   0.00000  Uiso   1.00
C142   C     0.61235   0.48651   0.83208   0.00000  Uiso   1.00
C143   C     0.62249   0.40055   0.88936   0.00000  Uiso   1.00
C144   C     0.68221   0.68054   0.74127   0.00000  Uiso   1.00
C145   C     0.66860   0.75221   0.75007   0.00000  Uiso   1.00
C146   C     0.72737   0.79618   0.75726   0.00000  Uiso   1.00
C147   C     0.80408   0.88945   0.77120   0.00000  Uiso   1.00
C148   C     0.64447   0.58985   0.68489   0.00000  Uiso   1.00
C149   C     0.59914   0.58530   0.64628   0.00000  Uiso   1.00
C150   C     0.62614   0.55293   0.60599   0.00000  Uiso   1.00
C151   C     0.64425   0.50540   0.53240   0.00000  Uiso   1.00
C152   C     0.75454   0.57374   0.72953   0.00000  Uiso   1.00
C153   C     0.70917   0.53829   0.76758   0.00000  Uiso   1.00
C154   C     0.73192   0.48511   0.79821   0.00000  Uiso   1.00
C155   C     0.68231   0.45965   0.83050   0.00000  Uiso   1.00
C156   C     0.75204   0.65373   0.73970   0.00000  Uiso   1.00
C157   C     0.81084   0.69761   0.74686   0.00000  Uiso   1.00
C158   C     0.79733   0.76933   0.75568   0.00000  Uiso   1.00
C159   C     0.71430   0.56304   0.68331   0.00000  Uiso   1.00
C160   C     0.74138   0.53068   0.64307   0.00000  Uiso   1.00
C161   C     0.69610   0.52608   0.60441   0.00000  Uiso   1.00
H162   H     0.57161   0.64398   0.73366   0.00000  Uiso   1.00
H163   H     0.53564   0.56048   0.80263   0.00000  Uiso   1.00
H164   H     0.61455   0.77295   0.75129   0.00000  Uiso   1.00
H165   H     0.54510   0.60605   0.64751   0.00000  Uiso   1.00
H166   H     0.52658   0.45610   0.87840   0.00000  Uiso   1.00
H167   H     0.69297   0.90410   0.77013   0.00000  Uiso   1.00
H168   H     0.54651   0.55218   0.55131   0.00000  Uiso   1.00
H169   H     0.80891   0.55287   0.72831   0.00000  Uiso   1.00
H170   H     0.78597   0.46437   0.79698   0.00000  Uiso   1.00
H171   H     0.86488   0.67684   0.74564   0.00000  Uiso   1.00
H172   H     0.79542   0.50994   0.64187   0.00000  Uiso   1.00
H173   H     0.72975   0.37810   0.87382   0.00000  Uiso   1.00
H174   H     0.89614   0.82610   0.76555   0.00000  Uiso   1.00
H175   H     0.74968   0.47417   0.54672   0.00000  Uiso   1.00
O176   O     0.60880   0.36054   0.92139   0.00000  Uiso   1.00
O177   O     0.82709   0.94830   0.77934   0.00000  Uiso   1.00
O178   O     0.63494   0.48658   0.49224   0.00000  Uiso   1.00
N179   N     0.57754   0.44988   0.86789   0.00000  Uiso   1.00
N180   N     0.73310   0.86873   0.76668   0.00000  Uiso   1.00
N181   N     0.59618   0.53973   0.56209   0.00000  Uiso   1.00
N182   N     0.68687   0.40791   0.86543   0.00000  Uiso   1.00
N183   N     0.84243   0.82676   0.76421   0.00000  Uiso   1.00
N184   N     0.70551   0.49775   0.55962   0.00000  Uiso   1.00
C185   C     0.62310   0.87403   0.98244   0.00000  Uiso   1.00
C186   C     0.56510   0.86066   0.01916   0.00000  Uiso   1.00
C187   C     0.53971   0.91032   0.05142   0.00000  Uiso   1.00
C188   C     0.48651   0.88765   0.08208   0.00000  Uiso   1.00
C189   C     0.40055   0.87751   0.13936   0.00000  Uiso   1.00
C190   C     0.68054   0.81779   0.99127   0.00000  Uiso   1.00
C191   C     0.75221   0.83140   0.00007   0.00000  Uiso   1.00
C192   C     0.79618   0.77263   0.00726   0.00000  Uiso   1.00
C193   C     0.88945   0.69592   0.02120   0.00000  Uiso   1.00
C194   C     0.58985   0.85553   0.93489   0.00000  Uiso   1.00
C195   C     0.58530   0.90086   0.89628   0.00000  Uiso   1.00
C196   C     0.55293   0.87386   0.85599   0.00000  Uiso   1.00
C197   C     0.50540   0.85575   0.78240   0.00000  Uiso   1.00
C198   C     0.57374   0.74546   0.97953   0.00000  Uiso   1.00
C199   C     0.53829   0.79083   0.01758   0.00000  Uiso   1.00
C200   C     0.48511   0.76808   0.04821   0.00000  Uiso   1.00
C201   C     0.45965   0.81769   0.08050   0.00000  Uiso   1.00
C202   C     0.65373   0.74796   0.98970   0.00000  Uiso   1.00
C203   C     0.69761   0.68916   0.99686   0.00000  Uiso   1.00
C204   C     0.76933   0.70267   0.00568   0.00000  Uiso   1.00
C205   C     0.56304   0.78570   0.93331   0.00000  Uiso   1.00
C206   C     0.53068   0.75862   0.89307   0.00000  Uiso   1.00
C207   C     0.52608   0.80390   0.85441   0.00000  Uiso   1.00
H208   H     0.64398   0.92839   0.98366   0.00000  Uiso   1.00
H209   H     0.56048   0.96436   0.05263   0.00000  Uiso   1.00
H210   H     0.77295   0.88545   0.00129   0.00000  Uiso   1.00
H211   H     0.60605   0.95490   0.89751   0.00000  Uiso   1.00
H212   H     0.45610   0.97342   0.12840   0.00000  Uiso   1.00
H213   H     0.90410   0.80703   0.02013   0.00000  Uiso   1.00
H214   H     0.55218   0.95349   0.80131   0.00000  Uiso   1.00
H215   H     0.55287   0.69109   0.97831   0.00000  Uiso   1.00
H216   H     0.46437   0.71403   0.04698   0.00000  Uiso   1.00
H217   H     0.67684   0.63512   0.99564   0.00000  Uiso   1.00
H218   H     0.50994   0.70458   0.89187   0.00000  Uiso   1.00
H219   H     0.37810   0.77025   0.12382   0.00000  Uiso   1.00
H220   H     0.82610   0.60386   0.01555   0.00000  Uiso   1.00
H221   H     0.47417   0.75032   0.79672   0.00000  Uiso   1.00
O222   O     0.36054   0.89120   0.17139   0.00000  Uiso   1.00
O223   O     0.94830   0.67291   0.02934   0.00000  Uiso   1.00
O224   O     0.48658   0.86506   0.74224   0.00000  Uiso   1.00
N225   N     0.44988   0.92246   0.11789   0.00000  Uiso   1.00
N226   N     0.86873   0.76690   0.01668   0.00000  Uiso   1.00
N227   N     0.53973   0.90382   0.81209   0.00000  Uiso   1.00
N228   N     0.40791   0.81313   0.11543   0.00000  Uiso   1.00
N229   N     0.82676   0.65757   0.01421   0.00000  Uiso   1.00
N230   N     0.49775   0.79449   0.80962   0.00000  Uiso   1.00
C231   C     0.12310   0.37403   0.48244   0.00000  Uiso   1.00
C232   C     0.06510   0.36066   0.51916   0.00000  Uiso   1.00
C233   C     0.03971   0.41032   0.55142   0.00000  Uiso   1.00
C234   C     0.98651   0.38765   0.58208   0.00000  Uiso   1.00
C235   C     0.90055   0.37751   0.63936   0.00000  Uiso   1.00
C236   C     0.18054   0.31779   0.49127   0.00000  Uiso   1.00
C237   C     0.25221   0.33140   0.50007   0.00000  Uiso   1.00
C238   C     0.29618   0.27263   0.50726   0.00000  Uiso   1.00
C239   C     0.38945   0.19592   0.52120   0.00000  Uiso   1.00
C240   C     0.08985   0.35553   0.43489   0.00000  Uiso   1.00
C241   C     0.08530   0.40086   0.39628   0.00000  Uiso   1.00
C242   C     0.05293   0.37386   0.35599   0.00000  Uiso   1.00
C243   C     0.00540   0.35575   0.28240   0.00000  Uiso   1.00
C244   C     0.07374   0.24546   0.47953   0.00000  Uiso   1.00
C245   C     0.03829   0.29083   0.51758   0.00000  Uiso   1.00
C246   C     0.98511   0.26808   0.54821   0.00000  Uiso   1.00
C247   C     0.95965   0.31769   0.58050   0.00000  Uiso   1.00
C248   C     0.15373   0.24796   0.48970   0.00000  Uiso   1.00
C249   C     0.19761   0.18916   0.49686   0.00000  Uiso   1.00
C250   C     0.26933   0.20267   0.50568   0.00000  Uiso   1.00
C251   C     0.06304   0.28570   0.43331   0.00000  Uiso   1.00
C252   C     0.03068   0.25862   0.39307   0.00000  Uiso   1.00
C253   C     0.02608   0.30390   0.35441   0.00000  Uiso   1.00
H254   H     0.14398   0.42839   0.48366   0.00000  Uiso   1.00
H255   H     0.06048   0.46436   0.55263   0.00000  Uiso   1.00
H256   H     0.27295   0.38545   0.50129   0.00000  Uiso   1.00
H257   H     0.10605   0.45490   0.39751   0.00000  Uiso   1.00
H258   H     0.95610   0.47342   0.62840   0.00000  Uiso   1.00
H259   H     0.40410   0.30703   0.52013   0.00000  Uiso   1.00
H260   H     0.05218   0.45349   0.30131   0.00000  Uiso   1.00
H261   H     0.05287   0.19109   0.47831   0.00000  Uiso   1.00
H262   H     0.96437   0.21403   0.54698   0.00000  Uiso   1.00
H263   H     0.17684   0.13512   0.49564   0.00000  Uiso   1.00
H264   H     0.00994   0.20458   0.39187   0.00000  Uiso   1.00
H265   H     0.87810   0.27025   0.62382   0.00000  Uiso   1.00
H266   H     0.32610   0.10386   0.51555   0.00000  Uiso   1.00
H267   H     0.97417   0.25032   0.29672   0.00000  Uiso   1.00
O268   O     0.86054   0.39120   0.67139   0.00000  Uiso   1.00
O269   O     0.44830   0.17291   0.52934   0.00000  Uiso   1.00
O270   O     0.98658   0.36506   0.24224   0.00000  Uiso   1.00
N271   N     0.94988   0.42246   0.61789   0.00000  Uiso   1.00
N272   N     0.36873   0.26690   0.51668   0.00000  Uiso   1.00
N273   N     0.03973   0.40382   0.31209   0.00000  Uiso   1.00
N274   N     0.90791   0.31313   0.61543   0.00000  Uiso   1.00
N275   N     0.32676   0.15757   0.51421   0.00000  Uiso   1.00
N276   N     0.99775   0.29449   0.30962   0.00000  Uiso   1.00
C277   C     0.87690   0.62597   0.48244   0.00000  Uiso   1.00
C278   C     0.93490   0.63934   0.51916   0.00000  Uiso   1.00
C279   C     0.96029   0.58968   0.55142   0.00000  Uiso   1.00
C280   C     0.01349   0.61235   0.58208   0.00000  Uiso   1.00
C281   C     0.09945   0.62249   0.63936   0.00000  Uiso   1.00
C282   C     0.81946   0.68221   0.49127   0.00000  Uiso   1.00
C283   C     0.74779   0.66860   0.50007   0.00000  Uiso   1.00
C284   C     0.70382   0.72737   0.50726   0.00000  Uiso   1.00
C285   C     0.61055   0.80408   0.52120   0.00000  Uiso   1.00
C286   C     0.91015   0.64447   0.43489   0.00000  Uiso   1.00
C287   C     0.91470   0.59914   0.39628   0.00000  Uiso   1.00
C288   C     0.94707   0.62614   0.35599   0.00000  Uiso   1.00
C289   C     0.99460   0.64425   0.28240   0.00000  Uiso   1.00
C290   C     0.92626   0.75454   0.47953   0.00000  Uiso   1.00
C291   C     0.96171   0.70917   0.51758   0.00000  Uiso   1.00
C292   C     0.01489   0.73192   0.54821   0.00000  Uiso   1.00
C293   C     0.04035   0.68231   0.58050   0.00000  Uiso   1.00
C294   C     0.84627   0.75204   0.48970   0.00000  Uiso   1.00
C295   C     0.80239   0.81084   0.49686   0.00000  Uiso   1.00
C296   C     0.73067   0.79733   0.50568   0.00000  Uiso   1.00
C297   C     0.93696   0.71430   0.43331   0.00000  Uiso   1.00
C298   C     0.96932   0.74138   0.39307   0.00000  Uiso   1.00
C299   C     0.97392   0.69610   0.35441   0.00000  Uiso   1.00
H300   H     0.85602   0.57161   0.48366   0.00000  Uiso   1.00
H301   H     0.93952   0.53564   0.55263   0.00000  Uiso   1.00
H302   H     0.72705   0.61455   0.50129   0.00000  Uiso   1.00
H303   H     0.89395   0.54510   0.39751   0.00000  Uiso   1.00
H304   H     0.04390   0.52658   0.62840   0.00000  Uiso   1.00
H305   H     0.59590   0.69297   0.52013   0.00000  Uiso   1.00
H306   H     0.94782   0.54651   0.30131   0.00000  Uiso   1.00
H307   H     0.94713   0.80891   0.47831   0.00000  Uiso   1.00
H308   H     0.03563   0.78597   0.54698   0.00000  Uiso   1.00
H309   H     0.82316   0.86488   0.49564   0.00000  Uiso   1.00
H310   H     0.99006   0.79542   0.39187   0.00000  Uiso   1.00
H311   H     0.12190   0.72975   0.62382   0.00000  Uiso   1.00
H312   H     0.67390   0.89614   0.51555   0.00000  Uiso   1.00
H313   H     0.02583   0.74968   0.29672   0.00000  Uiso   1.00
O314   O     0.13946   0.60880   0.67139   0.00000  Uiso   1.00
O315   O     0.55170   0.82709   0.52934   0.00000  Uiso   1.00
O316   O     0.01342   0.63494   0.24224   0.00000  Uiso   1.00
N317   N     0.05012   0.57754   0.61789   0.00000  Uiso   1.00
N318   N     0.63127   0.73310   0.51668   0.00000  Uiso   1.00
N319   N     0.96027   0.59618   0.31209   0.00000  Uiso   1.00
N320   N     0.09209   0.68687   0.61543   0.00000  Uiso   1.00
N321   N     0.67324   0.84243   0.51421   0.00000  Uiso   1.00
N322   N     0.00225   0.70551   0.30962   0.00000  Uiso   1.00
C323   C     0.37690   0.12597   0.98244   0.00000  Uiso   1.00
C324   C     0.43490   0.13934   0.01916   0.00000  Uiso   1.00
C325   C     0.46029   0.08968   0.05142   0.00000  Uiso   1.00
C326   C     0.51349   0.11235   0.08208   0.00000  Uiso   1.00
C327   C     0.59945   0.12249   0.13936   0.00000  Uiso   1.00
C328   C     0.31946   0.18221   0.99127   0.00000  Uiso   1.00
C329   C     0.24779   0.16860   0.00007   0.00000  Uiso   1.00
C330   C     0.20382   0.22737   0.00726   0.00000  Uiso   1.00
C331   C     0.11055   0.30408   0.02120   0.00000  Uiso   1.00
C332   C     0.41015   0.14447   0.93489   0.00000  Uiso   1.00
C333   C     0.41470   0.09914   0.89628   0.00000  Uiso   1.00
C334   C     0.44707   0.12614   0.85599   0.00000  Uiso   1.00
C335   C     0.49460   0.14425   0.78240   0.00000  Uiso   1.00
C336   C     0.42626   0.25454   0.97953   0.00000  Uiso   1.00
C337   C     0.46171   0.20917   0.01758   0.00000  Uiso   1.00
C338   C     0.51489   0.23192   0.04821   0.00000  Uiso   1.00
C339   C     0.54035   0.18231   0.08050   0.00000  Uiso   1.00
C340   C     0.34627   0.25204   0.98970   0.00000  Uiso   1.00
C341   C     0.30239   0.31084   0.99686   0.00000  Uiso   1.00
C342   C     0.23067   0.29733   0.00568   0.00000  Uiso   1.00
C343   C     0.43696   0.21430   0.93331   0.00000  Uiso   1.00
C344   C     0.46932   0.24138   0.89307   0.00000  Uiso   1.00
C345   C     0.47392   0.19610   0.85441   0.00000  Uiso   1.00
H346   H     0.35602   0.07161   0.98366   0.00000  Uiso   1.00
H347   H     0.43952   0.03564   0.05263   0.00000  Uiso   1.00
H348   H     0.22705   0.11455   0.00129   0.00000  Uiso   1.00
H349   H     0.39395   0.04510   0.89751   0.00000  Uiso   1.00
H350   H     0.54390   0.02658   0.12840   0.00000  Uiso   1.00
H351   H     0.09590   0.19297   0.02013   0.00000  Uiso   1.00
H352   H     0.44782   0.04651   0.80131   0.00000  Uiso   1.00
H353   H     0.44713   0.30891   0.97831   0.00000  Uiso   1.00
H354   H     0.53563   0.28597   0.04698   0.00000  Uiso   1.00
H355   H     0.32316   0.36488   0.99564   0.00000  Uiso   1.00
H356   H     0.49006   0.29542   0.89187   0.00000  Uiso   1.00
H357   H     0.62190   0.22975   0.12382   0.00000  Uiso   1.00
H358   H     0.17390   0.39614   0.01555   0.00000  Uiso   1.00
H359   H     0.52583   0.24968   0.79672   0.00000  Uiso   1.00
O360   O     0.63946   0.10880   0.17139   0.00000  Uiso   1.00
O361   O     0.05170   0.32709   0.02934   0.00000  Uiso   1.00
O362   O     0.51342   0.13494   0.74224   0.00000  Uiso   1.00
N363   N     0.55012   0.07754   0.11789   0.00000  Uiso   1.00
N364   N     0.13127   0.23310   0.01668   0.00000  Uiso   1.00
N365   N     0.46027   0.09618   0.81209   0.00000  Uiso   1.00
N366   N     0.59209   0.18687   0.11543   0.00000  Uiso   1.00
N367   N     0.17324   0.34243   0.01421   0.00000  Uiso   1.00
N368   N     0.50225   0.20551   0.80962   0.00000  Uiso   1.00
C369   C     0.62597   0.12310   0.51756   0.00000  Uiso   1.00
C370   C     0.63934   0.06510   0.48084   0.00000  Uiso   1.00
C371   C     0.58968   0.03971   0.44858   0.00000  Uiso   1.00
C372   C     0.61235   0.98651   0.41792   0.00000  Uiso   1.00
C373   C     0.62249   0.90055   0.36064   0.00000  Uiso   1.00
C374   C     0.68221   0.18054   0.50873   0.00000  Uiso   1.00
C375   C     0.66860   0.25221   0.49993   0.00000  Uiso   1.00
C376   C     0.72737   0.29618   0.49274   0.00000  Uiso   1.00
C377   C     0.80408   0.38945   0.47880   0.00000  Uiso   1.00
C378   C     0.64447   0.08985   0.56511   0.00000  Uiso   1.00
C379   C     0.59914   0.08530   0.60372   0.00000  Uiso   1.00
C380   C     0.62614   0.05293   0.64401   0.00000  Uiso   1.00
C381   C     0.64425   0.00540   0.71760   0.00000  Uiso   1.00
C382   C     0.75454   0.07374   0.52047   0.00000  Uiso   1.00
C383   C     0.70917   0.03829   0.48242   0.00000  Uiso   1.00
C384   C     0.73192   0.98511   0.45179   0.00000  Uiso   1.00
C385   C     0.68231   0.95965   0.41950   0.00000  Uiso   1.00
C386   C     0.75204   0.15373   0.51030   0.00000  Uiso   1.00
C387   C     0.81084   0.19761   0.50314   0.00000  Uiso   1.00
C388   C     0.79733   0.26933   0.49432   0.00000  Uiso   1.00
C389   C     0.71430   0.06304   0.56669   0.00000  Uiso   1.00
C390   C     0.74138   0.03068   0.60693   0.00000  Uiso   1.00
C391   C     0.69610   0.02608   0.64559   0.00000  Uiso   1.00
H392   H     0.57161   0.14398   0.51634   0.00000  Uiso   1.00
H393   H     0.53564   0.06048   0.44737   0.00000  Uiso   1.00
H394   H     0.61455   0.27295   0.49871   0.00000  Uiso   1.00
H395   H     0.54510   0.10605   0.60249   0.00000  Uiso   1.00
H396   H     0.52658   0.95610   0.37160   0.00000  Uiso   1.00
H397   H     0.69297   0.40410   0.47987   0.00000  Uiso   1.00
H398   H     0.54651   0.05218   0.69869   0.00000  Uiso   1.00
H399   H     0.80891   0.05287   0.52169   0.00000  Uiso   1.00
H400   H     0.78597   0.96437   0.45302   0.00000  Uiso   1.00
H401   H     0.86488   0.17684   0.50436   0.00000  Uiso   1.00
H402   H     0.79542   0.00994   0.60813   0.00000  Uiso   1.00
H403   H     0.72975   0.87810   0.37618   0.00000  Uiso   1.00
H404   H     0.89614   0.32610   0.48445   0.00000  Uiso   1.00
H405   H     0.74968   0.97417   0.70328   0.00000  Uiso   1.00
O406   O     0.60880   0.86054   0.32861   0.00000  Uiso   1.00
O407   O     0.82709   0.44830   0.47066   0.00000  Uiso   1.00
O408   O     0.63494   0.98658   0.75776   0.00000  Uiso   1.00
N409   N     0.57754   0.94988   0.38211   0.00000  Uiso   1.00
N410   N     0.73310   0.36873   0.48332   0.00000  Uiso   1.00
N411   N     0.59618   0.03973   0.68791   0.00000  Uiso   1.00
N412   N     0.68687   0.90791   0.38457   0.00000  Uiso   1.00
N413   N     0.84243   0.32676   0.48579   0.00000  Uiso   1.00
N414   N     0.70551   0.99775   0.69038   0.00000  Uiso   1.00
C415   C     0.12597   0.62310   0.01756   0.00000  Uiso   1.00
C416   C     0.13934   0.56510   0.98084   0.00000  Uiso   1.00
C417   C     0.08968   0.53971   0.94858   0.00000  Uiso   1.00
C418   C     0.11235   0.48651   0.91792   0.00000  Uiso   1.00
C419   C     0.12249   0.40055   0.86064   0.00000  Uiso   1.00
C420   C     0.18221   0.68054   0.00873   0.00000  Uiso   1.00
C421   C     0.16860   0.75221   0.99993   0.00000  Uiso   1.00
C422   C     0.22737   0.79618   0.99274   0.00000  Uiso   1.00
C423   C     0.30408   0.88945   0.97880   0.00000  Uiso   1.00
C424   C     0.14447   0.58985   0.06511   0.00000  Uiso   1.00
C425   C     0.09914   0.58530   0.10372   0.00000  Uiso   1.00
C426   C     0.12614   0.55293   0.14401   0.00000  Uiso   1.00
C427   C     0.14425   0.50540   0.21760   0.00000  Uiso   1.00
C428   C     0.25454   0.57374   0.02047   0.00000  Uiso   1.00
C429   C     0.20917   0.53829   0.98242   0.00000  Uiso   1.00
C430   C     0.23192   0.48511   0.95179   0.00000  Uiso   1.00
C431   C     0.18231   0.45965   0.91950   0.00000  Uiso   1.00
C432   C     0.25204   0.65373   0.01030   0.00000  Uiso   1.00
C433   C     0.31084   0.69761   0.00314   0.00000  Uiso   1.00
C434   C     0.29733   0.76933   0.99432   0.00000  Uiso   1.00
C435   C     0.21430   0.56304   0.06669   0.00000  Uiso   1.00
C436   C     0.24138   0.53068   0.10693   0.00000  Uiso   1.00
C437   C     0.19610   0.52608   0.14559   0.00000  Uiso   1.00
H438   H     0.07161   0.64398   0.01634   0.00000  Uiso   1.00
H439   H     0.03564   0.56048   0.94737   0.00000  Uiso   1.00
H440   H     0.11455   0.77295   0.99871   0.00000  Uiso   1.00
H441   H     0.04510   0.60605   0.10249   0.00000  Uiso   1.00
H442   H     0.02658   0.45610   0.87160   0.00000  Uiso   1.00
H443   H     0.19297   0.90410   0.97987   0.00000  Uiso   1.00
H444   H     0.04651   0.55218   0.19869   0.00000  Uiso   1.00
H445   H     0.30891   0.55287   0.02169   0.00000  Uiso   1.00
H446   H     0.28597   0.46437   0.95302   0.00000  Uiso   1.00
H447   H     0.36488   0.67684   0.00436   0.00000  Uiso   1.00
H448   H     0.29542   0.50994   0.10813   0.00000  Uiso   1.00
H449   H     0.22975   0.37810   0.87618   0.00000  Uiso   1.00
H450   H     0.39614   0.82610   0.98445   0.00000  Uiso   1.00
H451   H     0.24968   0.47417   0.20328   0.00000  Uiso   1.00
O452   O     0.10880   0.36054   0.82861   0.00000  Uiso   1.00
O453   O     0.32709   0.94830   0.97066   0.00000  Uiso   1.00
O454   O     0.13494   0.48658   0.25776   0.00000  Uiso   1.00
N455   N     0.07754   0.44988   0.88211   0.00000  Uiso   1.00
N456   N     0.23310   0.86873   0.98332   0.00000  Uiso   1.00
N457   N     0.09618   0.53973   0.18791   0.00000  Uiso   1.00
N458   N     0.18687   0.40791   0.88457   0.00000  Uiso   1.00
N459   N     0.34243   0.82676   0.98579   0.00000  Uiso   1.00
N460   N     0.20551   0.49775   0.19038   0.00000  Uiso   1.00
C461   C     0.87403   0.37690   0.01756   0.00000  Uiso   1.00
C462   C     0.86066   0.43490   0.98084   0.00000  Uiso   1.00
C463   C     0.91032   0.46029   0.94858   0.00000  Uiso   1.00
C464   C     0.88765   0.51349   0.91792   0.00000  Uiso   1.00
C465   C     0.87751   0.59945   0.86064   0.00000  Uiso   1.00
C466   C     0.81779   0.31946   0.00873   0.00000  Uiso   1.00
C467   C     0.83140   0.24779   0.99993   0.00000  Uiso   1.00
C468   C     0.77263   0.20382   0.99274   0.00000  Uiso   1.00
C469   C     0.69592   0.11055   0.97880   0.00000  Uiso   1.00
C470   C     0.85553   0.41015   0.06511   0.00000  Uiso   1.00
C471   C     0.90086   0.41470   0.10372   0.00000  Uiso   1.00
C472   C     0.87386   0.44707   0.14401   0.00000  Uiso   1.00
C473   C     0.85575   0.49460   0.21760   0.00000  Uiso   1.00
C474   C     0.74546   0.42626   0.02047   0.00000  Uiso   1.00
C475   C     0.79083   0.46171   0.98242   0.00000  Uiso   1.00
C476   C     0.76808   0.51489   0.95179   0.00000  Uiso   1.00
C477   C     0.81769   0.54035   0.91950   0.00000  Uiso   1.00
C478   C     0.74796   0.34627   0.01030   0.00000  Uiso   1.00
C479   C     0.68916   0.30239   0.00314   0.00000  Uiso   1.00
C480   C     0.70267   0.23067   0.99432   0.00000  Uiso   1.00
C481   C     0.78570   0.43696   0.06669   0.00000  Uiso   1.00
C482   C     0.75862   0.46932   0.10693   0.00000  Uiso   1.00
C483   C     0.80390   0.47392   0.14559   0.00000  Uiso   1.00
H484   H     0.92839   0.35602   0.01634   0.00000  Uiso   1.00
H485   H     0.96436   0.43952   0.94737   0.00000  Uiso   1.00
H486   H     0.88545   0.22705   0.99871   0.00000  Uiso   1.00
H487   H     0.95490   0.39395   0.10249   0.00000  Uiso   1.00
H488   H     0.97342   0.54390   0.87160   0.00000  Uiso   1.00
H489   H     0.80703   0.09590   0.97987   0.00000  Uiso   1.00
H490   H     0.95349   0.44782   0.19869   0.00000  Uiso   1.00
H491   H     0.69109   0.44713   0.02169   0.00000  Uiso   1.00
H492   H     0.71403   0.53563   0.95302   0.00000  Uiso   1.00
H493   H     0.63512   0.32316   0.00436   0.00000  Uiso   1.00
H494   H     0.70458   0.49006   0.10813   0.00000  Uiso   1.00
H495   H     0.77025   0.62190   0.87618   0.00000  Uiso   1.00
H496   H     0.60386   0.17390   0.98445   0.00000  Uiso   1.00
H497   H     0.75032   0.52583   0.20328   0.00000  Uiso   1.00
O498   O     0.89120   0.63946   0.82861   0.00000  Uiso   1.00
O499   O     0.67291   0.05170   0.97066   0.00000  Uiso   1.00
O500   O     0.86506   0.51342   0.25776   0.00000  Uiso   1.00
N501   N     0.92246   0.55012   0.88211   0.00000  Uiso   1.00
N502   N     0.76690   0.13127   0.98332   0.00000  Uiso   1.00
N503   N     0.90382   0.46027   0.18791   0.00000  Uiso   1.00
N504   N     0.81313   0.59209   0.88457   0.00000  Uiso   1.00
N505   N     0.65757   0.17324   0.98579   0.00000  Uiso   1.00
N506   N     0.79449   0.50225   0.19038   0.00000  Uiso   1.00
C507   C     0.37403   0.87690   0.51756   0.00000  Uiso   1.00
C508   C     0.36066   0.93490   0.48084   0.00000  Uiso   1.00
C509   C     0.41032   0.96029   0.44858   0.00000  Uiso   1.00
C510   C     0.38765   0.01349   0.41792   0.00000  Uiso   1.00
C511   C     0.37751   0.09945   0.36064   0.00000  Uiso   1.00
C512   C     0.31779   0.81946   0.50873   0.00000  Uiso   1.00
C513   C     0.33140   0.74779   0.49993   0.00000  Uiso   1.00
C514   C     0.27263   0.70382   0.49274   0.00000  Uiso   1.00
C515   C     0.19592   0.61055   0.47880   0.00000  Uiso   1.00
C516   C     0.35553   0.91015   0.56511   0.00000  Uiso   1.00
C517   C     0.40086   0.91470   0.60372   0.00000  Uiso   1.00
C518   C     0.37386   0.94707   0.64401   0.00000  Uiso   1.00
C519   C     0.35575   0.99460   0.71760   0.00000  Uiso   1.00
C520   C     0.24546   0.92626   0.52047   0.00000  Uiso   1.00
C521   C     0.29083   0.96171   0.48242   0.00000  Uiso   1.00
C522   C     0.26808   0.01489   0.45179   0.00000  Uiso   1.00
C523   C     0.31769   0.04035   0.41950   0.00000  Uiso   1.00
C524   C     0.24796   0.84627   0.51030   0.00000  Uiso   1.00
C525   C     0.18916   0.80239   0.50314   0.00000  Uiso   1.00
C526   C     0.20267   0.73067   0.49432   0.00000  Uiso   1.00
C527   C     0.28570   0.93696   0.56669   0.00000  Uiso   1.00
C528   C     0.25862   0.96932   0.60693   0.00000  Uiso   1.00
C529   C     0.30390   0.97392   0.64559   0.00000  Uiso   1.00
H530   H     0.42839   0.85602   0.51634   0.00000  Uiso   1.00
H531   H     0.46436   0.93952   0.44737   0.00000  Uiso   1.00
H532   H     0.38545   0.72705   0.49871   0.00000  Uiso   1.00
H533   H     0.45490   0.89395   0.60249   0.00000  Uiso   1.00
H534   H     0.47342   0.04390   0.37160   0.00000  Uiso   1.00
H535   H     0.30703   0.59590   0.47987   0.00000  Uiso   1.00
H536   H     0.45349   0.94782   0.69869   0.00000  Uiso   1.00
H537   H     0.19109   0.94713   0.52169   0.00000  Uiso   1.00
H538   H     0.21403   0.03563   0.45302   0.00000  Uiso   1.00
H539   H     0.13512   0.82316   0.50436   0.00000  Uiso   1.00
H540   H     0.20458   0.99006   0.60813   0.00000  Uiso   1.00
H541   H     0.27025   0.12190   0.37618   0.00000  Uiso   1.00
H542   H     0.10386   0.67390   0.48445   0.00000  Uiso   1.00
H543   H     0.25032   0.02583   0.70328   0.00000  Uiso   1.00
O544   O     0.39120   0.13946   0.32861   0.00000  Uiso   1.00
O545   O     0.17291   0.55170   0.47066   0.00000  Uiso   1.00
O546   O     0.36506   0.01342   0.75776   0.00000  Uiso   1.00
N547   N     0.42246   0.05012   0.38211   0.00000  Uiso   1.00
N548   N     0.26690   0.63127   0.48332   0.00000  Uiso   1.00
N549   N     0.40382   0.96027   0.68791   0.00000  Uiso   1.00
N550   N     0.31313   0.09209   0.38457   0.00000  Uiso   1.00
N551   N     0.15757   0.67324   0.48579   0.00000  Uiso   1.00
N552   N     0.29449   0.00225   0.69038   0.00000  Uiso   1.00
C553   C     0.37690   0.62597   0.26756   0.00000  Uiso   1.00
C554   C     0.43490   0.63934   0.23084   0.00000  Uiso   1.00
C555   C     0.46029   0.58968   0.19858   0.00000  Uiso   1.00
C556   C     0.51349   0.61235   0.16792   0.00000  Uiso   1.00
C557   C     0.59945   0.62249   0.11064   0.00000  Uiso   1.00
C558   C     0.31946   0.68221   0.25873   0.00000  Uiso   1.00
C559   C     0.24779   0.66860   0.24993   0.00000  Uiso   1.00
C560   C     0.20382   0.72737   0.24274   0.00000  Uiso   1.00
C561   C     0.11055   0.80408   0.22880   0.00000  Uiso   1.00
C562   C     0.41015   0.64447   0.31511   0.00000  Uiso   1.00
C563   C     0.41470   0.59914   0.35372   0.00000  Uiso   1.00
C564   C     0.44707   0.62614   0.39401   0.00000  Uiso   1.00
C565   C     0.49460   0.64425   0.46760   0.00000  Uiso   1.00
C566   C     0.42626   0.75454   0.27047   0.00000  Uiso   1.00
C567   C     0.46171   0.70917   0.23242   0.00000  Uiso   1.00
C568   C     0.51489   0.73192   0.20179   0.00000  Uiso   1.00
C569   C     0.54035   0.68231   0.16950   0.00000  Uiso   1.00
C570   C     0.34627   0.75204   0.26030   0.00000  Uiso   1.00
C571   C     0.30239   0.81084   0.25314   0.00000  Uiso   1.00
C572   C     0.23067   0.79733   0.24432   0.00000  Uiso   1.00
C573   C     0.43696   0.71430   0.31669   0.00000  Uiso   1.00
C574   C     0.46932   0.74138   0.35693   0.00000  Uiso   1.00
C575   C     0.47392   0.69610   0.39559   0.00000  Uiso   1.00
H576   H     0.35602   0.57161   0.26634   0.00000  Uiso   1.00
H577   H     0.43952   0.53564   0.19737   0.00000  Uiso   1.00
H578   H     0.22705   0.61455   0.24871   0.00000  Uiso   1.00
H579   H     0.39395   0.54510   0.35249   0.00000  Uiso   1.00
H580   H     0.54390   0.52658   0.12160   0.00000  Uiso   1.00
H581   H     0.09590   0.69297   0.22987   0.00000  Uiso   1.00
H582   H     0.44782   0.54651   0.44869   0.00000  Uiso   1.00
H583   H     0.44713   0.80891   0.27169   0.00000  Uiso   1.00
H584   H     0.53563   0.78597   0.20302   0.00000  Uiso   1.00
H585   H     0.32316   0.86488   0.25436   0.00000  Uiso   1.00
H586   H     0.49006   0.79542   0.35813   0.00000  Uiso   1.00
H587   H     0.62190   0.72975   0.12618   0.00000  Uiso   1.00
H588   H     0.17390   0.89614   0.23445   0.00000  Uiso   1.00
H589   H     0.52583   0.74968   0.45328   0.00000  Uiso   1.00
O590   O     0.63946   0.60880   0.07861   0.00000  Uiso   1.00
O591   O     0.05170   0.82709   0.22066   0.00000  Uiso   1.00
O592   O     0.51342   0.63494   0.50776   0.00000  Uiso   1.00
N593   N     0.55012   0.57754   0.13211   0.00000  Uiso   1.00
N594   N     0.13127   0.73310   0.23332   0.00000  Uiso   1.00
N595   N     0.46027   0.59618   0.43791   0.00000  Uiso   1.00
N596   N     0.59209   0.68687   0.13457   0.00000  Uiso   1.00
N597   N     0.17324   0.84243   0.23579   0.00000  Uiso   1.00
N598   N     0.50225   0.70551   0.44038   0.00000  Uiso   1.00
C599   C     0.87690   0.12597   0.76756   0.00000  Uiso   1.00
C600   C     0.93490   0.13934   0.73084   0.00000  Uiso   1.00
C601   C     0.96029   0.08968   0.69858   0.00000  Uiso   1.00
C602   C     0.01349   0.11235   0.66792   0.00000  Uiso   1.00
C603   C     0.09945   0.12249   0.61064   0.00000  Uiso   1.00
C604   C     0.81946   0.18221   0.75873   0.00000  Uiso   1.00
C605   C     0.74779   0.16860   0.74993   0.00000  Uiso   1.00
C606   C     0.70382   0.22737   0.74274   0.00000  Uiso   1.00
C607   C     0.61055   0.30408   0.72880   0.00000  Uiso   1.00
C608   C     0.91015   0.14447   0.81511   0.00000  Uiso   1.00
C609   C     0.91470   0.09914   0.85372   0.00000  Uiso   1.00
C610   C     0.94707   0.12614   0.89401   0.00000  Uiso   1.00
C611   C     0.99460   0.14425   0.96760   0.00000  Uiso   1.00
C612   C     0.92626   0.25454   0.77047   0.00000  Uiso   1.00
C613   C     0.96171   0.20917   0.73242   0.00000  Uiso   1.00
C614   C     0.01489   0.23192   0.70179   0.00000  Uiso   1.00
C615   C     0.04035   0.18231   0.66950   0.00000  Uiso   1.00
C616   C     0.84627   0.25204   0.76030   0.00000  Uiso   1.00
C617   C     0.80239   0.31084   0.75314   0.00000  Uiso   1.00
C618   C     0.73067   0.29733   0.74432   0.00000  Uiso   1.00
C619   C     0.93696   0.21430   0.81669   0.00000  Uiso   1.00
C620   C     0.96932   0.24138   0.85693   0.00000  Uiso   1.00
C621   C     0.97392   0.19610   0.89559   0.00000  Uiso   1.00
H622   H     0.85602   0.07161   0.76634   0.00000  Uiso   1.00
H623   H     0.93952   0.03564   0.69737   0.00000  Uiso   1.00
H624   H     0.72705   0.11455   0.74871   0.00000  Uiso   1.00
H625   H     0.89395   0.04510   0.85249   0.00000  Uiso   1.00
H626   H     0.04390   0.02658   0.62160   0.00000  Uiso   1.00
H627   H     0.59590   0.19297   0.72987   0.00000  Uiso   1.00
H628   H     0.94782   0.04651   0.94869   0.00000  Uiso   1.00
H629   H     0.94713   0.30891   0.77169   0.00000  Uiso   1.00
H630   H     0.03563   0.28597   0.70302   0.00000  Uiso   1.00
H631   H     0.82316   0.36488   0.75436   0.00000  Uiso   1.00
H632   H     0.99006   0.29542   0.85813   0.00000  Uiso   1.00
H633   H     0.12190   0.22975   0.62618   0.00000  Uiso   1.00
H634   H     0.67390   0.39614   0.73445   0.00000  Uiso   1.00
H635   H     0.02583   0.24968   0.95328   0.00000  Uiso   1.00
O636   O     0.13946   0.10880   0.57861   0.00000  Uiso   1.00
O637   O     0.55170   0.32709   0.72066   0.00000  Uiso   1.00
O638   O     0.01342   0.13494   0.00776   0.00000  Uiso   1.00
N639   N     0.05012   0.07754   0.63211   0.00000  Uiso   1.00
N640   N     0.63127   0.23310   0.73332   0.00000  Uiso   1.00
N641   N     0.96027   0.09618   0.93791   0.00000  Uiso   1.00
N642   N     0.09209   0.18687   0.63457   0.00000  Uiso   1.00
N643   N     0.67324   0.34243   0.73579   0.00000  Uiso   1.00
N644   N     0.00225   0.20551   0.94038   0.00000  Uiso   1.00
C645   C     0.12310   0.87403   0.76756   0.00000  Uiso   1.00
C646   C     0.06510   0.86066   0.73084   0.00000  Uiso   1.00
C647   C     0.03971   0.91032   0.69858   0.00000  Uiso   1.00
C648   C     0.98651   0.88765   0.66792   0.00000  Uiso   1.00
C649   C     0.90055   0.87751   0.61064   0.00000  Uiso   1.00
C650   C     0.18054   0.81779   0.75873   0.00000  Uiso   1.00
C651   C     0.25221   0.83140   0.74993   0.00000  Uiso   1.00
C652   C     0.29618   0.77263   0.74274   0.00000  Uiso   1.00
C653   C     0.38945   0.69592   0.72880   0.00000  Uiso   1.00
C654   C     0.08985   0.85553   0.81511   0.00000  Uiso   1.00
C655   C     0.08530   0.90086   0.85372   0.00000  Uiso   1.00
C656   C     0.05293   0.87386   0.89401   0.00000  Uiso   1.00
C657   C     0.00540   0.85575   0.96760   0.00000  Uiso   1.00
C658   C     0.07374   0.74546   0.77047   0.00000  Uiso   1.00
C659   C     0.03829   0.79083   0.73242   0.00000  Uiso   1.00
C660   C     0.98511   0.76808   0.70179   0.00000  Uiso   1.00
C661   C     0.95965   0.81769   0.66950   0.00000  Uiso   1.00
C662   C     0.15373   0.74796   0.76030   0.00000  Uiso   1.00
C663   C     0.19761   0.68916   0.75314   0.00000  Uiso   1.00
C664   C     0.26933   0.70267   0.74432   0.00000  Uiso   1.00
C665   C     0.06304   0.78570   0.81669   0.00000  Uiso   1.00
C666   C     0.03068   0.75862   0.85693   0.00000  Uiso   1.00
C667   C     0.02608   0.80390   0.89559   0.00000  Uiso   1.00
H668   H     0.14398   0.92839   0.76634   0.00000  Uiso   1.00
H669   H     0.06048   0.96436   0.69737   0.00000  Uiso   1.00
H670   H     0.27295   0.88545   0.74871   0.00000  Uiso   1.00
H671   H     0.10605   0.95490   0.85249   0.00000  Uiso   1.00
H672   H     0.95610   0.97342   0.62160   0.00000  Uiso   1.00
H673   H     0.40410   0.80703   0.72987   0.00000  Uiso   1.00
H674   H     0.05218   0.95349   0.94869   0.00000  Uiso   1.00
H675   H     0.05287   0.69109   0.77169   0.00000  Uiso   1.00
H676   H     0.96437   0.71403   0.70302   0.00000  Uiso   1.00
H677   H     0.17684   0.63512   0.75436   0.00000  Uiso   1.00
H678   H     0.00994   0.70458   0.85813   0.00000  Uiso   1.00
H679   H     0.87810   0.77025   0.62618   0.00000  Uiso   1.00
H680   H     0.32610   0.60386   0.73445   0.00000  Uiso   1.00
H681   H     0.97417   0.75032   0.95328   0.00000  Uiso   1.00
O682   O     0.86054   0.89120   0.57861   0.00000  Uiso   1.00
O683   O     0.44830   0.67291   0.72066   0.00000  Uiso   1.00
O684   O     0.98658   0.86506   0.00776   0.00000  Uiso   1.00
N685   N     0.94988   0.92246   0.63211   0.00000  Uiso   1.00
N686   N     0.36873   0.76690   0.73332   0.00000  Uiso   1.00
N687   N     0.03973   0.90382   0.93791   0.00000  Uiso   1.00
N688   N     0.90791   0.81313   0.63457   0.00000  Uiso   1.00
N689   N     0.32676   0.65757   0.73579   0.00000  Uiso   1.00
N690   N     0.99775   0.79449   0.94038   0.00000  Uiso   1.00
C691   C     0.62310   0.37403   0.26756   0.00000  Uiso   1.00
C692   C     0.56510   0.36066   0.23084   0.00000  Uiso   1.00
C693   C     0.53971   0.41032   0.19858   0.00000  Uiso   1.00
C694   C     0.48651   0.38765   0.16792   0.00000  Uiso   1.00
C695   C     0.40055   0.37751   0.11064   0.00000  Uiso   1.00
C696   C     0.68054   0.31779   0.25873   0.00000  Uiso   1.00
C697   C     0.75221   0.33140   0.24993   0.00000  Uiso   1.00
C698   C     0.79618   0.27263   0.24274   0.00000  Uiso   1.00
C699   C     0.88945   0.19592   0.22880   0.00000  Uiso   1.00
C700   C     0.58985   0.35553   0.31511   0.00000  Uiso   1.00
C701   C     0.58530   0.40086   0.35372   0.00000  Uiso   1.00
C702   C     0.55293   0.37386   0.39401   0.00000  Uiso   1.00
C703   C     0.50540   0.35575   0.46760   0.00000  Uiso   1.00
C704   C     0.57374   0.24546   0.27047   0.00000  Uiso   1.00
C705   C     0.53829   0.29083   0.23242   0.00000  Uiso   1.00
C706   C     0.48511   0.26808   0.20179   0.00000  Uiso   1.00
C707   C     0.45965   0.31769   0.16950   0.00000  Uiso   1.00
C708   C     0.65373   0.24796   0.26030   0.00000  Uiso   1.00
C709   C     0.69761   0.18916   0.25314   0.00000  Uiso   1.00
C710   C     0.76933   0.20267   0.24432   0.00000  Uiso   1.00
C711   C     0.56304   0.28570   0.31669   0.00000  Uiso   1.00
C712   C     0.53068   0.25862   0.35693   0.00000  Uiso   1.00
C713   C     0.52608   0.30390   0.39559   0.00000  Uiso   1.00
H714   H     0.64398   0.42839   0.26634   0.00000  Uiso   1.00
H715   H     0.56048   0.46436   0.19737   0.00000  Uiso   1.00
H716   H     0.77295   0.38545   0.24871   0.00000  Uiso   1.00
H717   H     0.60605   0.45490   0.35249   0.00000  Uiso   1.00
H718   H     0.45610   0.47342   0.12160   0.00000  Uiso   1.00
H719   H     0.90410   0.30703   0.22987   0.00000  Uiso   1.00
H720   H     0.55218   0.45349   0.44869   0.00000  Uiso   1.00
H721   H     0.55287   0.19109   0.27169   0.00000  Uiso   1.00
H722   H     0.46437   0.21403   0.20302   0.00000  Uiso   1.00
H723   H     0.67684   0.13512   0.25436   0.00000  Uiso   1.00
H724   H     0.50994   0.20458   0.35813   0.00000  Uiso   1.00
H725   H     0.37810   0.27025   0.12618   0.00000  Uiso   1.00
H726   H     0.82610   0.10386   0.23445   0.00000  Uiso   1.00
H727   H     0.47417   0.25032   0.45328   0.00000  Uiso   1.00
O728   O     0.36054   0.39120   0.07861   0.00000  Uiso   1.00
O729   O     0.94830   0.17291   0.22066   0.00000  Uiso   1.00
O730   O     0.48658   0.36506   0.50776   0.00000  Uiso   1.00
N731   N     0.44988   0.42246   0.13211   0.00000  Uiso   1.00
N732   N     0.86873   0.26690   0.23332   0.00000  Uiso   1.00
N733   N     0.53973   0.40382   0.43791   0.00000  Uiso   1.00
N734   N     0.40791   0.31313   0.13457   0.00000  Uiso   1.00
N735   N     0.82676   0.15757   0.23579   0.00000  Uiso   1.00
N736   N     0.49775   0.29449   0.44038   0.00000  Uiso   1.00
