data_job_02909
_audit_creation_date              2018-12-19
_audit_creation_method            'Materials Studio'
_symmetry_space_group_name_H-M    'P1'
_symmetry_Int_Tables_number       1
_symmetry_cell_setting            triclinic
loop_
_symmetry_equiv_pos_as_xyz
  x,y,z
_cell_length_a                    52.0266
_cell_length_b                    28.8831
_cell_length_c                    7.1507
_cell_angle_alpha                 90.0000
_cell_angle_beta                  90.0000
_cell_angle_gamma                 90.0000
loop_
_atom_site_label
_atom_site_type_symbol
_atom_site_fract_x
_atom_site_fract_y
_atom_site_fract_z
_atom_site_U_iso_or_equiv
_atom_site_adp_type
_atom_site_occupancy
C1     C     0.43402   0.44787   0.82060   0.00000  Uiso   1.00
C2     C     0.40810   0.43080   0.89231   0.00000  Uiso   1.00
C3     C     0.38525   0.43084   0.79220   0.00000  Uiso   1.00
C4     C     0.36362   0.41378   0.88264   0.00000  Uiso   1.00
C5     C     0.32317   0.38980   0.96603   0.00000  Uiso   1.00
C6     C     0.44294   0.48467   0.95908   0.00000  Uiso   1.00
C7     C     0.44939   0.53000   0.91511   0.00000  Uiso   1.00
C8     C     0.45710   0.55828   0.06177   0.00000  Uiso   1.00
C9     C     0.47077   0.61793   0.24881   0.00000  Uiso   1.00
C10    C     0.45255   0.40733   0.84250   0.00000  Uiso   1.00
C11    C     0.46709   0.38764   0.70051   0.00000  Uiso   1.00
C12    C     0.48289   0.35081   0.74902   0.00000  Uiso   1.00
C13    C     0.51148   0.29037   0.75504   0.00000  Uiso   1.00
C14    C     0.43625   0.41748   0.15925   0.00000  Uiso   1.00
C15    C     0.40931   0.41429   0.07625   0.00000  Uiso   1.00
C16    C     0.38770   0.39722   0.16687   0.00000  Uiso   1.00
C17    C     0.36482   0.39724   0.06691   0.00000  Uiso   1.00
C18    C     0.44415   0.46816   0.14302   0.00000  Uiso   1.00
C19    C     0.45185   0.49638   0.28978   0.00000  Uiso   1.00
C20    C     0.45831   0.54175   0.24604   0.00000  Uiso   1.00
C21    C     0.45376   0.39082   0.02643   0.00000  Uiso   1.00
C22    C     0.46954   0.35401   0.07518   0.00000  Uiso   1.00
C23    C     0.48410   0.33427   0.93329   0.00000  Uiso   1.00
H24    H     0.43308   0.46072   0.67741   0.00000  Uiso   1.00
H25    H     0.38432   0.44363   0.64986   0.00000  Uiso   1.00
H26    H     0.44846   0.54277   0.77275   0.00000  Uiso   1.00
H27    H     0.46615   0.40042   0.55819   0.00000  Uiso   1.00
H28    H     0.33078   0.41741   0.70046   0.00000  Uiso   1.00
H29    H     0.46603   0.62644   0.95958   0.00000  Uiso   1.00
H30    H     0.50334   0.32628   0.50711   0.00000  Uiso   1.00
H31    H     0.43719   0.40463   0.30246   0.00000  Uiso   1.00
H32    H     0.38864   0.38445   0.30921   0.00000  Uiso   1.00
H33    H     0.45278   0.48359   0.43210   0.00000  Uiso   1.00
H34    H     0.47047   0.34125   0.21753   0.00000  Uiso   1.00
H35    H     0.33429   0.36938   0.23562   0.00000  Uiso   1.00
H36    H     0.46955   0.57842   0.49473   0.00000  Uiso   1.00
H37    H     0.50685   0.27826   0.04227   0.00000  Uiso   1.00
O38    O     0.30053   0.38114   0.96123   0.00000  Uiso   1.00
O39    O     0.47798   0.65539   0.30116   0.00000  Uiso   1.00
O40    O     0.52692   0.26159   0.70754   0.00000  Uiso   1.00
N41    N     0.33827   0.40886   0.82547   0.00000  Uiso   1.00
N42    N     0.46472   0.60430   0.06773   0.00000  Uiso   1.00
N43    N     0.49960   0.32369   0.64473   0.00000  Uiso   1.00
N44    N     0.34016   0.38302   0.11343   0.00000  Uiso   1.00
N45    N     0.46661   0.57846   0.35569   0.00000  Uiso   1.00
N46    N     0.50149   0.29784   0.93269   0.00000  Uiso   1.00
C47    C     0.43402   0.94787   0.32060   0.00000  Uiso   1.00
C48    C     0.40810   0.93080   0.39231   0.00000  Uiso   1.00
C49    C     0.38525   0.93084   0.29220   0.00000  Uiso   1.00
C50    C     0.36362   0.91378   0.38264   0.00000  Uiso   1.00
C51    C     0.32317   0.88980   0.46603   0.00000  Uiso   1.00
C52    C     0.44294   0.98467   0.45908   0.00000  Uiso   1.00
C53    C     0.44939   0.03000   0.41511   0.00000  Uiso   1.00
C54    C     0.45710   0.05828   0.56177   0.00000  Uiso   1.00
C55    C     0.47077   0.11793   0.74881   0.00000  Uiso   1.00
C56    C     0.45255   0.90733   0.34250   0.00000  Uiso   1.00
C57    C     0.46709   0.88764   0.20051   0.00000  Uiso   1.00
C58    C     0.48289   0.85081   0.24902   0.00000  Uiso   1.00
C59    C     0.51148   0.79037   0.25504   0.00000  Uiso   1.00
C60    C     0.43625   0.91748   0.65925   0.00000  Uiso   1.00
C61    C     0.40931   0.91429   0.57625   0.00000  Uiso   1.00
C62    C     0.38770   0.89722   0.66687   0.00000  Uiso   1.00
C63    C     0.36482   0.89724   0.56691   0.00000  Uiso   1.00
C64    C     0.44415   0.96816   0.64302   0.00000  Uiso   1.00
C65    C     0.45185   0.99638   0.78978   0.00000  Uiso   1.00
C66    C     0.45831   0.04175   0.74604   0.00000  Uiso   1.00
C67    C     0.45376   0.89082   0.52643   0.00000  Uiso   1.00
C68    C     0.46954   0.85401   0.57518   0.00000  Uiso   1.00
C69    C     0.48410   0.83427   0.43329   0.00000  Uiso   1.00
H70    H     0.43308   0.96072   0.17741   0.00000  Uiso   1.00
H71    H     0.38432   0.94363   0.14986   0.00000  Uiso   1.00
H72    H     0.44846   0.04277   0.27275   0.00000  Uiso   1.00
H73    H     0.46615   0.90042   0.05819   0.00000  Uiso   1.00
H74    H     0.33078   0.91741   0.20046   0.00000  Uiso   1.00
H75    H     0.46603   0.12644   0.45958   0.00000  Uiso   1.00
H76    H     0.50334   0.82628   0.00711   0.00000  Uiso   1.00
H77    H     0.43719   0.90463   0.80246   0.00000  Uiso   1.00
H78    H     0.38864   0.88445   0.80921   0.00000  Uiso   1.00
H79    H     0.45278   0.98359   0.93210   0.00000  Uiso   1.00
H80    H     0.47047   0.84125   0.71753   0.00000  Uiso   1.00
H81    H     0.33429   0.86938   0.73562   0.00000  Uiso   1.00
H82    H     0.46955   0.07842   0.99473   0.00000  Uiso   1.00
H83    H     0.50685   0.77826   0.54227   0.00000  Uiso   1.00
O84    O     0.30053   0.88114   0.46123   0.00000  Uiso   1.00
O85    O     0.47798   0.15539   0.80116   0.00000  Uiso   1.00
O86    O     0.52692   0.76159   0.20754   0.00000  Uiso   1.00
N87    N     0.33827   0.90886   0.32547   0.00000  Uiso   1.00
N88    N     0.46472   0.10430   0.56773   0.00000  Uiso   1.00
N89    N     0.49960   0.82369   0.14473   0.00000  Uiso   1.00
N90    N     0.34016   0.88302   0.61343   0.00000  Uiso   1.00
N91    N     0.46661   0.07846   0.85569   0.00000  Uiso   1.00
N92    N     0.50149   0.79784   0.43269   0.00000  Uiso   1.00
C93    C     0.93402   0.44787   0.32060   0.00000  Uiso   1.00
C94    C     0.90810   0.43080   0.39231   0.00000  Uiso   1.00
C95    C     0.88525   0.43084   0.29220   0.00000  Uiso   1.00
C96    C     0.86362   0.41378   0.38264   0.00000  Uiso   1.00
C97    C     0.82317   0.38980   0.46603   0.00000  Uiso   1.00
C98    C     0.94294   0.48467   0.45908   0.00000  Uiso   1.00
C99    C     0.94939   0.53000   0.41511   0.00000  Uiso   1.00
C100   C     0.95710   0.55828   0.56177   0.00000  Uiso   1.00
C101   C     0.97077   0.61793   0.74881   0.00000  Uiso   1.00
C102   C     0.95255   0.40733   0.34250   0.00000  Uiso   1.00
C103   C     0.96709   0.38764   0.20051   0.00000  Uiso   1.00
C104   C     0.98289   0.35081   0.24902   0.00000  Uiso   1.00
C105   C     0.01148   0.29037   0.25504   0.00000  Uiso   1.00
C106   C     0.93625   0.41748   0.65925   0.00000  Uiso   1.00
C107   C     0.90931   0.41429   0.57625   0.00000  Uiso   1.00
C108   C     0.88770   0.39722   0.66687   0.00000  Uiso   1.00
C109   C     0.86482   0.39724   0.56691   0.00000  Uiso   1.00
C110   C     0.94415   0.46816   0.64302   0.00000  Uiso   1.00
C111   C     0.95185   0.49638   0.78978   0.00000  Uiso   1.00
C112   C     0.95831   0.54175   0.74604   0.00000  Uiso   1.00
C113   C     0.95376   0.39082   0.52643   0.00000  Uiso   1.00
C114   C     0.96954   0.35401   0.57518   0.00000  Uiso   1.00
C115   C     0.98410   0.33427   0.43329   0.00000  Uiso   1.00
H116   H     0.93308   0.46072   0.17741   0.00000  Uiso   1.00
H117   H     0.88432   0.44363   0.14986   0.00000  Uiso   1.00
H118   H     0.94846   0.54277   0.27275   0.00000  Uiso   1.00
H119   H     0.96615   0.40042   0.05819   0.00000  Uiso   1.00
H120   H     0.83078   0.41741   0.20046   0.00000  Uiso   1.00
H121   H     0.96603   0.62644   0.45958   0.00000  Uiso   1.00
H122   H     0.00334   0.32628   0.00711   0.00000  Uiso   1.00
H123   H     0.93719   0.40463   0.80246   0.00000  Uiso   1.00
H124   H     0.88864   0.38445   0.80921   0.00000  Uiso   1.00
H125   H     0.95278   0.48359   0.93210   0.00000  Uiso   1.00
H126   H     0.97047   0.34125   0.71753   0.00000  Uiso   1.00
H127   H     0.83429   0.36938   0.73562   0.00000  Uiso   1.00
H128   H     0.96955   0.57842   0.99473   0.00000  Uiso   1.00
H129   H     0.00685   0.27826   0.54227   0.00000  Uiso   1.00
O130   O     0.80053   0.38114   0.46123   0.00000  Uiso   1.00
O131   O     0.97798   0.65539   0.80116   0.00000  Uiso   1.00
O132   O     0.02692   0.26159   0.20754   0.00000  Uiso   1.00
N133   N     0.83827   0.40886   0.32547   0.00000  Uiso   1.00
N134   N     0.96472   0.60430   0.56773   0.00000  Uiso   1.00
N135   N     0.99960   0.32369   0.14473   0.00000  Uiso   1.00
N136   N     0.84016   0.38302   0.61343   0.00000  Uiso   1.00
N137   N     0.96661   0.57846   0.85569   0.00000  Uiso   1.00
N138   N     0.00149   0.29784   0.43269   0.00000  Uiso   1.00
C139   C     0.93402   0.94787   0.82060   0.00000  Uiso   1.00
C140   C     0.90810   0.93080   0.89231   0.00000  Uiso   1.00
C141   C     0.88525   0.93084   0.79220   0.00000  Uiso   1.00
C142   C     0.86362   0.91378   0.88264   0.00000  Uiso   1.00
C143   C     0.82317   0.88980   0.96603   0.00000  Uiso   1.00
C144   C     0.94294   0.98467   0.95908   0.00000  Uiso   1.00
C145   C     0.94939   0.03000   0.91511   0.00000  Uiso   1.00
C146   C     0.95710   0.05828   0.06177   0.00000  Uiso   1.00
C147   C     0.97077   0.11793   0.24881   0.00000  Uiso   1.00
C148   C     0.95255   0.90733   0.84250   0.00000  Uiso   1.00
C149   C     0.96709   0.88764   0.70051   0.00000  Uiso   1.00
C150   C     0.98289   0.85081   0.74902   0.00000  Uiso   1.00
C151   C     0.01148   0.79037   0.75504   0.00000  Uiso   1.00
C152   C     0.93625   0.91748   0.15925   0.00000  Uiso   1.00
C153   C     0.90931   0.91429   0.07625   0.00000  Uiso   1.00
C154   C     0.88770   0.89722   0.16687   0.00000  Uiso   1.00
C155   C     0.86482   0.89724   0.06691   0.00000  Uiso   1.00
C156   C     0.94415   0.96816   0.14302   0.00000  Uiso   1.00
C157   C     0.95185   0.99638   0.28978   0.00000  Uiso   1.00
C158   C     0.95831   0.04175   0.24604   0.00000  Uiso   1.00
C159   C     0.95376   0.89082   0.02643   0.00000  Uiso   1.00
C160   C     0.96954   0.85401   0.07518   0.00000  Uiso   1.00
C161   C     0.98410   0.83427   0.93329   0.00000  Uiso   1.00
H162   H     0.93308   0.96072   0.67741   0.00000  Uiso   1.00
H163   H     0.88432   0.94363   0.64986   0.00000  Uiso   1.00
H164   H     0.94846   0.04277   0.77275   0.00000  Uiso   1.00
H165   H     0.96615   0.90042   0.55819   0.00000  Uiso   1.00
H166   H     0.83078   0.91741   0.70046   0.00000  Uiso   1.00
H167   H     0.96603   0.12644   0.95958   0.00000  Uiso   1.00
H168   H     0.00334   0.82628   0.50711   0.00000  Uiso   1.00
H169   H     0.93719   0.90463   0.30246   0.00000  Uiso   1.00
H170   H     0.88864   0.88445   0.30921   0.00000  Uiso   1.00
H171   H     0.95278   0.98359   0.43210   0.00000  Uiso   1.00
H172   H     0.97047   0.84125   0.21753   0.00000  Uiso   1.00
H173   H     0.83429   0.86938   0.23562   0.00000  Uiso   1.00
H174   H     0.96955   0.07842   0.49473   0.00000  Uiso   1.00
H175   H     0.00685   0.77826   0.04227   0.00000  Uiso   1.00
O176   O     0.80053   0.88114   0.96123   0.00000  Uiso   1.00
O177   O     0.97798   0.15539   0.30116   0.00000  Uiso   1.00
O178   O     0.02692   0.76159   0.70754   0.00000  Uiso   1.00
N179   N     0.83827   0.90886   0.82547   0.00000  Uiso   1.00
N180   N     0.96472   0.10430   0.06773   0.00000  Uiso   1.00
N181   N     0.99960   0.82369   0.64473   0.00000  Uiso   1.00
N182   N     0.84016   0.88302   0.11343   0.00000  Uiso   1.00
N183   N     0.96661   0.07846   0.35569   0.00000  Uiso   1.00
N184   N     0.00149   0.79784   0.93269   0.00000  Uiso   1.00
C185   C     0.56598   0.55213   0.82060   0.00000  Uiso   1.00
C186   C     0.59190   0.56920   0.89231   0.00000  Uiso   1.00
C187   C     0.61475   0.56916   0.79220   0.00000  Uiso   1.00
C188   C     0.63638   0.58622   0.88264   0.00000  Uiso   1.00
C189   C     0.67683   0.61020   0.96603   0.00000  Uiso   1.00
C190   C     0.55706   0.51533   0.95908   0.00000  Uiso   1.00
C191   C     0.55061   0.47000   0.91511   0.00000  Uiso   1.00
C192   C     0.54290   0.44172   0.06177   0.00000  Uiso   1.00
C193   C     0.52923   0.38207   0.24881   0.00000  Uiso   1.00
C194   C     0.54745   0.59267   0.84250   0.00000  Uiso   1.00
C195   C     0.53291   0.61236   0.70051   0.00000  Uiso   1.00
C196   C     0.51711   0.64919   0.74902   0.00000  Uiso   1.00
C197   C     0.48852   0.70963   0.75504   0.00000  Uiso   1.00
C198   C     0.56375   0.58252   0.15925   0.00000  Uiso   1.00
C199   C     0.59069   0.58571   0.07625   0.00000  Uiso   1.00
C200   C     0.61230   0.60278   0.16687   0.00000  Uiso   1.00
C201   C     0.63518   0.60276   0.06691   0.00000  Uiso   1.00
C202   C     0.55585   0.53184   0.14302   0.00000  Uiso   1.00
C203   C     0.54815   0.50362   0.28978   0.00000  Uiso   1.00
C204   C     0.54169   0.45825   0.24604   0.00000  Uiso   1.00
C205   C     0.54624   0.60918   0.02643   0.00000  Uiso   1.00
C206   C     0.53046   0.64599   0.07518   0.00000  Uiso   1.00
C207   C     0.51590   0.66573   0.93329   0.00000  Uiso   1.00
H208   H     0.56692   0.53928   0.67741   0.00000  Uiso   1.00
H209   H     0.61568   0.55637   0.64986   0.00000  Uiso   1.00
H210   H     0.55154   0.45723   0.77275   0.00000  Uiso   1.00
H211   H     0.53385   0.59958   0.55819   0.00000  Uiso   1.00
H212   H     0.66922   0.58259   0.70046   0.00000  Uiso   1.00
H213   H     0.53397   0.37356   0.95958   0.00000  Uiso   1.00
H214   H     0.49666   0.67372   0.50711   0.00000  Uiso   1.00
H215   H     0.56281   0.59537   0.30246   0.00000  Uiso   1.00
H216   H     0.61136   0.61555   0.30921   0.00000  Uiso   1.00
H217   H     0.54722   0.51641   0.43210   0.00000  Uiso   1.00
H218   H     0.52953   0.65875   0.21753   0.00000  Uiso   1.00
H219   H     0.66571   0.63062   0.23562   0.00000  Uiso   1.00
H220   H     0.53045   0.42158   0.49473   0.00000  Uiso   1.00
H221   H     0.49315   0.72174   0.04227   0.00000  Uiso   1.00
O222   O     0.69947   0.61886   0.96123   0.00000  Uiso   1.00
O223   O     0.52202   0.34461   0.30116   0.00000  Uiso   1.00
O224   O     0.47308   0.73841   0.70754   0.00000  Uiso   1.00
N225   N     0.66173   0.59114   0.82547   0.00000  Uiso   1.00
N226   N     0.53528   0.39570   0.06773   0.00000  Uiso   1.00
N227   N     0.50040   0.67631   0.64473   0.00000  Uiso   1.00
N228   N     0.65984   0.61698   0.11343   0.00000  Uiso   1.00
N229   N     0.53339   0.42154   0.35569   0.00000  Uiso   1.00
N230   N     0.49851   0.70216   0.93269   0.00000  Uiso   1.00
C231   C     0.56598   0.05213   0.32060   0.00000  Uiso   1.00
C232   C     0.59190   0.06920   0.39231   0.00000  Uiso   1.00
C233   C     0.61475   0.06916   0.29220   0.00000  Uiso   1.00
C234   C     0.63638   0.08622   0.38264   0.00000  Uiso   1.00
C235   C     0.67683   0.11020   0.46603   0.00000  Uiso   1.00
C236   C     0.55706   0.01533   0.45908   0.00000  Uiso   1.00
C237   C     0.55061   0.97000   0.41511   0.00000  Uiso   1.00
C238   C     0.54290   0.94172   0.56177   0.00000  Uiso   1.00
C239   C     0.52923   0.88207   0.74881   0.00000  Uiso   1.00
C240   C     0.54745   0.09267   0.34250   0.00000  Uiso   1.00
C241   C     0.53291   0.11236   0.20051   0.00000  Uiso   1.00
C242   C     0.51711   0.14919   0.24902   0.00000  Uiso   1.00
C243   C     0.48852   0.20963   0.25504   0.00000  Uiso   1.00
C244   C     0.56375   0.08252   0.65925   0.00000  Uiso   1.00
C245   C     0.59069   0.08571   0.57625   0.00000  Uiso   1.00
C246   C     0.61230   0.10278   0.66687   0.00000  Uiso   1.00
C247   C     0.63518   0.10276   0.56691   0.00000  Uiso   1.00
C248   C     0.55585   0.03184   0.64302   0.00000  Uiso   1.00
C249   C     0.54815   0.00362   0.78978   0.00000  Uiso   1.00
C250   C     0.54169   0.95825   0.74604   0.00000  Uiso   1.00
C251   C     0.54624   0.10918   0.52643   0.00000  Uiso   1.00
C252   C     0.53046   0.14599   0.57518   0.00000  Uiso   1.00
C253   C     0.51590   0.16573   0.43329   0.00000  Uiso   1.00
H254   H     0.56692   0.03928   0.17741   0.00000  Uiso   1.00
H255   H     0.61568   0.05637   0.14986   0.00000  Uiso   1.00
H256   H     0.55154   0.95723   0.27275   0.00000  Uiso   1.00
H257   H     0.53385   0.09958   0.05819   0.00000  Uiso   1.00
H258   H     0.66922   0.08259   0.20046   0.00000  Uiso   1.00
H259   H     0.53397   0.87356   0.45958   0.00000  Uiso   1.00
H260   H     0.49666   0.17372   0.00711   0.00000  Uiso   1.00
H261   H     0.56281   0.09537   0.80246   0.00000  Uiso   1.00
H262   H     0.61136   0.11555   0.80921   0.00000  Uiso   1.00
H263   H     0.54722   0.01641   0.93210   0.00000  Uiso   1.00
H264   H     0.52953   0.15875   0.71753   0.00000  Uiso   1.00
H265   H     0.66571   0.13062   0.73562   0.00000  Uiso   1.00
H266   H     0.53045   0.92158   0.99473   0.00000  Uiso   1.00
H267   H     0.49315   0.22174   0.54227   0.00000  Uiso   1.00
O268   O     0.69947   0.11886   0.46123   0.00000  Uiso   1.00
O269   O     0.52202   0.84461   0.80116   0.00000  Uiso   1.00
O270   O     0.47308   0.23841   0.20754   0.00000  Uiso   1.00
N271   N     0.66173   0.09114   0.32547   0.00000  Uiso   1.00
N272   N     0.53528   0.89570   0.56773   0.00000  Uiso   1.00
N273   N     0.50040   0.17631   0.14473   0.00000  Uiso   1.00
N274   N     0.65984   0.11698   0.61343   0.00000  Uiso   1.00
N275   N     0.53339   0.92154   0.85569   0.00000  Uiso   1.00
N276   N     0.49851   0.20216   0.43269   0.00000  Uiso   1.00
C277   C     0.06598   0.55213   0.32060   0.00000  Uiso   1.00
C278   C     0.09190   0.56920   0.39231   0.00000  Uiso   1.00
C279   C     0.11475   0.56916   0.29220   0.00000  Uiso   1.00
C280   C     0.13638   0.58622   0.38264   0.00000  Uiso   1.00
C281   C     0.17683   0.61020   0.46603   0.00000  Uiso   1.00
C282   C     0.05706   0.51533   0.45908   0.00000  Uiso   1.00
C283   C     0.05061   0.47000   0.41511   0.00000  Uiso   1.00
C284   C     0.04290   0.44172   0.56177   0.00000  Uiso   1.00
C285   C     0.02923   0.38207   0.74881   0.00000  Uiso   1.00
C286   C     0.04745   0.59267   0.34250   0.00000  Uiso   1.00
C287   C     0.03291   0.61236   0.20051   0.00000  Uiso   1.00
C288   C     0.01711   0.64919   0.24902   0.00000  Uiso   1.00
C289   C     0.98852   0.70963   0.25504   0.00000  Uiso   1.00
C290   C     0.06375   0.58252   0.65925   0.00000  Uiso   1.00
C291   C     0.09069   0.58571   0.57625   0.00000  Uiso   1.00
C292   C     0.11230   0.60278   0.66687   0.00000  Uiso   1.00
C293   C     0.13518   0.60276   0.56691   0.00000  Uiso   1.00
C294   C     0.05585   0.53184   0.64302   0.00000  Uiso   1.00
C295   C     0.04815   0.50362   0.78978   0.00000  Uiso   1.00
C296   C     0.04169   0.45825   0.74604   0.00000  Uiso   1.00
C297   C     0.04624   0.60918   0.52643   0.00000  Uiso   1.00
C298   C     0.03046   0.64599   0.57518   0.00000  Uiso   1.00
C299   C     0.01590   0.66573   0.43329   0.00000  Uiso   1.00
H300   H     0.06692   0.53928   0.17741   0.00000  Uiso   1.00
H301   H     0.11568   0.55637   0.14986   0.00000  Uiso   1.00
H302   H     0.05154   0.45723   0.27275   0.00000  Uiso   1.00
H303   H     0.03385   0.59958   0.05819   0.00000  Uiso   1.00
H304   H     0.16922   0.58259   0.20046   0.00000  Uiso   1.00
H305   H     0.03397   0.37356   0.45958   0.00000  Uiso   1.00
H306   H     0.99666   0.67372   0.00711   0.00000  Uiso   1.00
H307   H     0.06281   0.59537   0.80246   0.00000  Uiso   1.00
H308   H     0.11136   0.61555   0.80921   0.00000  Uiso   1.00
H309   H     0.04722   0.51641   0.93210   0.00000  Uiso   1.00
H310   H     0.02953   0.65875   0.71753   0.00000  Uiso   1.00
H311   H     0.16571   0.63062   0.73562   0.00000  Uiso   1.00
H312   H     0.03045   0.42158   0.99473   0.00000  Uiso   1.00
H313   H     0.99315   0.72174   0.54227   0.00000  Uiso   1.00
O314   O     0.19947   0.61886   0.46123   0.00000  Uiso   1.00
O315   O     0.02202   0.34461   0.80116   0.00000  Uiso   1.00
O316   O     0.97308   0.73841   0.20754   0.00000  Uiso   1.00
N317   N     0.16173   0.59114   0.32547   0.00000  Uiso   1.00
N318   N     0.03528   0.39570   0.56773   0.00000  Uiso   1.00
N319   N     0.00040   0.67631   0.14473   0.00000  Uiso   1.00
N320   N     0.15984   0.61698   0.61343   0.00000  Uiso   1.00
N321   N     0.03339   0.42154   0.85569   0.00000  Uiso   1.00
N322   N     0.99851   0.70216   0.43269   0.00000  Uiso   1.00
C323   C     0.06598   0.05213   0.82060   0.00000  Uiso   1.00
C324   C     0.09190   0.06920   0.89231   0.00000  Uiso   1.00
C325   C     0.11475   0.06916   0.79220   0.00000  Uiso   1.00
C326   C     0.13638   0.08622   0.88264   0.00000  Uiso   1.00
C327   C     0.17683   0.11020   0.96603   0.00000  Uiso   1.00
C328   C     0.05706   0.01533   0.95908   0.00000  Uiso   1.00
C329   C     0.05061   0.97000   0.91511   0.00000  Uiso   1.00
C330   C     0.04290   0.94172   0.06177   0.00000  Uiso   1.00
C331   C     0.02923   0.88207   0.24881   0.00000  Uiso   1.00
C332   C     0.04745   0.09267   0.84250   0.00000  Uiso   1.00
C333   C     0.03291   0.11236   0.70051   0.00000  Uiso   1.00
C334   C     0.01711   0.14919   0.74902   0.00000  Uiso   1.00
C335   C     0.98852   0.20963   0.75504   0.00000  Uiso   1.00
C336   C     0.06375   0.08252   0.15925   0.00000  Uiso   1.00
C337   C     0.09069   0.08571   0.07625   0.00000  Uiso   1.00
C338   C     0.11230   0.10278   0.16687   0.00000  Uiso   1.00
C339   C     0.13518   0.10276   0.06691   0.00000  Uiso   1.00
C340   C     0.05585   0.03184   0.14302   0.00000  Uiso   1.00
C341   C     0.04815   0.00362   0.28978   0.00000  Uiso   1.00
C342   C     0.04169   0.95825   0.24604   0.00000  Uiso   1.00
C343   C     0.04624   0.10918   0.02643   0.00000  Uiso   1.00
C344   C     0.03046   0.14599   0.07518   0.00000  Uiso   1.00
C345   C     0.01590   0.16573   0.93329   0.00000  Uiso   1.00
H346   H     0.06692   0.03928   0.67741   0.00000  Uiso   1.00
H347   H     0.11568   0.05637   0.64986   0.00000  Uiso   1.00
H348   H     0.05154   0.95723   0.77275   0.00000  Uiso   1.00
H349   H     0.03385   0.09958   0.55819   0.00000  Uiso   1.00
H350   H     0.16922   0.08259   0.70046   0.00000  Uiso   1.00
H351   H     0.03397   0.87356   0.95958   0.00000  Uiso   1.00
H352   H     0.99666   0.17372   0.50711   0.00000  Uiso   1.00
H353   H     0.06281   0.09537   0.30246   0.00000  Uiso   1.00
H354   H     0.11136   0.11555   0.30921   0.00000  Uiso   1.00
H355   H     0.04722   0.01641   0.43210   0.00000  Uiso   1.00
H356   H     0.02953   0.15875   0.21753   0.00000  Uiso   1.00
H357   H     0.16571   0.13062   0.23562   0.00000  Uiso   1.00
H358   H     0.03045   0.92158   0.49473   0.00000  Uiso   1.00
H359   H     0.99315   0.22174   0.04227   0.00000  Uiso   1.00
O360   O     0.19947   0.11886   0.96123   0.00000  Uiso   1.00
O361   O     0.02202   0.84461   0.30116   0.00000  Uiso   1.00
O362   O     0.97308   0.23841   0.70754   0.00000  Uiso   1.00
N363   N     0.16173   0.09114   0.82547   0.00000  Uiso   1.00
N364   N     0.03528   0.89570   0.06773   0.00000  Uiso   1.00
N365   N     0.00040   0.17631   0.64473   0.00000  Uiso   1.00
N366   N     0.15984   0.11698   0.11343   0.00000  Uiso   1.00
N367   N     0.03339   0.92154   0.35569   0.00000  Uiso   1.00
N368   N     0.99851   0.20216   0.93269   0.00000  Uiso   1.00
C369   C     0.68402   0.80213   0.07060   0.00000  Uiso   1.00
C370   C     0.65810   0.81920   0.14231   0.00000  Uiso   1.00
C371   C     0.63525   0.81916   0.04220   0.00000  Uiso   1.00
C372   C     0.61362   0.83622   0.13264   0.00000  Uiso   1.00
C373   C     0.57317   0.86020   0.21603   0.00000  Uiso   1.00
C374   C     0.69294   0.76533   0.20908   0.00000  Uiso   1.00
C375   C     0.69939   0.72000   0.16511   0.00000  Uiso   1.00
C376   C     0.70710   0.69172   0.31177   0.00000  Uiso   1.00
C377   C     0.72077   0.63207   0.49881   0.00000  Uiso   1.00
C378   C     0.70255   0.84267   0.09250   0.00000  Uiso   1.00
C379   C     0.71709   0.86236   0.95051   0.00000  Uiso   1.00
C380   C     0.73289   0.89919   0.99902   0.00000  Uiso   1.00
C381   C     0.76148   0.95963   0.00504   0.00000  Uiso   1.00
C382   C     0.68625   0.83252   0.40925   0.00000  Uiso   1.00
C383   C     0.65931   0.83571   0.32625   0.00000  Uiso   1.00
C384   C     0.63770   0.85278   0.41687   0.00000  Uiso   1.00
C385   C     0.61482   0.85276   0.31691   0.00000  Uiso   1.00
C386   C     0.69415   0.78184   0.39302   0.00000  Uiso   1.00
C387   C     0.70185   0.75362   0.53978   0.00000  Uiso   1.00
C388   C     0.70831   0.70825   0.49604   0.00000  Uiso   1.00
C389   C     0.70376   0.85918   0.27643   0.00000  Uiso   1.00
C390   C     0.71954   0.89599   0.32518   0.00000  Uiso   1.00
C391   C     0.73410   0.91573   0.18329   0.00000  Uiso   1.00
H392   H     0.68308   0.78928   0.92741   0.00000  Uiso   1.00
H393   H     0.63432   0.80637   0.89986   0.00000  Uiso   1.00
H394   H     0.69846   0.70723   0.02275   0.00000  Uiso   1.00
H395   H     0.71615   0.84958   0.80819   0.00000  Uiso   1.00
H396   H     0.58078   0.83259   0.95046   0.00000  Uiso   1.00
H397   H     0.71603   0.62356   0.20958   0.00000  Uiso   1.00
H398   H     0.75334   0.92372   0.75711   0.00000  Uiso   1.00
H399   H     0.68719   0.84537   0.55246   0.00000  Uiso   1.00
H400   H     0.63864   0.86555   0.55921   0.00000  Uiso   1.00
H401   H     0.70278   0.76641   0.68210   0.00000  Uiso   1.00
H402   H     0.72047   0.90875   0.46753   0.00000  Uiso   1.00
H403   H     0.58429   0.88062   0.48562   0.00000  Uiso   1.00
H404   H     0.71955   0.67158   0.74473   0.00000  Uiso   1.00
H405   H     0.75685   0.97174   0.29227   0.00000  Uiso   1.00
O406   O     0.55053   0.86886   0.21123   0.00000  Uiso   1.00
O407   O     0.72798   0.59461   0.55116   0.00000  Uiso   1.00
O408   O     0.77692   0.98841   0.95754   0.00000  Uiso   1.00
N409   N     0.58827   0.84114   0.07547   0.00000  Uiso   1.00
N410   N     0.71472   0.64570   0.31773   0.00000  Uiso   1.00
N411   N     0.74960   0.92631   0.89473   0.00000  Uiso   1.00
N412   N     0.59016   0.86698   0.36343   0.00000  Uiso   1.00
N413   N     0.71661   0.67154   0.60569   0.00000  Uiso   1.00
N414   N     0.75149   0.95216   0.18269   0.00000  Uiso   1.00
C415   C     0.68402   0.30213   0.57060   0.00000  Uiso   1.00
C416   C     0.65810   0.31920   0.64231   0.00000  Uiso   1.00
C417   C     0.63525   0.31916   0.54220   0.00000  Uiso   1.00
C418   C     0.61362   0.33622   0.63264   0.00000  Uiso   1.00
C419   C     0.57317   0.36020   0.71603   0.00000  Uiso   1.00
C420   C     0.69294   0.26533   0.70908   0.00000  Uiso   1.00
C421   C     0.69939   0.22000   0.66511   0.00000  Uiso   1.00
C422   C     0.70710   0.19172   0.81177   0.00000  Uiso   1.00
C423   C     0.72077   0.13207   0.99881   0.00000  Uiso   1.00
C424   C     0.70255   0.34267   0.59250   0.00000  Uiso   1.00
C425   C     0.71709   0.36236   0.45051   0.00000  Uiso   1.00
C426   C     0.73289   0.39919   0.49902   0.00000  Uiso   1.00
C427   C     0.76148   0.45963   0.50504   0.00000  Uiso   1.00
C428   C     0.68625   0.33252   0.90925   0.00000  Uiso   1.00
C429   C     0.65931   0.33571   0.82625   0.00000  Uiso   1.00
C430   C     0.63770   0.35278   0.91687   0.00000  Uiso   1.00
C431   C     0.61482   0.35276   0.81691   0.00000  Uiso   1.00
C432   C     0.69415   0.28184   0.89302   0.00000  Uiso   1.00
C433   C     0.70185   0.25362   0.03978   0.00000  Uiso   1.00
C434   C     0.70831   0.20825   0.99604   0.00000  Uiso   1.00
C435   C     0.70376   0.35918   0.77643   0.00000  Uiso   1.00
C436   C     0.71954   0.39599   0.82518   0.00000  Uiso   1.00
C437   C     0.73410   0.41573   0.68329   0.00000  Uiso   1.00
H438   H     0.68308   0.28928   0.42741   0.00000  Uiso   1.00
H439   H     0.63432   0.30637   0.39986   0.00000  Uiso   1.00
H440   H     0.69846   0.20723   0.52275   0.00000  Uiso   1.00
H441   H     0.71615   0.34958   0.30819   0.00000  Uiso   1.00
H442   H     0.58078   0.33259   0.45046   0.00000  Uiso   1.00
H443   H     0.71603   0.12356   0.70958   0.00000  Uiso   1.00
H444   H     0.75334   0.42372   0.25711   0.00000  Uiso   1.00
H445   H     0.68719   0.34537   0.05246   0.00000  Uiso   1.00
H446   H     0.63864   0.36555   0.05921   0.00000  Uiso   1.00
H447   H     0.70278   0.26641   0.18210   0.00000  Uiso   1.00
H448   H     0.72047   0.40875   0.96753   0.00000  Uiso   1.00
H449   H     0.58429   0.38062   0.98562   0.00000  Uiso   1.00
H450   H     0.71955   0.17158   0.24473   0.00000  Uiso   1.00
H451   H     0.75685   0.47174   0.79227   0.00000  Uiso   1.00
O452   O     0.55053   0.36886   0.71123   0.00000  Uiso   1.00
O453   O     0.72798   0.09461   0.05116   0.00000  Uiso   1.00
O454   O     0.77692   0.48841   0.45754   0.00000  Uiso   1.00
N455   N     0.58827   0.34114   0.57547   0.00000  Uiso   1.00
N456   N     0.71472   0.14570   0.81773   0.00000  Uiso   1.00
N457   N     0.74960   0.42631   0.39473   0.00000  Uiso   1.00
N458   N     0.59016   0.36698   0.86343   0.00000  Uiso   1.00
N459   N     0.71661   0.17154   0.10569   0.00000  Uiso   1.00
N460   N     0.75149   0.45216   0.68269   0.00000  Uiso   1.00
C461   C     0.18402   0.80213   0.57060   0.00000  Uiso   1.00
C462   C     0.15810   0.81920   0.64231   0.00000  Uiso   1.00
C463   C     0.13525   0.81916   0.54220   0.00000  Uiso   1.00
C464   C     0.11362   0.83622   0.63264   0.00000  Uiso   1.00
C465   C     0.07317   0.86020   0.71603   0.00000  Uiso   1.00
C466   C     0.19294   0.76533   0.70908   0.00000  Uiso   1.00
C467   C     0.19939   0.72000   0.66511   0.00000  Uiso   1.00
C468   C     0.20710   0.69172   0.81177   0.00000  Uiso   1.00
C469   C     0.22077   0.63207   0.99881   0.00000  Uiso   1.00
C470   C     0.20255   0.84267   0.59250   0.00000  Uiso   1.00
C471   C     0.21709   0.86236   0.45051   0.00000  Uiso   1.00
C472   C     0.23289   0.89919   0.49902   0.00000  Uiso   1.00
C473   C     0.26148   0.95963   0.50504   0.00000  Uiso   1.00
C474   C     0.18625   0.83252   0.90925   0.00000  Uiso   1.00
C475   C     0.15931   0.83571   0.82625   0.00000  Uiso   1.00
C476   C     0.13770   0.85278   0.91687   0.00000  Uiso   1.00
C477   C     0.11482   0.85276   0.81691   0.00000  Uiso   1.00
C478   C     0.19415   0.78184   0.89302   0.00000  Uiso   1.00
C479   C     0.20185   0.75362   0.03978   0.00000  Uiso   1.00
C480   C     0.20831   0.70825   0.99604   0.00000  Uiso   1.00
C481   C     0.20376   0.85918   0.77643   0.00000  Uiso   1.00
C482   C     0.21954   0.89599   0.82518   0.00000  Uiso   1.00
C483   C     0.23410   0.91573   0.68329   0.00000  Uiso   1.00
H484   H     0.18308   0.78928   0.42741   0.00000  Uiso   1.00
H485   H     0.13432   0.80637   0.39986   0.00000  Uiso   1.00
H486   H     0.19846   0.70723   0.52275   0.00000  Uiso   1.00
H487   H     0.21615   0.84958   0.30819   0.00000  Uiso   1.00
H488   H     0.08078   0.83259   0.45046   0.00000  Uiso   1.00
H489   H     0.21603   0.62356   0.70958   0.00000  Uiso   1.00
H490   H     0.25334   0.92372   0.25711   0.00000  Uiso   1.00
H491   H     0.18719   0.84537   0.05246   0.00000  Uiso   1.00
H492   H     0.13864   0.86555   0.05921   0.00000  Uiso   1.00
H493   H     0.20278   0.76641   0.18210   0.00000  Uiso   1.00
H494   H     0.22047   0.90875   0.96753   0.00000  Uiso   1.00
H495   H     0.08429   0.88062   0.98562   0.00000  Uiso   1.00
H496   H     0.21955   0.67158   0.24473   0.00000  Uiso   1.00
H497   H     0.25685   0.97174   0.79227   0.00000  Uiso   1.00
O498   O     0.05053   0.86886   0.71123   0.00000  Uiso   1.00
O499   O     0.22798   0.59461   0.05116   0.00000  Uiso   1.00
O500   O     0.27692   0.98841   0.45754   0.00000  Uiso   1.00
N501   N     0.08827   0.84114   0.57547   0.00000  Uiso   1.00
N502   N     0.21472   0.64570   0.81773   0.00000  Uiso   1.00
N503   N     0.24960   0.92631   0.39473   0.00000  Uiso   1.00
N504   N     0.09016   0.86698   0.86343   0.00000  Uiso   1.00
N505   N     0.21661   0.67154   0.10569   0.00000  Uiso   1.00
N506   N     0.25149   0.95216   0.68269   0.00000  Uiso   1.00
C507   C     0.18402   0.30213   0.07060   0.00000  Uiso   1.00
C508   C     0.15810   0.31920   0.14231   0.00000  Uiso   1.00
C509   C     0.13525   0.31916   0.04220   0.00000  Uiso   1.00
C510   C     0.11362   0.33622   0.13264   0.00000  Uiso   1.00
C511   C     0.07317   0.36020   0.21603   0.00000  Uiso   1.00
C512   C     0.19294   0.26533   0.20908   0.00000  Uiso   1.00
C513   C     0.19939   0.22000   0.16511   0.00000  Uiso   1.00
C514   C     0.20710   0.19172   0.31177   0.00000  Uiso   1.00
C515   C     0.22077   0.13207   0.49881   0.00000  Uiso   1.00
C516   C     0.20255   0.34267   0.09250   0.00000  Uiso   1.00
C517   C     0.21709   0.36236   0.95051   0.00000  Uiso   1.00
C518   C     0.23289   0.39919   0.99902   0.00000  Uiso   1.00
C519   C     0.26148   0.45963   0.00504   0.00000  Uiso   1.00
C520   C     0.18625   0.33252   0.40925   0.00000  Uiso   1.00
C521   C     0.15931   0.33571   0.32625   0.00000  Uiso   1.00
C522   C     0.13770   0.35278   0.41687   0.00000  Uiso   1.00
C523   C     0.11482   0.35276   0.31691   0.00000  Uiso   1.00
C524   C     0.19415   0.28184   0.39302   0.00000  Uiso   1.00
C525   C     0.20185   0.25362   0.53978   0.00000  Uiso   1.00
C526   C     0.20831   0.20825   0.49604   0.00000  Uiso   1.00
C527   C     0.20376   0.35918   0.27643   0.00000  Uiso   1.00
C528   C     0.21954   0.39599   0.32518   0.00000  Uiso   1.00
C529   C     0.23410   0.41573   0.18329   0.00000  Uiso   1.00
H530   H     0.18308   0.28928   0.92741   0.00000  Uiso   1.00
H531   H     0.13432   0.30637   0.89986   0.00000  Uiso   1.00
H532   H     0.19846   0.20723   0.02275   0.00000  Uiso   1.00
H533   H     0.21615   0.34958   0.80819   0.00000  Uiso   1.00
H534   H     0.08078   0.33259   0.95046   0.00000  Uiso   1.00
H535   H     0.21603   0.12356   0.20958   0.00000  Uiso   1.00
H536   H     0.25334   0.42372   0.75711   0.00000  Uiso   1.00
H537   H     0.18719   0.34537   0.55246   0.00000  Uiso   1.00
H538   H     0.13864   0.36555   0.55921   0.00000  Uiso   1.00
H539   H     0.20278   0.26641   0.68210   0.00000  Uiso   1.00
H540   H     0.22047   0.40875   0.46753   0.00000  Uiso   1.00
H541   H     0.08429   0.38062   0.48562   0.00000  Uiso   1.00
H542   H     0.21955   0.17158   0.74473   0.00000  Uiso   1.00
H543   H     0.25685   0.47174   0.29227   0.00000  Uiso   1.00
O544   O     0.05053   0.36886   0.21123   0.00000  Uiso   1.00
O545   O     0.22798   0.09461   0.55116   0.00000  Uiso   1.00
O546   O     0.27692   0.48841   0.95754   0.00000  Uiso   1.00
N547   N     0.08827   0.34114   0.07547   0.00000  Uiso   1.00
N548   N     0.21472   0.14570   0.31773   0.00000  Uiso   1.00
N549   N     0.24960   0.42631   0.89473   0.00000  Uiso   1.00
N550   N     0.09016   0.36698   0.36343   0.00000  Uiso   1.00
N551   N     0.21661   0.17154   0.60569   0.00000  Uiso   1.00
N552   N     0.25149   0.45216   0.18269   0.00000  Uiso   1.00
C553   C     0.81598   0.69787   0.07060   0.00000  Uiso   1.00
C554   C     0.84190   0.68080   0.14231   0.00000  Uiso   1.00
C555   C     0.86475   0.68084   0.04220   0.00000  Uiso   1.00
C556   C     0.88638   0.66378   0.13264   0.00000  Uiso   1.00
C557   C     0.92683   0.63980   0.21603   0.00000  Uiso   1.00
C558   C     0.80706   0.73467   0.20908   0.00000  Uiso   1.00
C559   C     0.80061   0.78000   0.16511   0.00000  Uiso   1.00
C560   C     0.79290   0.80828   0.31177   0.00000  Uiso   1.00
C561   C     0.77923   0.86793   0.49881   0.00000  Uiso   1.00
C562   C     0.79745   0.65733   0.09250   0.00000  Uiso   1.00
C563   C     0.78291   0.63764   0.95051   0.00000  Uiso   1.00
C564   C     0.76711   0.60081   0.99902   0.00000  Uiso   1.00
C565   C     0.73852   0.54037   0.00504   0.00000  Uiso   1.00
C566   C     0.81375   0.66748   0.40925   0.00000  Uiso   1.00
C567   C     0.84069   0.66429   0.32625   0.00000  Uiso   1.00
C568   C     0.86230   0.64722   0.41687   0.00000  Uiso   1.00
C569   C     0.88518   0.64724   0.31691   0.00000  Uiso   1.00
C570   C     0.80585   0.71816   0.39302   0.00000  Uiso   1.00
C571   C     0.79815   0.74638   0.53978   0.00000  Uiso   1.00
C572   C     0.79169   0.79175   0.49604   0.00000  Uiso   1.00
C573   C     0.79624   0.64082   0.27643   0.00000  Uiso   1.00
C574   C     0.78046   0.60401   0.32518   0.00000  Uiso   1.00
C575   C     0.76590   0.58427   0.18329   0.00000  Uiso   1.00
H576   H     0.81692   0.71072   0.92741   0.00000  Uiso   1.00
H577   H     0.86568   0.69363   0.89986   0.00000  Uiso   1.00
H578   H     0.80154   0.79277   0.02275   0.00000  Uiso   1.00
H579   H     0.78385   0.65042   0.80819   0.00000  Uiso   1.00
H580   H     0.91922   0.66741   0.95046   0.00000  Uiso   1.00
H581   H     0.78397   0.87644   0.20958   0.00000  Uiso   1.00
H582   H     0.74666   0.57628   0.75711   0.00000  Uiso   1.00
H583   H     0.81281   0.65463   0.55246   0.00000  Uiso   1.00
H584   H     0.86136   0.63445   0.55921   0.00000  Uiso   1.00
H585   H     0.79722   0.73359   0.68210   0.00000  Uiso   1.00
H586   H     0.77953   0.59125   0.46753   0.00000  Uiso   1.00
H587   H     0.91571   0.61938   0.48562   0.00000  Uiso   1.00
H588   H     0.78045   0.82842   0.74473   0.00000  Uiso   1.00
H589   H     0.74315   0.52826   0.29227   0.00000  Uiso   1.00
O590   O     0.94947   0.63114   0.21123   0.00000  Uiso   1.00
O591   O     0.77202   0.90539   0.55116   0.00000  Uiso   1.00
O592   O     0.72308   0.51159   0.95754   0.00000  Uiso   1.00
N593   N     0.91173   0.65886   0.07547   0.00000  Uiso   1.00
N594   N     0.78528   0.85430   0.31773   0.00000  Uiso   1.00
N595   N     0.75040   0.57369   0.89473   0.00000  Uiso   1.00
N596   N     0.90984   0.63302   0.36343   0.00000  Uiso   1.00
N597   N     0.78339   0.82846   0.60569   0.00000  Uiso   1.00
N598   N     0.74851   0.54784   0.18269   0.00000  Uiso   1.00
C599   C     0.81598   0.19787   0.57060   0.00000  Uiso   1.00
C600   C     0.84190   0.18080   0.64231   0.00000  Uiso   1.00
C601   C     0.86475   0.18084   0.54220   0.00000  Uiso   1.00
C602   C     0.88638   0.16378   0.63264   0.00000  Uiso   1.00
C603   C     0.92683   0.13980   0.71603   0.00000  Uiso   1.00
C604   C     0.80706   0.23467   0.70908   0.00000  Uiso   1.00
C605   C     0.80061   0.28000   0.66511   0.00000  Uiso   1.00
C606   C     0.79290   0.30828   0.81177   0.00000  Uiso   1.00
C607   C     0.77923   0.36793   0.99881   0.00000  Uiso   1.00
C608   C     0.79745   0.15733   0.59250   0.00000  Uiso   1.00
C609   C     0.78291   0.13764   0.45051   0.00000  Uiso   1.00
C610   C     0.76711   0.10081   0.49902   0.00000  Uiso   1.00
C611   C     0.73852   0.04037   0.50504   0.00000  Uiso   1.00
C612   C     0.81375   0.16748   0.90925   0.00000  Uiso   1.00
C613   C     0.84069   0.16429   0.82625   0.00000  Uiso   1.00
C614   C     0.86230   0.14722   0.91687   0.00000  Uiso   1.00
C615   C     0.88518   0.14724   0.81691   0.00000  Uiso   1.00
C616   C     0.80585   0.21816   0.89302   0.00000  Uiso   1.00
C617   C     0.79815   0.24638   0.03978   0.00000  Uiso   1.00
C618   C     0.79169   0.29175   0.99604   0.00000  Uiso   1.00
C619   C     0.79624   0.14082   0.77643   0.00000  Uiso   1.00
C620   C     0.78046   0.10401   0.82518   0.00000  Uiso   1.00
C621   C     0.76590   0.08427   0.68329   0.00000  Uiso   1.00
H622   H     0.81692   0.21072   0.42741   0.00000  Uiso   1.00
H623   H     0.86568   0.19363   0.39986   0.00000  Uiso   1.00
H624   H     0.80154   0.29277   0.52275   0.00000  Uiso   1.00
H625   H     0.78385   0.15042   0.30819   0.00000  Uiso   1.00
H626   H     0.91922   0.16741   0.45046   0.00000  Uiso   1.00
H627   H     0.78397   0.37644   0.70958   0.00000  Uiso   1.00
H628   H     0.74666   0.07628   0.25711   0.00000  Uiso   1.00
H629   H     0.81281   0.15463   0.05246   0.00000  Uiso   1.00
H630   H     0.86136   0.13445   0.05921   0.00000  Uiso   1.00
H631   H     0.79722   0.23359   0.18210   0.00000  Uiso   1.00
H632   H     0.77953   0.09125   0.96753   0.00000  Uiso   1.00
H633   H     0.91571   0.11938   0.98562   0.00000  Uiso   1.00
H634   H     0.78045   0.32842   0.24473   0.00000  Uiso   1.00
H635   H     0.74315   0.02826   0.79227   0.00000  Uiso   1.00
O636   O     0.94947   0.13114   0.71123   0.00000  Uiso   1.00
O637   O     0.77202   0.40539   0.05116   0.00000  Uiso   1.00
O638   O     0.72308   0.01159   0.45754   0.00000  Uiso   1.00
N639   N     0.91173   0.15886   0.57547   0.00000  Uiso   1.00
N640   N     0.78528   0.35430   0.81773   0.00000  Uiso   1.00
N641   N     0.75040   0.07369   0.39473   0.00000  Uiso   1.00
N642   N     0.90984   0.13302   0.86343   0.00000  Uiso   1.00
N643   N     0.78339   0.32846   0.10569   0.00000  Uiso   1.00
N644   N     0.74851   0.04784   0.68269   0.00000  Uiso   1.00
C645   C     0.31598   0.69787   0.57060   0.00000  Uiso   1.00
C646   C     0.34190   0.68080   0.64231   0.00000  Uiso   1.00
C647   C     0.36475   0.68084   0.54220   0.00000  Uiso   1.00
C648   C     0.38638   0.66378   0.63264   0.00000  Uiso   1.00
C649   C     0.42683   0.63980   0.71603   0.00000  Uiso   1.00
C650   C     0.30706   0.73467   0.70908   0.00000  Uiso   1.00
C651   C     0.30061   0.78000   0.66511   0.00000  Uiso   1.00
C652   C     0.29290   0.80828   0.81177   0.00000  Uiso   1.00
C653   C     0.27923   0.86793   0.99881   0.00000  Uiso   1.00
C654   C     0.29745   0.65733   0.59250   0.00000  Uiso   1.00
C655   C     0.28291   0.63764   0.45051   0.00000  Uiso   1.00
C656   C     0.26711   0.60081   0.49902   0.00000  Uiso   1.00
C657   C     0.23852   0.54037   0.50504   0.00000  Uiso   1.00
C658   C     0.31375   0.66748   0.90925   0.00000  Uiso   1.00
C659   C     0.34069   0.66429   0.82625   0.00000  Uiso   1.00
C660   C     0.36230   0.64722   0.91687   0.00000  Uiso   1.00
C661   C     0.38518   0.64724   0.81691   0.00000  Uiso   1.00
C662   C     0.30585   0.71816   0.89302   0.00000  Uiso   1.00
C663   C     0.29815   0.74638   0.03978   0.00000  Uiso   1.00
C664   C     0.29169   0.79175   0.99604   0.00000  Uiso   1.00
C665   C     0.29624   0.64082   0.77643   0.00000  Uiso   1.00
C666   C     0.28046   0.60401   0.82518   0.00000  Uiso   1.00
C667   C     0.26590   0.58427   0.68329   0.00000  Uiso   1.00
H668   H     0.31692   0.71072   0.42741   0.00000  Uiso   1.00
H669   H     0.36568   0.69363   0.39986   0.00000  Uiso   1.00
H670   H     0.30154   0.79277   0.52275   0.00000  Uiso   1.00
H671   H     0.28385   0.65042   0.30819   0.00000  Uiso   1.00
H672   H     0.41922   0.66741   0.45046   0.00000  Uiso   1.00
H673   H     0.28397   0.87644   0.70958   0.00000  Uiso   1.00
H674   H     0.24666   0.57628   0.25711   0.00000  Uiso   1.00
H675   H     0.31281   0.65463   0.05246   0.00000  Uiso   1.00
H676   H     0.36136   0.63445   0.05921   0.00000  Uiso   1.00
H677   H     0.29722   0.73359   0.18210   0.00000  Uiso   1.00
H678   H     0.27953   0.59125   0.96753   0.00000  Uiso   1.00
H679   H     0.41571   0.61938   0.98562   0.00000  Uiso   1.00
H680   H     0.28045   0.82842   0.24473   0.00000  Uiso   1.00
H681   H     0.24315   0.52826   0.79227   0.00000  Uiso   1.00
O682   O     0.44947   0.63114   0.71123   0.00000  Uiso   1.00
O683   O     0.27202   0.90539   0.05116   0.00000  Uiso   1.00
O684   O     0.22308   0.51159   0.45754   0.00000  Uiso   1.00
N685   N     0.41173   0.65886   0.57547   0.00000  Uiso   1.00
N686   N     0.28528   0.85430   0.81773   0.00000  Uiso   1.00
N687   N     0.25040   0.57369   0.39473   0.00000  Uiso   1.00
N688   N     0.40984   0.63302   0.86343   0.00000  Uiso   1.00
N689   N     0.28339   0.82846   0.10569   0.00000  Uiso   1.00
N690   N     0.24851   0.54784   0.68269   0.00000  Uiso   1.00
C691   C     0.31598   0.19787   0.07060   0.00000  Uiso   1.00
C692   C     0.34190   0.18080   0.14231   0.00000  Uiso   1.00
C693   C     0.36475   0.18084   0.04220   0.00000  Uiso   1.00
C694   C     0.38638   0.16378   0.13264   0.00000  Uiso   1.00
C695   C     0.42683   0.13980   0.21603   0.00000  Uiso   1.00
C696   C     0.30706   0.23467   0.20908   0.00000  Uiso   1.00
C697   C     0.30061   0.28000   0.16511   0.00000  Uiso   1.00
C698   C     0.29290   0.30828   0.31177   0.00000  Uiso   1.00
C699   C     0.27923   0.36793   0.49881   0.00000  Uiso   1.00
C700   C     0.29745   0.15733   0.09250   0.00000  Uiso   1.00
C701   C     0.28291   0.13764   0.95051   0.00000  Uiso   1.00
C702   C     0.26711   0.10081   0.99902   0.00000  Uiso   1.00
C703   C     0.23852   0.04037   0.00504   0.00000  Uiso   1.00
C704   C     0.31375   0.16748   0.40925   0.00000  Uiso   1.00
C705   C     0.34069   0.16429   0.32625   0.00000  Uiso   1.00
C706   C     0.36230   0.14722   0.41687   0.00000  Uiso   1.00
C707   C     0.38518   0.14724   0.31691   0.00000  Uiso   1.00
C708   C     0.30585   0.21816   0.39302   0.00000  Uiso   1.00
C709   C     0.29815   0.24638   0.53978   0.00000  Uiso   1.00
C710   C     0.29169   0.29175   0.49604   0.00000  Uiso   1.00
C711   C     0.29624   0.14082   0.27643   0.00000  Uiso   1.00
C712   C     0.28046   0.10401   0.32518   0.00000  Uiso   1.00
C713   C     0.26590   0.08427   0.18329   0.00000  Uiso   1.00
H714   H     0.31692   0.21072   0.92741   0.00000  Uiso   1.00
H715   H     0.36568   0.19363   0.89986   0.00000  Uiso   1.00
H716   H     0.30154   0.29277   0.02275   0.00000  Uiso   1.00
H717   H     0.28385   0.15042   0.80819   0.00000  Uiso   1.00
H718   H     0.41922   0.16741   0.95046   0.00000  Uiso   1.00
H719   H     0.28397   0.37644   0.20958   0.00000  Uiso   1.00
H720   H     0.24666   0.07628   0.75711   0.00000  Uiso   1.00
H721   H     0.31281   0.15463   0.55246   0.00000  Uiso   1.00
H722   H     0.36136   0.13445   0.55921   0.00000  Uiso   1.00
H723   H     0.29722   0.23359   0.68210   0.00000  Uiso   1.00
H724   H     0.27953   0.09125   0.46753   0.00000  Uiso   1.00
H725   H     0.41571   0.11938   0.48562   0.00000  Uiso   1.00
H726   H     0.28045   0.32842   0.74473   0.00000  Uiso   1.00
H727   H     0.24315   0.02826   0.29227   0.00000  Uiso   1.00
O728   O     0.44947   0.13114   0.21123   0.00000  Uiso   1.00
O729   O     0.27202   0.40539   0.55116   0.00000  Uiso   1.00
O730   O     0.22308   0.01159   0.95754   0.00000  Uiso   1.00
N731   N     0.41173   0.15886   0.07547   0.00000  Uiso   1.00
N732   N     0.28528   0.35430   0.31773   0.00000  Uiso   1.00
N733   N     0.25040   0.07369   0.89473   0.00000  Uiso   1.00
N734   N     0.40984   0.13302   0.36343   0.00000  Uiso   1.00
N735   N     0.28339   0.32846   0.60569   0.00000  Uiso   1.00
N736   N     0.24851   0.04784   0.18269   0.00000  Uiso   1.00
