data_job_04771
_audit_creation_date              2018-12-19
_audit_creation_method            'Materials Studio'
_symmetry_space_group_name_H-M    'P1'
_symmetry_Int_Tables_number       1
_symmetry_cell_setting            triclinic
loop_
_symmetry_equiv_pos_as_xyz
  x,y,z
_cell_length_a                    36.9573
_cell_length_b                    9.5899
_cell_length_c                    29.0298
_cell_angle_alpha                 90.0000
_cell_angle_beta                  90.0000
_cell_angle_gamma                 90.0000
loop_
_atom_site_label
_atom_site_type_symbol
_atom_site_fract_x
_atom_site_fract_y
_atom_site_fract_z
_atom_site_U_iso_or_equiv
_atom_site_adp_type
_atom_site_occupancy
C1     C     0.11183   0.00044   0.16602   0.00000  Uiso   1.00
C2     C     0.13159   0.10287   0.13469   0.00000  Uiso   1.00
C3     C     0.13142   0.24696   0.13912   0.00000  Uiso   1.00
C4     C     0.15120   0.32233   0.10696   0.00000  Uiso   1.00
C5     C     0.17893   0.49150   0.06367   0.00000  Uiso   1.00
C6     C     0.08755   0.91385   0.13463   0.00000  Uiso   1.00
C7     C     0.05035   0.89899   0.13902   0.00000  Uiso   1.00
C8     C     0.03305   0.81523   0.10682   0.00000  Uiso   1.00
C9     C     0.99241   0.69085   0.06346   0.00000  Uiso   1.00
C10    C     0.14062   0.90074   0.18421   0.00000  Uiso   1.00
C11    C     0.14805   0.87482   0.23028   0.00000  Uiso   1.00
C12    C     0.17543   0.77999   0.23983   0.00000  Uiso   1.00
C13    C     0.21721   0.63526   0.27344   0.00000  Uiso   1.00
C14    C     0.14724   0.87807   0.10104   0.00000  Uiso   1.00
C15    C     0.15082   0.03640   0.09939   0.00000  Uiso   1.00
C16    C     0.17060   0.11157   0.06723   0.00000  Uiso   1.00
C17    C     0.17047   0.25575   0.07161   0.00000  Uiso   1.00
C18    C     0.10678   0.84738   0.09934   0.00000  Uiso   1.00
C19    C     0.08953   0.76361   0.06713   0.00000  Uiso   1.00
C20    C     0.05232   0.74864   0.07146   0.00000  Uiso   1.00
C21    C     0.15986   0.83427   0.14892   0.00000  Uiso   1.00
C22    C     0.18723   0.73945   0.15839   0.00000  Uiso   1.00
C23    C     0.19470   0.71340   0.20447   0.00000  Uiso   1.00
H24    H     0.09686   0.05218   0.19349   0.00000  Uiso   1.00
H25    H     0.11653   0.29836   0.16643   0.00000  Uiso   1.00
H26    H     0.03547   0.95043   0.16633   0.00000  Uiso   1.00
H27    H     0.13316   0.92628   0.25758   0.00000  Uiso   1.00
H28    H     0.14682   0.54198   0.12085   0.00000  Uiso   1.00
H29    H     0.97591   0.80833   0.12066   0.00000  Uiso   1.00
H30    H     0.18190   0.75739   0.31308   0.00000  Uiso   1.00
H31    H     0.16222   0.82632   0.07356   0.00000  Uiso   1.00
H32    H     0.18548   0.06011   0.03992   0.00000  Uiso   1.00
H33    H     0.10442   0.71218   0.03982   0.00000  Uiso   1.00
H34    H     0.20211   0.68803   0.13107   0.00000  Uiso   1.00
H35    H     0.20278   0.34861   0.01817   0.00000  Uiso   1.00
H36    H     0.03186   0.61495   0.01798   0.00000  Uiso   1.00
H37    H     0.23786   0.56402   0.21039   0.00000  Uiso   1.00
O38    O     0.18892   0.60317   0.04953   0.00000  Uiso   1.00
O39    O     0.96468   0.64062   0.04929   0.00000  Uiso   1.00
O40    O     0.23494   0.57380   0.30173   0.00000  Uiso   1.00
N41    N     0.15680   0.46439   0.10131   0.00000  Uiso   1.00
N42    N     0.99701   0.77848   0.10112   0.00000  Uiso   1.00
N43    N     0.18958   0.73083   0.28102   0.00000  Uiso   1.00
N44    N     0.18692   0.36034   0.04606   0.00000  Uiso   1.00
N45    N     0.02712   0.67443   0.04587   0.00000  Uiso   1.00
N46    N     0.21970   0.62678   0.22577   0.00000  Uiso   1.00
C47    C     0.61183   0.50044   0.16602   0.00000  Uiso   1.00
C48    C     0.63159   0.60287   0.13469   0.00000  Uiso   1.00
C49    C     0.63142   0.74696   0.13912   0.00000  Uiso   1.00
C50    C     0.65120   0.82233   0.10696   0.00000  Uiso   1.00
C51    C     0.67893   0.99150   0.06367   0.00000  Uiso   1.00
C52    C     0.58755   0.41385   0.13463   0.00000  Uiso   1.00
C53    C     0.55035   0.39899   0.13902   0.00000  Uiso   1.00
C54    C     0.53305   0.31523   0.10682   0.00000  Uiso   1.00
C55    C     0.49241   0.19085   0.06346   0.00000  Uiso   1.00
C56    C     0.64062   0.40074   0.18421   0.00000  Uiso   1.00
C57    C     0.64805   0.37482   0.23028   0.00000  Uiso   1.00
C58    C     0.67543   0.27999   0.23983   0.00000  Uiso   1.00
C59    C     0.71721   0.13526   0.27344   0.00000  Uiso   1.00
C60    C     0.64724   0.37807   0.10104   0.00000  Uiso   1.00
C61    C     0.65082   0.53640   0.09939   0.00000  Uiso   1.00
C62    C     0.67060   0.61157   0.06723   0.00000  Uiso   1.00
C63    C     0.67047   0.75575   0.07161   0.00000  Uiso   1.00
C64    C     0.60678   0.34738   0.09934   0.00000  Uiso   1.00
C65    C     0.58953   0.26361   0.06713   0.00000  Uiso   1.00
C66    C     0.55232   0.24864   0.07146   0.00000  Uiso   1.00
C67    C     0.65986   0.33427   0.14892   0.00000  Uiso   1.00
C68    C     0.68723   0.23945   0.15839   0.00000  Uiso   1.00
C69    C     0.69470   0.21340   0.20447   0.00000  Uiso   1.00
H70    H     0.59686   0.55218   0.19349   0.00000  Uiso   1.00
H71    H     0.61653   0.79836   0.16643   0.00000  Uiso   1.00
H72    H     0.53547   0.45043   0.16633   0.00000  Uiso   1.00
H73    H     0.63316   0.42628   0.25758   0.00000  Uiso   1.00
H74    H     0.64682   0.04198   0.12085   0.00000  Uiso   1.00
H75    H     0.47591   0.30833   0.12066   0.00000  Uiso   1.00
H76    H     0.68190   0.25739   0.31308   0.00000  Uiso   1.00
H77    H     0.66222   0.32632   0.07356   0.00000  Uiso   1.00
H78    H     0.68548   0.56011   0.03992   0.00000  Uiso   1.00
H79    H     0.60442   0.21218   0.03982   0.00000  Uiso   1.00
H80    H     0.70211   0.18803   0.13107   0.00000  Uiso   1.00
H81    H     0.70278   0.84861   0.01817   0.00000  Uiso   1.00
H82    H     0.53186   0.11495   0.01798   0.00000  Uiso   1.00
H83    H     0.73786   0.06402   0.21039   0.00000  Uiso   1.00
O84    O     0.68892   0.10317   0.04953   0.00000  Uiso   1.00
O85    O     0.46468   0.14062   0.04929   0.00000  Uiso   1.00
O86    O     0.73494   0.07380   0.30173   0.00000  Uiso   1.00
N87    N     0.65680   0.96439   0.10131   0.00000  Uiso   1.00
N88    N     0.49701   0.27848   0.10112   0.00000  Uiso   1.00
N89    N     0.68958   0.23083   0.28102   0.00000  Uiso   1.00
N90    N     0.68692   0.86034   0.04606   0.00000  Uiso   1.00
N91    N     0.52712   0.17443   0.04587   0.00000  Uiso   1.00
N92    N     0.71970   0.12678   0.22577   0.00000  Uiso   1.00
C93    C     0.38817   0.49956   0.16602   0.00000  Uiso   1.00
C94    C     0.36841   0.39713   0.13469   0.00000  Uiso   1.00
C95    C     0.36858   0.25304   0.13912   0.00000  Uiso   1.00
C96    C     0.34880   0.17767   0.10696   0.00000  Uiso   1.00
C97    C     0.32107   0.00850   0.06367   0.00000  Uiso   1.00
C98    C     0.41245   0.58615   0.13463   0.00000  Uiso   1.00
C99    C     0.44965   0.60101   0.13902   0.00000  Uiso   1.00
C100   C     0.46695   0.68477   0.10682   0.00000  Uiso   1.00
C101   C     0.50759   0.80915   0.06346   0.00000  Uiso   1.00
C102   C     0.35938   0.59926   0.18421   0.00000  Uiso   1.00
C103   C     0.35195   0.62518   0.23028   0.00000  Uiso   1.00
C104   C     0.32457   0.72001   0.23983   0.00000  Uiso   1.00
C105   C     0.28279   0.86474   0.27344   0.00000  Uiso   1.00
C106   C     0.35276   0.62193   0.10104   0.00000  Uiso   1.00
C107   C     0.34918   0.46360   0.09939   0.00000  Uiso   1.00
C108   C     0.32940   0.38843   0.06723   0.00000  Uiso   1.00
C109   C     0.32953   0.24425   0.07161   0.00000  Uiso   1.00
C110   C     0.39322   0.65262   0.09934   0.00000  Uiso   1.00
C111   C     0.41047   0.73639   0.06713   0.00000  Uiso   1.00
C112   C     0.44768   0.75136   0.07146   0.00000  Uiso   1.00
C113   C     0.34014   0.66573   0.14892   0.00000  Uiso   1.00
C114   C     0.31277   0.76055   0.15839   0.00000  Uiso   1.00
C115   C     0.30530   0.78660   0.20447   0.00000  Uiso   1.00
H116   H     0.40314   0.44782   0.19349   0.00000  Uiso   1.00
H117   H     0.38347   0.20164   0.16643   0.00000  Uiso   1.00
H118   H     0.46453   0.54957   0.16633   0.00000  Uiso   1.00
H119   H     0.36684   0.57372   0.25758   0.00000  Uiso   1.00
H120   H     0.35318   0.95802   0.12085   0.00000  Uiso   1.00
H121   H     0.52409   0.69167   0.12066   0.00000  Uiso   1.00
H122   H     0.31810   0.74261   0.31308   0.00000  Uiso   1.00
H123   H     0.33778   0.67368   0.07356   0.00000  Uiso   1.00
H124   H     0.31452   0.43989   0.03992   0.00000  Uiso   1.00
H125   H     0.39558   0.78782   0.03982   0.00000  Uiso   1.00
H126   H     0.29789   0.81197   0.13107   0.00000  Uiso   1.00
H127   H     0.29722   0.15139   0.01817   0.00000  Uiso   1.00
H128   H     0.46814   0.88505   0.01798   0.00000  Uiso   1.00
H129   H     0.26214   0.93598   0.21039   0.00000  Uiso   1.00
O130   O     0.31108   0.89683   0.04953   0.00000  Uiso   1.00
O131   O     0.53532   0.85938   0.04929   0.00000  Uiso   1.00
O132   O     0.26506   0.92620   0.30173   0.00000  Uiso   1.00
N133   N     0.34320   0.03561   0.10131   0.00000  Uiso   1.00
N134   N     0.50299   0.72152   0.10112   0.00000  Uiso   1.00
N135   N     0.31042   0.76917   0.28102   0.00000  Uiso   1.00
N136   N     0.31308   0.13966   0.04606   0.00000  Uiso   1.00
N137   N     0.47288   0.82557   0.04587   0.00000  Uiso   1.00
N138   N     0.28030   0.87322   0.22577   0.00000  Uiso   1.00
C139   C     0.88817   0.99956   0.16602   0.00000  Uiso   1.00
C140   C     0.86841   0.89713   0.13469   0.00000  Uiso   1.00
C141   C     0.86858   0.75304   0.13912   0.00000  Uiso   1.00
C142   C     0.84880   0.67767   0.10696   0.00000  Uiso   1.00
C143   C     0.82107   0.50850   0.06367   0.00000  Uiso   1.00
C144   C     0.91245   0.08615   0.13463   0.00000  Uiso   1.00
C145   C     0.94965   0.10101   0.13902   0.00000  Uiso   1.00
C146   C     0.96695   0.18477   0.10682   0.00000  Uiso   1.00
C147   C     0.00759   0.30915   0.06346   0.00000  Uiso   1.00
C148   C     0.85938   0.09926   0.18421   0.00000  Uiso   1.00
C149   C     0.85195   0.12518   0.23028   0.00000  Uiso   1.00
C150   C     0.82457   0.22001   0.23983   0.00000  Uiso   1.00
C151   C     0.78279   0.36474   0.27344   0.00000  Uiso   1.00
C152   C     0.85276   0.12193   0.10104   0.00000  Uiso   1.00
C153   C     0.84918   0.96360   0.09939   0.00000  Uiso   1.00
C154   C     0.82940   0.88843   0.06723   0.00000  Uiso   1.00
C155   C     0.82953   0.74425   0.07161   0.00000  Uiso   1.00
C156   C     0.89322   0.15262   0.09934   0.00000  Uiso   1.00
C157   C     0.91047   0.23639   0.06713   0.00000  Uiso   1.00
C158   C     0.94768   0.25136   0.07146   0.00000  Uiso   1.00
C159   C     0.84014   0.16573   0.14892   0.00000  Uiso   1.00
C160   C     0.81277   0.26055   0.15839   0.00000  Uiso   1.00
C161   C     0.80530   0.28660   0.20447   0.00000  Uiso   1.00
H162   H     0.90314   0.94782   0.19349   0.00000  Uiso   1.00
H163   H     0.88347   0.70164   0.16643   0.00000  Uiso   1.00
H164   H     0.96453   0.04957   0.16633   0.00000  Uiso   1.00
H165   H     0.86684   0.07372   0.25758   0.00000  Uiso   1.00
H166   H     0.85318   0.45802   0.12085   0.00000  Uiso   1.00
H167   H     0.02409   0.19167   0.12066   0.00000  Uiso   1.00
H168   H     0.81810   0.24261   0.31308   0.00000  Uiso   1.00
H169   H     0.83778   0.17368   0.07356   0.00000  Uiso   1.00
H170   H     0.81452   0.93989   0.03992   0.00000  Uiso   1.00
H171   H     0.89558   0.28782   0.03982   0.00000  Uiso   1.00
H172   H     0.79789   0.31197   0.13107   0.00000  Uiso   1.00
H173   H     0.79722   0.65139   0.01817   0.00000  Uiso   1.00
H174   H     0.96814   0.38505   0.01798   0.00000  Uiso   1.00
H175   H     0.76214   0.43598   0.21039   0.00000  Uiso   1.00
O176   O     0.81108   0.39683   0.04953   0.00000  Uiso   1.00
O177   O     0.03532   0.35938   0.04929   0.00000  Uiso   1.00
O178   O     0.76506   0.42620   0.30173   0.00000  Uiso   1.00
N179   N     0.84320   0.53561   0.10131   0.00000  Uiso   1.00
N180   N     0.00299   0.22152   0.10112   0.00000  Uiso   1.00
N181   N     0.81042   0.26917   0.28102   0.00000  Uiso   1.00
N182   N     0.81308   0.63966   0.04606   0.00000  Uiso   1.00
N183   N     0.97288   0.32557   0.04587   0.00000  Uiso   1.00
N184   N     0.78030   0.37322   0.22577   0.00000  Uiso   1.00
C185   C     0.88817   0.00044   0.83398   0.00000  Uiso   1.00
C186   C     0.86841   0.10287   0.86531   0.00000  Uiso   1.00
C187   C     0.86858   0.24696   0.86088   0.00000  Uiso   1.00
C188   C     0.84880   0.32233   0.89304   0.00000  Uiso   1.00
C189   C     0.82107   0.49150   0.93633   0.00000  Uiso   1.00
C190   C     0.91245   0.91385   0.86537   0.00000  Uiso   1.00
C191   C     0.94965   0.89899   0.86098   0.00000  Uiso   1.00
C192   C     0.96695   0.81523   0.89318   0.00000  Uiso   1.00
C193   C     0.00759   0.69085   0.93654   0.00000  Uiso   1.00
C194   C     0.85938   0.90074   0.81579   0.00000  Uiso   1.00
C195   C     0.85195   0.87482   0.76972   0.00000  Uiso   1.00
C196   C     0.82457   0.77999   0.76017   0.00000  Uiso   1.00
C197   C     0.78279   0.63526   0.72656   0.00000  Uiso   1.00
C198   C     0.85276   0.87807   0.89896   0.00000  Uiso   1.00
C199   C     0.84918   0.03640   0.90061   0.00000  Uiso   1.00
C200   C     0.82940   0.11157   0.93277   0.00000  Uiso   1.00
C201   C     0.82953   0.25575   0.92839   0.00000  Uiso   1.00
C202   C     0.89322   0.84738   0.90066   0.00000  Uiso   1.00
C203   C     0.91047   0.76361   0.93287   0.00000  Uiso   1.00
C204   C     0.94768   0.74864   0.92854   0.00000  Uiso   1.00
C205   C     0.84014   0.83427   0.85108   0.00000  Uiso   1.00
C206   C     0.81277   0.73945   0.84161   0.00000  Uiso   1.00
C207   C     0.80530   0.71340   0.79553   0.00000  Uiso   1.00
H208   H     0.90314   0.05218   0.80651   0.00000  Uiso   1.00
H209   H     0.88347   0.29836   0.83357   0.00000  Uiso   1.00
H210   H     0.96453   0.95043   0.83367   0.00000  Uiso   1.00
H211   H     0.86684   0.92628   0.74242   0.00000  Uiso   1.00
H212   H     0.85318   0.54198   0.87915   0.00000  Uiso   1.00
H213   H     0.02409   0.80833   0.87934   0.00000  Uiso   1.00
H214   H     0.81810   0.75739   0.68692   0.00000  Uiso   1.00
H215   H     0.83778   0.82632   0.92644   0.00000  Uiso   1.00
H216   H     0.81452   0.06011   0.96008   0.00000  Uiso   1.00
H217   H     0.89558   0.71218   0.96018   0.00000  Uiso   1.00
H218   H     0.79789   0.68803   0.86893   0.00000  Uiso   1.00
H219   H     0.79722   0.34861   0.98183   0.00000  Uiso   1.00
H220   H     0.96814   0.61495   0.98202   0.00000  Uiso   1.00
H221   H     0.76214   0.56402   0.78961   0.00000  Uiso   1.00
O222   O     0.81108   0.60317   0.95047   0.00000  Uiso   1.00
O223   O     0.03532   0.64062   0.95071   0.00000  Uiso   1.00
O224   O     0.76506   0.57380   0.69827   0.00000  Uiso   1.00
N225   N     0.84320   0.46439   0.89869   0.00000  Uiso   1.00
N226   N     0.00299   0.77848   0.89888   0.00000  Uiso   1.00
N227   N     0.81042   0.73083   0.71898   0.00000  Uiso   1.00
N228   N     0.81308   0.36034   0.95394   0.00000  Uiso   1.00
N229   N     0.97288   0.67443   0.95413   0.00000  Uiso   1.00
N230   N     0.78030   0.62678   0.77423   0.00000  Uiso   1.00
C231   C     0.38817   0.50044   0.83398   0.00000  Uiso   1.00
C232   C     0.36841   0.60287   0.86531   0.00000  Uiso   1.00
C233   C     0.36858   0.74696   0.86088   0.00000  Uiso   1.00
C234   C     0.34880   0.82233   0.89304   0.00000  Uiso   1.00
C235   C     0.32107   0.99150   0.93633   0.00000  Uiso   1.00
C236   C     0.41245   0.41385   0.86537   0.00000  Uiso   1.00
C237   C     0.44965   0.39899   0.86098   0.00000  Uiso   1.00
C238   C     0.46695   0.31523   0.89318   0.00000  Uiso   1.00
C239   C     0.50759   0.19085   0.93654   0.00000  Uiso   1.00
C240   C     0.35938   0.40074   0.81579   0.00000  Uiso   1.00
C241   C     0.35195   0.37482   0.76972   0.00000  Uiso   1.00
C242   C     0.32457   0.27999   0.76017   0.00000  Uiso   1.00
C243   C     0.28279   0.13526   0.72656   0.00000  Uiso   1.00
C244   C     0.35276   0.37807   0.89896   0.00000  Uiso   1.00
C245   C     0.34918   0.53640   0.90061   0.00000  Uiso   1.00
C246   C     0.32940   0.61157   0.93277   0.00000  Uiso   1.00
C247   C     0.32953   0.75575   0.92839   0.00000  Uiso   1.00
C248   C     0.39322   0.34738   0.90066   0.00000  Uiso   1.00
C249   C     0.41047   0.26361   0.93287   0.00000  Uiso   1.00
C250   C     0.44768   0.24864   0.92854   0.00000  Uiso   1.00
C251   C     0.34014   0.33427   0.85108   0.00000  Uiso   1.00
C252   C     0.31277   0.23945   0.84161   0.00000  Uiso   1.00
C253   C     0.30530   0.21340   0.79553   0.00000  Uiso   1.00
H254   H     0.40314   0.55218   0.80651   0.00000  Uiso   1.00
H255   H     0.38347   0.79836   0.83357   0.00000  Uiso   1.00
H256   H     0.46453   0.45043   0.83367   0.00000  Uiso   1.00
H257   H     0.36684   0.42628   0.74242   0.00000  Uiso   1.00
H258   H     0.35318   0.04198   0.87915   0.00000  Uiso   1.00
H259   H     0.52409   0.30833   0.87934   0.00000  Uiso   1.00
H260   H     0.31810   0.25739   0.68692   0.00000  Uiso   1.00
H261   H     0.33778   0.32632   0.92644   0.00000  Uiso   1.00
H262   H     0.31452   0.56011   0.96008   0.00000  Uiso   1.00
H263   H     0.39558   0.21218   0.96018   0.00000  Uiso   1.00
H264   H     0.29789   0.18803   0.86893   0.00000  Uiso   1.00
H265   H     0.29722   0.84861   0.98183   0.00000  Uiso   1.00
H266   H     0.46814   0.11495   0.98202   0.00000  Uiso   1.00
H267   H     0.26214   0.06402   0.78961   0.00000  Uiso   1.00
O268   O     0.31108   0.10317   0.95047   0.00000  Uiso   1.00
O269   O     0.53532   0.14062   0.95071   0.00000  Uiso   1.00
O270   O     0.26506   0.07380   0.69827   0.00000  Uiso   1.00
N271   N     0.34320   0.96439   0.89869   0.00000  Uiso   1.00
N272   N     0.50299   0.27848   0.89888   0.00000  Uiso   1.00
N273   N     0.31042   0.23083   0.71898   0.00000  Uiso   1.00
N274   N     0.31308   0.86034   0.95394   0.00000  Uiso   1.00
N275   N     0.47288   0.17443   0.95413   0.00000  Uiso   1.00
N276   N     0.28030   0.12678   0.77423   0.00000  Uiso   1.00
C277   C     0.61183   0.49956   0.83398   0.00000  Uiso   1.00
C278   C     0.63159   0.39713   0.86531   0.00000  Uiso   1.00
C279   C     0.63142   0.25304   0.86088   0.00000  Uiso   1.00
C280   C     0.65120   0.17767   0.89304   0.00000  Uiso   1.00
C281   C     0.67893   0.00850   0.93633   0.00000  Uiso   1.00
C282   C     0.58755   0.58615   0.86537   0.00000  Uiso   1.00
C283   C     0.55035   0.60101   0.86098   0.00000  Uiso   1.00
C284   C     0.53305   0.68477   0.89318   0.00000  Uiso   1.00
C285   C     0.49241   0.80915   0.93654   0.00000  Uiso   1.00
C286   C     0.64062   0.59926   0.81579   0.00000  Uiso   1.00
C287   C     0.64805   0.62518   0.76972   0.00000  Uiso   1.00
C288   C     0.67543   0.72001   0.76017   0.00000  Uiso   1.00
C289   C     0.71721   0.86474   0.72656   0.00000  Uiso   1.00
C290   C     0.64724   0.62193   0.89896   0.00000  Uiso   1.00
C291   C     0.65082   0.46360   0.90061   0.00000  Uiso   1.00
C292   C     0.67060   0.38843   0.93277   0.00000  Uiso   1.00
C293   C     0.67047   0.24425   0.92839   0.00000  Uiso   1.00
C294   C     0.60678   0.65262   0.90066   0.00000  Uiso   1.00
C295   C     0.58953   0.73639   0.93287   0.00000  Uiso   1.00
C296   C     0.55232   0.75136   0.92854   0.00000  Uiso   1.00
C297   C     0.65986   0.66573   0.85108   0.00000  Uiso   1.00
C298   C     0.68723   0.76055   0.84161   0.00000  Uiso   1.00
C299   C     0.69470   0.78660   0.79553   0.00000  Uiso   1.00
H300   H     0.59686   0.44782   0.80651   0.00000  Uiso   1.00
H301   H     0.61653   0.20164   0.83357   0.00000  Uiso   1.00
H302   H     0.53547   0.54957   0.83367   0.00000  Uiso   1.00
H303   H     0.63316   0.57372   0.74242   0.00000  Uiso   1.00
H304   H     0.64682   0.95802   0.87915   0.00000  Uiso   1.00
H305   H     0.47591   0.69167   0.87934   0.00000  Uiso   1.00
H306   H     0.68190   0.74261   0.68692   0.00000  Uiso   1.00
H307   H     0.66222   0.67368   0.92644   0.00000  Uiso   1.00
H308   H     0.68548   0.43989   0.96008   0.00000  Uiso   1.00
H309   H     0.60442   0.78782   0.96018   0.00000  Uiso   1.00
H310   H     0.70211   0.81197   0.86893   0.00000  Uiso   1.00
H311   H     0.70278   0.15139   0.98183   0.00000  Uiso   1.00
H312   H     0.53186   0.88505   0.98202   0.00000  Uiso   1.00
H313   H     0.73786   0.93598   0.78961   0.00000  Uiso   1.00
O314   O     0.68892   0.89683   0.95047   0.00000  Uiso   1.00
O315   O     0.46468   0.85938   0.95071   0.00000  Uiso   1.00
O316   O     0.73494   0.92620   0.69827   0.00000  Uiso   1.00
N317   N     0.65680   0.03561   0.89869   0.00000  Uiso   1.00
N318   N     0.49701   0.72152   0.89888   0.00000  Uiso   1.00
N319   N     0.68958   0.76917   0.71898   0.00000  Uiso   1.00
N320   N     0.68692   0.13966   0.95394   0.00000  Uiso   1.00
N321   N     0.52712   0.82557   0.95413   0.00000  Uiso   1.00
N322   N     0.71970   0.87322   0.77423   0.00000  Uiso   1.00
C323   C     0.11183   0.99956   0.83398   0.00000  Uiso   1.00
C324   C     0.13159   0.89713   0.86531   0.00000  Uiso   1.00
C325   C     0.13142   0.75304   0.86088   0.00000  Uiso   1.00
C326   C     0.15120   0.67767   0.89304   0.00000  Uiso   1.00
C327   C     0.17893   0.50850   0.93633   0.00000  Uiso   1.00
C328   C     0.08755   0.08615   0.86537   0.00000  Uiso   1.00
C329   C     0.05035   0.10101   0.86098   0.00000  Uiso   1.00
C330   C     0.03305   0.18477   0.89318   0.00000  Uiso   1.00
C331   C     0.99241   0.30915   0.93654   0.00000  Uiso   1.00
C332   C     0.14062   0.09926   0.81579   0.00000  Uiso   1.00
C333   C     0.14805   0.12518   0.76972   0.00000  Uiso   1.00
C334   C     0.17543   0.22001   0.76017   0.00000  Uiso   1.00
C335   C     0.21721   0.36474   0.72656   0.00000  Uiso   1.00
C336   C     0.14724   0.12193   0.89896   0.00000  Uiso   1.00
C337   C     0.15082   0.96360   0.90061   0.00000  Uiso   1.00
C338   C     0.17060   0.88843   0.93277   0.00000  Uiso   1.00
C339   C     0.17047   0.74425   0.92839   0.00000  Uiso   1.00
C340   C     0.10678   0.15262   0.90066   0.00000  Uiso   1.00
C341   C     0.08953   0.23639   0.93287   0.00000  Uiso   1.00
C342   C     0.05232   0.25136   0.92854   0.00000  Uiso   1.00
C343   C     0.15986   0.16573   0.85108   0.00000  Uiso   1.00
C344   C     0.18723   0.26055   0.84161   0.00000  Uiso   1.00
C345   C     0.19470   0.28660   0.79553   0.00000  Uiso   1.00
H346   H     0.09686   0.94782   0.80651   0.00000  Uiso   1.00
H347   H     0.11653   0.70164   0.83357   0.00000  Uiso   1.00
H348   H     0.03547   0.04957   0.83367   0.00000  Uiso   1.00
H349   H     0.13316   0.07372   0.74242   0.00000  Uiso   1.00
H350   H     0.14682   0.45802   0.87915   0.00000  Uiso   1.00
H351   H     0.97591   0.19167   0.87934   0.00000  Uiso   1.00
H352   H     0.18190   0.24261   0.68692   0.00000  Uiso   1.00
H353   H     0.16222   0.17368   0.92644   0.00000  Uiso   1.00
H354   H     0.18548   0.93989   0.96008   0.00000  Uiso   1.00
H355   H     0.10442   0.28782   0.96018   0.00000  Uiso   1.00
H356   H     0.20211   0.31197   0.86893   0.00000  Uiso   1.00
H357   H     0.20278   0.65139   0.98183   0.00000  Uiso   1.00
H358   H     0.03186   0.38505   0.98202   0.00000  Uiso   1.00
H359   H     0.23786   0.43598   0.78961   0.00000  Uiso   1.00
O360   O     0.18892   0.39683   0.95047   0.00000  Uiso   1.00
O361   O     0.96468   0.35938   0.95071   0.00000  Uiso   1.00
O362   O     0.23494   0.42620   0.69827   0.00000  Uiso   1.00
N363   N     0.15680   0.53561   0.89869   0.00000  Uiso   1.00
N364   N     0.99701   0.22152   0.89888   0.00000  Uiso   1.00
N365   N     0.18958   0.26917   0.71898   0.00000  Uiso   1.00
N366   N     0.18692   0.63966   0.95394   0.00000  Uiso   1.00
N367   N     0.02712   0.32557   0.95413   0.00000  Uiso   1.00
N368   N     0.21970   0.37322   0.77423   0.00000  Uiso   1.00
C369   C     0.88817   0.49956   0.33398   0.00000  Uiso   1.00
C370   C     0.86841   0.39713   0.36531   0.00000  Uiso   1.00
C371   C     0.86858   0.25304   0.36088   0.00000  Uiso   1.00
C372   C     0.84880   0.17767   0.39304   0.00000  Uiso   1.00
C373   C     0.82107   0.00850   0.43633   0.00000  Uiso   1.00
C374   C     0.91245   0.58615   0.36537   0.00000  Uiso   1.00
C375   C     0.94965   0.60101   0.36098   0.00000  Uiso   1.00
C376   C     0.96695   0.68477   0.39318   0.00000  Uiso   1.00
C377   C     0.00759   0.80915   0.43654   0.00000  Uiso   1.00
C378   C     0.85938   0.59926   0.31579   0.00000  Uiso   1.00
C379   C     0.85195   0.62518   0.26972   0.00000  Uiso   1.00
C380   C     0.82457   0.72001   0.26017   0.00000  Uiso   1.00
C381   C     0.78279   0.86474   0.22656   0.00000  Uiso   1.00
C382   C     0.85276   0.62193   0.39896   0.00000  Uiso   1.00
C383   C     0.84918   0.46360   0.40061   0.00000  Uiso   1.00
C384   C     0.82940   0.38843   0.43277   0.00000  Uiso   1.00
C385   C     0.82953   0.24425   0.42839   0.00000  Uiso   1.00
C386   C     0.89322   0.65262   0.40066   0.00000  Uiso   1.00
C387   C     0.91047   0.73639   0.43287   0.00000  Uiso   1.00
C388   C     0.94768   0.75136   0.42854   0.00000  Uiso   1.00
C389   C     0.84014   0.66573   0.35108   0.00000  Uiso   1.00
C390   C     0.81277   0.76055   0.34161   0.00000  Uiso   1.00
C391   C     0.80530   0.78660   0.29553   0.00000  Uiso   1.00
H392   H     0.90314   0.44782   0.30651   0.00000  Uiso   1.00
H393   H     0.88347   0.20164   0.33357   0.00000  Uiso   1.00
H394   H     0.96453   0.54957   0.33367   0.00000  Uiso   1.00
H395   H     0.86684   0.57372   0.24242   0.00000  Uiso   1.00
H396   H     0.85318   0.95802   0.37915   0.00000  Uiso   1.00
H397   H     0.02409   0.69167   0.37934   0.00000  Uiso   1.00
H398   H     0.81810   0.74261   0.18692   0.00000  Uiso   1.00
H399   H     0.83778   0.67368   0.42644   0.00000  Uiso   1.00
H400   H     0.81452   0.43989   0.46008   0.00000  Uiso   1.00
H401   H     0.89558   0.78782   0.46018   0.00000  Uiso   1.00
H402   H     0.79789   0.81197   0.36893   0.00000  Uiso   1.00
H403   H     0.79722   0.15139   0.48183   0.00000  Uiso   1.00
H404   H     0.96814   0.88505   0.48202   0.00000  Uiso   1.00
H405   H     0.76214   0.93598   0.28961   0.00000  Uiso   1.00
O406   O     0.81108   0.89683   0.45047   0.00000  Uiso   1.00
O407   O     0.03532   0.85938   0.45071   0.00000  Uiso   1.00
O408   O     0.76506   0.92620   0.19827   0.00000  Uiso   1.00
N409   N     0.84320   0.03561   0.39869   0.00000  Uiso   1.00
N410   N     0.00299   0.72152   0.39888   0.00000  Uiso   1.00
N411   N     0.81042   0.76917   0.21898   0.00000  Uiso   1.00
N412   N     0.81308   0.13966   0.45394   0.00000  Uiso   1.00
N413   N     0.97288   0.82557   0.45413   0.00000  Uiso   1.00
N414   N     0.78030   0.87322   0.27423   0.00000  Uiso   1.00
C415   C     0.38817   0.99956   0.33398   0.00000  Uiso   1.00
C416   C     0.36841   0.89713   0.36531   0.00000  Uiso   1.00
C417   C     0.36858   0.75304   0.36088   0.00000  Uiso   1.00
C418   C     0.34880   0.67767   0.39304   0.00000  Uiso   1.00
C419   C     0.32107   0.50850   0.43633   0.00000  Uiso   1.00
C420   C     0.41245   0.08615   0.36537   0.00000  Uiso   1.00
C421   C     0.44965   0.10101   0.36098   0.00000  Uiso   1.00
C422   C     0.46695   0.18477   0.39318   0.00000  Uiso   1.00
C423   C     0.50759   0.30915   0.43654   0.00000  Uiso   1.00
C424   C     0.35938   0.09926   0.31579   0.00000  Uiso   1.00
C425   C     0.35195   0.12518   0.26972   0.00000  Uiso   1.00
C426   C     0.32457   0.22001   0.26017   0.00000  Uiso   1.00
C427   C     0.28279   0.36474   0.22656   0.00000  Uiso   1.00
C428   C     0.35276   0.12193   0.39896   0.00000  Uiso   1.00
C429   C     0.34918   0.96360   0.40061   0.00000  Uiso   1.00
C430   C     0.32940   0.88843   0.43277   0.00000  Uiso   1.00
C431   C     0.32953   0.74425   0.42839   0.00000  Uiso   1.00
C432   C     0.39322   0.15262   0.40066   0.00000  Uiso   1.00
C433   C     0.41047   0.23639   0.43287   0.00000  Uiso   1.00
C434   C     0.44768   0.25136   0.42854   0.00000  Uiso   1.00
C435   C     0.34014   0.16573   0.35108   0.00000  Uiso   1.00
C436   C     0.31277   0.26055   0.34161   0.00000  Uiso   1.00
C437   C     0.30530   0.28660   0.29553   0.00000  Uiso   1.00
H438   H     0.40314   0.94782   0.30651   0.00000  Uiso   1.00
H439   H     0.38347   0.70164   0.33357   0.00000  Uiso   1.00
H440   H     0.46453   0.04957   0.33367   0.00000  Uiso   1.00
H441   H     0.36684   0.07372   0.24242   0.00000  Uiso   1.00
H442   H     0.35318   0.45802   0.37915   0.00000  Uiso   1.00
H443   H     0.52409   0.19167   0.37934   0.00000  Uiso   1.00
H444   H     0.31810   0.24261   0.18692   0.00000  Uiso   1.00
H445   H     0.33778   0.17368   0.42644   0.00000  Uiso   1.00
H446   H     0.31452   0.93989   0.46008   0.00000  Uiso   1.00
H447   H     0.39558   0.28782   0.46018   0.00000  Uiso   1.00
H448   H     0.29789   0.31197   0.36893   0.00000  Uiso   1.00
H449   H     0.29722   0.65139   0.48183   0.00000  Uiso   1.00
H450   H     0.46814   0.38505   0.48202   0.00000  Uiso   1.00
H451   H     0.26214   0.43598   0.28961   0.00000  Uiso   1.00
O452   O     0.31108   0.39683   0.45047   0.00000  Uiso   1.00
O453   O     0.53532   0.35938   0.45071   0.00000  Uiso   1.00
O454   O     0.26506   0.42620   0.19827   0.00000  Uiso   1.00
N455   N     0.34320   0.53561   0.39869   0.00000  Uiso   1.00
N456   N     0.50299   0.22152   0.39888   0.00000  Uiso   1.00
N457   N     0.31042   0.26917   0.21898   0.00000  Uiso   1.00
N458   N     0.31308   0.63966   0.45394   0.00000  Uiso   1.00
N459   N     0.47288   0.32557   0.45413   0.00000  Uiso   1.00
N460   N     0.28030   0.37322   0.27423   0.00000  Uiso   1.00
C461   C     0.61183   0.00044   0.33398   0.00000  Uiso   1.00
C462   C     0.63159   0.10287   0.36531   0.00000  Uiso   1.00
C463   C     0.63142   0.24696   0.36088   0.00000  Uiso   1.00
C464   C     0.65120   0.32233   0.39304   0.00000  Uiso   1.00
C465   C     0.67893   0.49150   0.43633   0.00000  Uiso   1.00
C466   C     0.58755   0.91385   0.36537   0.00000  Uiso   1.00
C467   C     0.55035   0.89899   0.36098   0.00000  Uiso   1.00
C468   C     0.53305   0.81523   0.39318   0.00000  Uiso   1.00
C469   C     0.49241   0.69085   0.43654   0.00000  Uiso   1.00
C470   C     0.64062   0.90074   0.31579   0.00000  Uiso   1.00
C471   C     0.64805   0.87482   0.26972   0.00000  Uiso   1.00
C472   C     0.67543   0.77999   0.26017   0.00000  Uiso   1.00
C473   C     0.71721   0.63526   0.22656   0.00000  Uiso   1.00
C474   C     0.64724   0.87807   0.39896   0.00000  Uiso   1.00
C475   C     0.65082   0.03640   0.40061   0.00000  Uiso   1.00
C476   C     0.67060   0.11157   0.43277   0.00000  Uiso   1.00
C477   C     0.67047   0.25575   0.42839   0.00000  Uiso   1.00
C478   C     0.60678   0.84738   0.40066   0.00000  Uiso   1.00
C479   C     0.58953   0.76361   0.43287   0.00000  Uiso   1.00
C480   C     0.55232   0.74864   0.42854   0.00000  Uiso   1.00
C481   C     0.65986   0.83427   0.35108   0.00000  Uiso   1.00
C482   C     0.68723   0.73945   0.34161   0.00000  Uiso   1.00
C483   C     0.69470   0.71340   0.29553   0.00000  Uiso   1.00
H484   H     0.59686   0.05218   0.30651   0.00000  Uiso   1.00
H485   H     0.61653   0.29836   0.33357   0.00000  Uiso   1.00
H486   H     0.53547   0.95043   0.33367   0.00000  Uiso   1.00
H487   H     0.63316   0.92628   0.24242   0.00000  Uiso   1.00
H488   H     0.64682   0.54198   0.37915   0.00000  Uiso   1.00
H489   H     0.47591   0.80833   0.37934   0.00000  Uiso   1.00
H490   H     0.68190   0.75739   0.18692   0.00000  Uiso   1.00
H491   H     0.66222   0.82632   0.42644   0.00000  Uiso   1.00
H492   H     0.68548   0.06011   0.46008   0.00000  Uiso   1.00
H493   H     0.60442   0.71218   0.46018   0.00000  Uiso   1.00
H494   H     0.70211   0.68803   0.36893   0.00000  Uiso   1.00
H495   H     0.70278   0.34861   0.48183   0.00000  Uiso   1.00
H496   H     0.53186   0.61495   0.48202   0.00000  Uiso   1.00
H497   H     0.73786   0.56402   0.28961   0.00000  Uiso   1.00
O498   O     0.68892   0.60317   0.45047   0.00000  Uiso   1.00
O499   O     0.46468   0.64062   0.45071   0.00000  Uiso   1.00
O500   O     0.73494   0.57380   0.19827   0.00000  Uiso   1.00
N501   N     0.65680   0.46439   0.39869   0.00000  Uiso   1.00
N502   N     0.49701   0.77848   0.39888   0.00000  Uiso   1.00
N503   N     0.68958   0.73083   0.21898   0.00000  Uiso   1.00
N504   N     0.68692   0.36034   0.45394   0.00000  Uiso   1.00
N505   N     0.52712   0.67443   0.45413   0.00000  Uiso   1.00
N506   N     0.71970   0.62678   0.27423   0.00000  Uiso   1.00
C507   C     0.11183   0.50044   0.33398   0.00000  Uiso   1.00
C508   C     0.13159   0.60287   0.36531   0.00000  Uiso   1.00
C509   C     0.13142   0.74696   0.36088   0.00000  Uiso   1.00
C510   C     0.15120   0.82233   0.39304   0.00000  Uiso   1.00
C511   C     0.17893   0.99150   0.43633   0.00000  Uiso   1.00
C512   C     0.08755   0.41385   0.36537   0.00000  Uiso   1.00
C513   C     0.05035   0.39899   0.36098   0.00000  Uiso   1.00
C514   C     0.03305   0.31523   0.39318   0.00000  Uiso   1.00
C515   C     0.99241   0.19085   0.43654   0.00000  Uiso   1.00
C516   C     0.14062   0.40074   0.31579   0.00000  Uiso   1.00
C517   C     0.14805   0.37482   0.26972   0.00000  Uiso   1.00
C518   C     0.17543   0.27999   0.26017   0.00000  Uiso   1.00
C519   C     0.21721   0.13526   0.22656   0.00000  Uiso   1.00
C520   C     0.14724   0.37807   0.39896   0.00000  Uiso   1.00
C521   C     0.15082   0.53640   0.40061   0.00000  Uiso   1.00
C522   C     0.17060   0.61157   0.43277   0.00000  Uiso   1.00
C523   C     0.17047   0.75575   0.42839   0.00000  Uiso   1.00
C524   C     0.10678   0.34738   0.40066   0.00000  Uiso   1.00
C525   C     0.08953   0.26361   0.43287   0.00000  Uiso   1.00
C526   C     0.05232   0.24864   0.42854   0.00000  Uiso   1.00
C527   C     0.15986   0.33427   0.35108   0.00000  Uiso   1.00
C528   C     0.18723   0.23945   0.34161   0.00000  Uiso   1.00
C529   C     0.19470   0.21340   0.29553   0.00000  Uiso   1.00
H530   H     0.09686   0.55218   0.30651   0.00000  Uiso   1.00
H531   H     0.11653   0.79836   0.33357   0.00000  Uiso   1.00
H532   H     0.03547   0.45043   0.33367   0.00000  Uiso   1.00
H533   H     0.13316   0.42628   0.24242   0.00000  Uiso   1.00
H534   H     0.14682   0.04198   0.37915   0.00000  Uiso   1.00
H535   H     0.97591   0.30833   0.37934   0.00000  Uiso   1.00
H536   H     0.18190   0.25739   0.18692   0.00000  Uiso   1.00
H537   H     0.16222   0.32632   0.42644   0.00000  Uiso   1.00
H538   H     0.18548   0.56011   0.46008   0.00000  Uiso   1.00
H539   H     0.10442   0.21218   0.46018   0.00000  Uiso   1.00
H540   H     0.20211   0.18803   0.36893   0.00000  Uiso   1.00
H541   H     0.20278   0.84861   0.48183   0.00000  Uiso   1.00
H542   H     0.03186   0.11495   0.48202   0.00000  Uiso   1.00
H543   H     0.23786   0.06402   0.28961   0.00000  Uiso   1.00
O544   O     0.18892   0.10317   0.45047   0.00000  Uiso   1.00
O545   O     0.96468   0.14062   0.45071   0.00000  Uiso   1.00
O546   O     0.23494   0.07380   0.19827   0.00000  Uiso   1.00
N547   N     0.15680   0.96439   0.39869   0.00000  Uiso   1.00
N548   N     0.99701   0.27848   0.39888   0.00000  Uiso   1.00
N549   N     0.18958   0.23083   0.21898   0.00000  Uiso   1.00
N550   N     0.18692   0.86034   0.45394   0.00000  Uiso   1.00
N551   N     0.02712   0.17443   0.45413   0.00000  Uiso   1.00
N552   N     0.21970   0.12678   0.27423   0.00000  Uiso   1.00
C553   C     0.11183   0.49956   0.66602   0.00000  Uiso   1.00
C554   C     0.13159   0.39713   0.63469   0.00000  Uiso   1.00
C555   C     0.13142   0.25304   0.63912   0.00000  Uiso   1.00
C556   C     0.15120   0.17767   0.60696   0.00000  Uiso   1.00
C557   C     0.17893   0.00850   0.56367   0.00000  Uiso   1.00
C558   C     0.08755   0.58615   0.63463   0.00000  Uiso   1.00
C559   C     0.05035   0.60101   0.63902   0.00000  Uiso   1.00
C560   C     0.03305   0.68477   0.60682   0.00000  Uiso   1.00
C561   C     0.99241   0.80915   0.56346   0.00000  Uiso   1.00
C562   C     0.14062   0.59926   0.68421   0.00000  Uiso   1.00
C563   C     0.14805   0.62518   0.73028   0.00000  Uiso   1.00
C564   C     0.17543   0.72001   0.73983   0.00000  Uiso   1.00
C565   C     0.21721   0.86474   0.77344   0.00000  Uiso   1.00
C566   C     0.14724   0.62193   0.60104   0.00000  Uiso   1.00
C567   C     0.15082   0.46360   0.59939   0.00000  Uiso   1.00
C568   C     0.17060   0.38843   0.56723   0.00000  Uiso   1.00
C569   C     0.17047   0.24425   0.57161   0.00000  Uiso   1.00
C570   C     0.10678   0.65262   0.59934   0.00000  Uiso   1.00
C571   C     0.08953   0.73639   0.56713   0.00000  Uiso   1.00
C572   C     0.05232   0.75136   0.57146   0.00000  Uiso   1.00
C573   C     0.15986   0.66573   0.64892   0.00000  Uiso   1.00
C574   C     0.18723   0.76055   0.65839   0.00000  Uiso   1.00
C575   C     0.19470   0.78660   0.70447   0.00000  Uiso   1.00
H576   H     0.09686   0.44782   0.69349   0.00000  Uiso   1.00
H577   H     0.11653   0.20164   0.66643   0.00000  Uiso   1.00
H578   H     0.03547   0.54957   0.66633   0.00000  Uiso   1.00
H579   H     0.13316   0.57372   0.75758   0.00000  Uiso   1.00
H580   H     0.14682   0.95802   0.62085   0.00000  Uiso   1.00
H581   H     0.97591   0.69167   0.62066   0.00000  Uiso   1.00
H582   H     0.18190   0.74261   0.81308   0.00000  Uiso   1.00
H583   H     0.16222   0.67368   0.57356   0.00000  Uiso   1.00
H584   H     0.18548   0.43989   0.53992   0.00000  Uiso   1.00
H585   H     0.10442   0.78782   0.53982   0.00000  Uiso   1.00
H586   H     0.20211   0.81197   0.63107   0.00000  Uiso   1.00
H587   H     0.20278   0.15139   0.51817   0.00000  Uiso   1.00
H588   H     0.03186   0.88505   0.51798   0.00000  Uiso   1.00
H589   H     0.23786   0.93598   0.71039   0.00000  Uiso   1.00
O590   O     0.18892   0.89683   0.54953   0.00000  Uiso   1.00
O591   O     0.96468   0.85938   0.54929   0.00000  Uiso   1.00
O592   O     0.23494   0.92620   0.80173   0.00000  Uiso   1.00
N593   N     0.15680   0.03561   0.60131   0.00000  Uiso   1.00
N594   N     0.99701   0.72152   0.60112   0.00000  Uiso   1.00
N595   N     0.18958   0.76917   0.78102   0.00000  Uiso   1.00
N596   N     0.18692   0.13966   0.54606   0.00000  Uiso   1.00
N597   N     0.02712   0.82557   0.54587   0.00000  Uiso   1.00
N598   N     0.21970   0.87322   0.72577   0.00000  Uiso   1.00
C599   C     0.61183   0.99956   0.66602   0.00000  Uiso   1.00
C600   C     0.63159   0.89713   0.63469   0.00000  Uiso   1.00
C601   C     0.63142   0.75304   0.63912   0.00000  Uiso   1.00
C602   C     0.65120   0.67767   0.60696   0.00000  Uiso   1.00
C603   C     0.67893   0.50850   0.56367   0.00000  Uiso   1.00
C604   C     0.58755   0.08615   0.63463   0.00000  Uiso   1.00
C605   C     0.55035   0.10101   0.63902   0.00000  Uiso   1.00
C606   C     0.53305   0.18477   0.60682   0.00000  Uiso   1.00
C607   C     0.49241   0.30915   0.56346   0.00000  Uiso   1.00
C608   C     0.64062   0.09926   0.68421   0.00000  Uiso   1.00
C609   C     0.64805   0.12518   0.73028   0.00000  Uiso   1.00
C610   C     0.67543   0.22001   0.73983   0.00000  Uiso   1.00
C611   C     0.71721   0.36474   0.77344   0.00000  Uiso   1.00
C612   C     0.64724   0.12193   0.60104   0.00000  Uiso   1.00
C613   C     0.65082   0.96360   0.59939   0.00000  Uiso   1.00
C614   C     0.67060   0.88843   0.56723   0.00000  Uiso   1.00
C615   C     0.67047   0.74425   0.57161   0.00000  Uiso   1.00
C616   C     0.60678   0.15262   0.59934   0.00000  Uiso   1.00
C617   C     0.58953   0.23639   0.56713   0.00000  Uiso   1.00
C618   C     0.55232   0.25136   0.57146   0.00000  Uiso   1.00
C619   C     0.65986   0.16573   0.64892   0.00000  Uiso   1.00
C620   C     0.68723   0.26055   0.65839   0.00000  Uiso   1.00
C621   C     0.69470   0.28660   0.70447   0.00000  Uiso   1.00
H622   H     0.59686   0.94782   0.69349   0.00000  Uiso   1.00
H623   H     0.61653   0.70164   0.66643   0.00000  Uiso   1.00
H624   H     0.53547   0.04957   0.66633   0.00000  Uiso   1.00
H625   H     0.63316   0.07372   0.75758   0.00000  Uiso   1.00
H626   H     0.64682   0.45802   0.62085   0.00000  Uiso   1.00
H627   H     0.47591   0.19167   0.62066   0.00000  Uiso   1.00
H628   H     0.68190   0.24261   0.81308   0.00000  Uiso   1.00
H629   H     0.66222   0.17368   0.57356   0.00000  Uiso   1.00
H630   H     0.68548   0.93989   0.53992   0.00000  Uiso   1.00
H631   H     0.60442   0.28782   0.53982   0.00000  Uiso   1.00
H632   H     0.70211   0.31197   0.63107   0.00000  Uiso   1.00
H633   H     0.70278   0.65139   0.51817   0.00000  Uiso   1.00
H634   H     0.53186   0.38505   0.51798   0.00000  Uiso   1.00
H635   H     0.73786   0.43598   0.71039   0.00000  Uiso   1.00
O636   O     0.68892   0.39683   0.54953   0.00000  Uiso   1.00
O637   O     0.46468   0.35938   0.54929   0.00000  Uiso   1.00
O638   O     0.73494   0.42620   0.80173   0.00000  Uiso   1.00
N639   N     0.65680   0.53561   0.60131   0.00000  Uiso   1.00
N640   N     0.49701   0.22152   0.60112   0.00000  Uiso   1.00
N641   N     0.68958   0.26917   0.78102   0.00000  Uiso   1.00
N642   N     0.68692   0.63966   0.54606   0.00000  Uiso   1.00
N643   N     0.52712   0.32557   0.54587   0.00000  Uiso   1.00
N644   N     0.71970   0.37322   0.72577   0.00000  Uiso   1.00
C645   C     0.38817   0.00044   0.66602   0.00000  Uiso   1.00
C646   C     0.36841   0.10287   0.63469   0.00000  Uiso   1.00
C647   C     0.36858   0.24696   0.63912   0.00000  Uiso   1.00
C648   C     0.34880   0.32233   0.60696   0.00000  Uiso   1.00
C649   C     0.32107   0.49150   0.56367   0.00000  Uiso   1.00
C650   C     0.41245   0.91385   0.63463   0.00000  Uiso   1.00
C651   C     0.44965   0.89899   0.63902   0.00000  Uiso   1.00
C652   C     0.46695   0.81523   0.60682   0.00000  Uiso   1.00
C653   C     0.50759   0.69085   0.56346   0.00000  Uiso   1.00
C654   C     0.35938   0.90074   0.68421   0.00000  Uiso   1.00
C655   C     0.35195   0.87482   0.73028   0.00000  Uiso   1.00
C656   C     0.32457   0.77999   0.73983   0.00000  Uiso   1.00
C657   C     0.28279   0.63526   0.77344   0.00000  Uiso   1.00
C658   C     0.35276   0.87807   0.60104   0.00000  Uiso   1.00
C659   C     0.34918   0.03640   0.59939   0.00000  Uiso   1.00
C660   C     0.32940   0.11157   0.56723   0.00000  Uiso   1.00
C661   C     0.32953   0.25575   0.57161   0.00000  Uiso   1.00
C662   C     0.39322   0.84738   0.59934   0.00000  Uiso   1.00
C663   C     0.41047   0.76361   0.56713   0.00000  Uiso   1.00
C664   C     0.44768   0.74864   0.57146   0.00000  Uiso   1.00
C665   C     0.34014   0.83427   0.64892   0.00000  Uiso   1.00
C666   C     0.31277   0.73945   0.65839   0.00000  Uiso   1.00
C667   C     0.30530   0.71340   0.70447   0.00000  Uiso   1.00
H668   H     0.40314   0.05218   0.69349   0.00000  Uiso   1.00
H669   H     0.38347   0.29836   0.66643   0.00000  Uiso   1.00
H670   H     0.46453   0.95043   0.66633   0.00000  Uiso   1.00
H671   H     0.36684   0.92628   0.75758   0.00000  Uiso   1.00
H672   H     0.35318   0.54198   0.62085   0.00000  Uiso   1.00
H673   H     0.52409   0.80833   0.62066   0.00000  Uiso   1.00
H674   H     0.31810   0.75739   0.81308   0.00000  Uiso   1.00
H675   H     0.33778   0.82632   0.57356   0.00000  Uiso   1.00
H676   H     0.31452   0.06011   0.53992   0.00000  Uiso   1.00
H677   H     0.39558   0.71218   0.53982   0.00000  Uiso   1.00
H678   H     0.29789   0.68803   0.63107   0.00000  Uiso   1.00
H679   H     0.29722   0.34861   0.51817   0.00000  Uiso   1.00
H680   H     0.46814   0.61495   0.51798   0.00000  Uiso   1.00
H681   H     0.26214   0.56402   0.71039   0.00000  Uiso   1.00
O682   O     0.31108   0.60317   0.54953   0.00000  Uiso   1.00
O683   O     0.53532   0.64062   0.54929   0.00000  Uiso   1.00
O684   O     0.26506   0.57380   0.80173   0.00000  Uiso   1.00
N685   N     0.34320   0.46439   0.60131   0.00000  Uiso   1.00
N686   N     0.50299   0.77848   0.60112   0.00000  Uiso   1.00
N687   N     0.31042   0.73083   0.78102   0.00000  Uiso   1.00
N688   N     0.31308   0.36034   0.54606   0.00000  Uiso   1.00
N689   N     0.47288   0.67443   0.54587   0.00000  Uiso   1.00
N690   N     0.28030   0.62678   0.72577   0.00000  Uiso   1.00
C691   C     0.88817   0.50044   0.66602   0.00000  Uiso   1.00
C692   C     0.86841   0.60287   0.63469   0.00000  Uiso   1.00
C693   C     0.86858   0.74696   0.63912   0.00000  Uiso   1.00
C694   C     0.84880   0.82233   0.60696   0.00000  Uiso   1.00
C695   C     0.82107   0.99150   0.56367   0.00000  Uiso   1.00
C696   C     0.91245   0.41385   0.63463   0.00000  Uiso   1.00
C697   C     0.94965   0.39899   0.63902   0.00000  Uiso   1.00
C698   C     0.96695   0.31523   0.60682   0.00000  Uiso   1.00
C699   C     0.00759   0.19085   0.56346   0.00000  Uiso   1.00
C700   C     0.85938   0.40074   0.68421   0.00000  Uiso   1.00
C701   C     0.85195   0.37482   0.73028   0.00000  Uiso   1.00
C702   C     0.82457   0.27999   0.73983   0.00000  Uiso   1.00
C703   C     0.78279   0.13526   0.77344   0.00000  Uiso   1.00
C704   C     0.85276   0.37807   0.60104   0.00000  Uiso   1.00
C705   C     0.84918   0.53640   0.59939   0.00000  Uiso   1.00
C706   C     0.82940   0.61157   0.56723   0.00000  Uiso   1.00
C707   C     0.82953   0.75575   0.57161   0.00000  Uiso   1.00
C708   C     0.89322   0.34738   0.59934   0.00000  Uiso   1.00
C709   C     0.91047   0.26361   0.56713   0.00000  Uiso   1.00
C710   C     0.94768   0.24864   0.57146   0.00000  Uiso   1.00
C711   C     0.84014   0.33427   0.64892   0.00000  Uiso   1.00
C712   C     0.81277   0.23945   0.65839   0.00000  Uiso   1.00
C713   C     0.80530   0.21340   0.70447   0.00000  Uiso   1.00
H714   H     0.90314   0.55218   0.69349   0.00000  Uiso   1.00
H715   H     0.88347   0.79836   0.66643   0.00000  Uiso   1.00
H716   H     0.96453   0.45043   0.66633   0.00000  Uiso   1.00
H717   H     0.86684   0.42628   0.75758   0.00000  Uiso   1.00
H718   H     0.85318   0.04198   0.62085   0.00000  Uiso   1.00
H719   H     0.02409   0.30833   0.62066   0.00000  Uiso   1.00
H720   H     0.81810   0.25739   0.81308   0.00000  Uiso   1.00
H721   H     0.83778   0.32632   0.57356   0.00000  Uiso   1.00
H722   H     0.81452   0.56011   0.53992   0.00000  Uiso   1.00
H723   H     0.89558   0.21218   0.53982   0.00000  Uiso   1.00
H724   H     0.79789   0.18803   0.63107   0.00000  Uiso   1.00
H725   H     0.79722   0.84861   0.51817   0.00000  Uiso   1.00
H726   H     0.96814   0.11495   0.51798   0.00000  Uiso   1.00
H727   H     0.76214   0.06402   0.71039   0.00000  Uiso   1.00
O728   O     0.81108   0.10317   0.54953   0.00000  Uiso   1.00
O729   O     0.03532   0.14062   0.54929   0.00000  Uiso   1.00
O730   O     0.76506   0.07380   0.80173   0.00000  Uiso   1.00
N731   N     0.84320   0.96439   0.60131   0.00000  Uiso   1.00
N732   N     0.00299   0.27848   0.60112   0.00000  Uiso   1.00
N733   N     0.81042   0.23083   0.78102   0.00000  Uiso   1.00
N734   N     0.81308   0.86034   0.54606   0.00000  Uiso   1.00
N735   N     0.97288   0.17443   0.54587   0.00000  Uiso   1.00
N736   N     0.78030   0.12678   0.72577   0.00000  Uiso   1.00
