data_job_04086
_audit_creation_date              2018-12-19
_audit_creation_method            'Materials Studio'
_symmetry_space_group_name_H-M    'P1'
_symmetry_Int_Tables_number       1
_symmetry_cell_setting            triclinic
loop_
_symmetry_equiv_pos_as_xyz
  x,y,z
_cell_length_a                    18.0066
_cell_length_b                    18.0066
_cell_length_c                    30.7543
_cell_angle_alpha                 90.0000
_cell_angle_beta                  90.0000
_cell_angle_gamma                 90.0000
loop_
_atom_site_label
_atom_site_type_symbol
_atom_site_fract_x
_atom_site_fract_y
_atom_site_fract_z
_atom_site_U_iso_or_equiv
_atom_site_adp_type
_atom_site_occupancy
C1     C     0.90817   0.24458   0.86188   0.00000  Uiso   1.00
C2     C     0.87737   0.28365   0.90201   0.00000  Uiso   1.00
C3     C     0.85851   0.35823   0.90473   0.00000  Uiso   1.00
C4     C     0.83127   0.38329   0.94433   0.00000  Uiso   1.00
C5     C     0.78471   0.45124   0.00123   0.00000  Uiso   1.00
C6     C     0.98144   0.20955   0.87593   0.00000  Uiso   1.00
C7     C     0.05009   0.22183   0.85671   0.00000  Uiso   1.00
C8     C     0.11046   0.18452   0.87436   0.00000  Uiso   1.00
C9     C     0.22546   0.13739   0.89075   0.00000  Uiso   1.00
C10    C     0.85553   0.18017   0.85260   0.00000  Uiso   1.00
C11    C     0.81832   0.16772   0.81376   0.00000  Uiso   1.00
C12    C     0.77270   0.10565   0.81176   0.00000  Uiso   1.00
C13    C     0.69221   0.01290   0.79193   0.00000  Uiso   1.00
C14    C     0.89333   0.15647   0.92739   0.00000  Uiso   1.00
C15    C     0.86931   0.23578   0.93759   0.00000  Uiso   1.00
C16    C     0.84209   0.26074   0.97720   0.00000  Uiso   1.00
C17    C     0.82319   0.33535   0.97997   0.00000  Uiso   1.00
C18    C     0.97338   0.16169   0.91151   0.00000  Uiso   1.00
C19    C     0.03367   0.12434   0.92919   0.00000  Uiso   1.00
C20    C     0.10238   0.13657   0.91000   0.00000  Uiso   1.00
C21    C     0.84747   0.13230   0.88818   0.00000  Uiso   1.00
C22    C     0.80190   0.07024   0.88624   0.00000  Uiso   1.00
C23    C     0.76463   0.05771   0.84740   0.00000  Uiso   1.00
H24    H     0.91445   0.28184   0.83418   0.00000  Uiso   1.00
H25    H     0.86476   0.39525   0.87718   0.00000  Uiso   1.00
H26    H     0.05630   0.25887   0.82917   0.00000  Uiso   1.00
H27    H     0.82457   0.20477   0.78623   0.00000  Uiso   1.00
H28    H     0.80615   0.49988   0.94055   0.00000  Uiso   1.00
H29    H     0.21002   0.21230   0.83931   0.00000  Uiso   1.00
H30    H     0.72138   0.09822   0.74876   0.00000  Uiso   1.00
H31    H     0.88705   0.11920   0.95509   0.00000  Uiso   1.00
H32    H     0.83586   0.22369   0.00473   0.00000  Uiso   1.00
H33    H     0.02741   0.08731   0.95672   0.00000  Uiso   1.00
H34    H     0.79568   0.03321   0.91378   0.00000  Uiso   1.00
H35    H     0.78269   0.36064   0.04408   0.00000  Uiso   1.00
H36    H     0.18657   0.07305   0.94283   0.00000  Uiso   1.00
H37    H     0.69792   0.95898   0.85228   0.00000  Uiso   1.00
O38    O     0.76126   0.50194   0.02279   0.00000  Uiso   1.00
O39    O     0.29113   0.12462   0.88996   0.00000  Uiso   1.00
O40    O     0.65003   0.97496   0.77116   0.00000  Uiso   1.00
N41    N     0.80764   0.45277   0.95810   0.00000  Uiso   1.00
N42    N     0.18524   0.18390   0.86345   0.00000  Uiso   1.00
N43    N     0.72841   0.07724   0.77879   0.00000  Uiso   1.00
N44    N     0.79502   0.37784   0.01381   0.00000  Uiso   1.00
N45    N     0.17262   0.10898   0.91916   0.00000  Uiso   1.00
N46    N     0.71579   0.00231   0.83449   0.00000  Uiso   1.00
C47    C     0.09183   0.75542   0.86188   0.00000  Uiso   1.00
C48    C     0.12263   0.71635   0.90201   0.00000  Uiso   1.00
C49    C     0.14149   0.64177   0.90473   0.00000  Uiso   1.00
C50    C     0.16873   0.61671   0.94433   0.00000  Uiso   1.00
C51    C     0.21529   0.54876   0.00123   0.00000  Uiso   1.00
C52    C     0.01856   0.79045   0.87593   0.00000  Uiso   1.00
C53    C     0.94991   0.77817   0.85671   0.00000  Uiso   1.00
C54    C     0.88954   0.81548   0.87436   0.00000  Uiso   1.00
C55    C     0.77454   0.86261   0.89075   0.00000  Uiso   1.00
C56    C     0.14447   0.81983   0.85260   0.00000  Uiso   1.00
C57    C     0.18168   0.83228   0.81376   0.00000  Uiso   1.00
C58    C     0.22730   0.89435   0.81176   0.00000  Uiso   1.00
C59    C     0.30779   0.98710   0.79193   0.00000  Uiso   1.00
C60    C     0.10667   0.84353   0.92739   0.00000  Uiso   1.00
C61    C     0.13069   0.76422   0.93759   0.00000  Uiso   1.00
C62    C     0.15791   0.73926   0.97720   0.00000  Uiso   1.00
C63    C     0.17681   0.66465   0.97997   0.00000  Uiso   1.00
C64    C     0.02662   0.83831   0.91151   0.00000  Uiso   1.00
C65    C     0.96633   0.87566   0.92919   0.00000  Uiso   1.00
C66    C     0.89762   0.86343   0.91000   0.00000  Uiso   1.00
C67    C     0.15253   0.86770   0.88818   0.00000  Uiso   1.00
C68    C     0.19810   0.92976   0.88624   0.00000  Uiso   1.00
C69    C     0.23537   0.94229   0.84740   0.00000  Uiso   1.00
H70    H     0.08555   0.71816   0.83418   0.00000  Uiso   1.00
H71    H     0.13524   0.60475   0.87718   0.00000  Uiso   1.00
H72    H     0.94370   0.74113   0.82917   0.00000  Uiso   1.00
H73    H     0.17543   0.79523   0.78623   0.00000  Uiso   1.00
H74    H     0.19385   0.50012   0.94055   0.00000  Uiso   1.00
H75    H     0.78998   0.78770   0.83931   0.00000  Uiso   1.00
H76    H     0.27862   0.90178   0.74876   0.00000  Uiso   1.00
H77    H     0.11295   0.88080   0.95509   0.00000  Uiso   1.00
H78    H     0.16414   0.77631   0.00473   0.00000  Uiso   1.00
H79    H     0.97259   0.91269   0.95672   0.00000  Uiso   1.00
H80    H     0.20432   0.96679   0.91378   0.00000  Uiso   1.00
H81    H     0.21731   0.63936   0.04408   0.00000  Uiso   1.00
H82    H     0.81343   0.92695   0.94283   0.00000  Uiso   1.00
H83    H     0.30208   0.04102   0.85228   0.00000  Uiso   1.00
O84    O     0.23874   0.49806   0.02279   0.00000  Uiso   1.00
O85    O     0.70887   0.87538   0.88996   0.00000  Uiso   1.00
O86    O     0.34997   0.02504   0.77116   0.00000  Uiso   1.00
N87    N     0.19236   0.54723   0.95810   0.00000  Uiso   1.00
N88    N     0.81476   0.81610   0.86345   0.00000  Uiso   1.00
N89    N     0.27159   0.92276   0.77879   0.00000  Uiso   1.00
N90    N     0.20498   0.62216   0.01381   0.00000  Uiso   1.00
N91    N     0.82738   0.89102   0.91916   0.00000  Uiso   1.00
N92    N     0.28421   0.99769   0.83449   0.00000  Uiso   1.00
C93    C     0.25542   0.40817   0.86188   0.00000  Uiso   1.00
C94    C     0.21635   0.37737   0.90201   0.00000  Uiso   1.00
C95    C     0.14177   0.35851   0.90473   0.00000  Uiso   1.00
C96    C     0.11671   0.33127   0.94433   0.00000  Uiso   1.00
C97    C     0.04876   0.28471   0.00123   0.00000  Uiso   1.00
C98    C     0.29045   0.48144   0.87593   0.00000  Uiso   1.00
C99    C     0.27817   0.55009   0.85671   0.00000  Uiso   1.00
C100   C     0.31548   0.61046   0.87436   0.00000  Uiso   1.00
C101   C     0.36261   0.72546   0.89075   0.00000  Uiso   1.00
C102   C     0.31983   0.35553   0.85260   0.00000  Uiso   1.00
C103   C     0.33228   0.31832   0.81376   0.00000  Uiso   1.00
C104   C     0.39435   0.27270   0.81176   0.00000  Uiso   1.00
C105   C     0.48710   0.19221   0.79193   0.00000  Uiso   1.00
C106   C     0.34353   0.39333   0.92739   0.00000  Uiso   1.00
C107   C     0.26422   0.36931   0.93759   0.00000  Uiso   1.00
C108   C     0.23926   0.34209   0.97720   0.00000  Uiso   1.00
C109   C     0.16465   0.32319   0.97997   0.00000  Uiso   1.00
C110   C     0.33831   0.47338   0.91151   0.00000  Uiso   1.00
C111   C     0.37566   0.53367   0.92919   0.00000  Uiso   1.00
C112   C     0.36343   0.60238   0.91000   0.00000  Uiso   1.00
C113   C     0.36770   0.34747   0.88818   0.00000  Uiso   1.00
C114   C     0.42976   0.30190   0.88624   0.00000  Uiso   1.00
C115   C     0.44229   0.26463   0.84740   0.00000  Uiso   1.00
H116   H     0.21816   0.41445   0.83418   0.00000  Uiso   1.00
H117   H     0.10475   0.36476   0.87718   0.00000  Uiso   1.00
H118   H     0.24113   0.55630   0.82917   0.00000  Uiso   1.00
H119   H     0.29523   0.32457   0.78623   0.00000  Uiso   1.00
H120   H     0.00012   0.30615   0.94055   0.00000  Uiso   1.00
H121   H     0.28770   0.71002   0.83931   0.00000  Uiso   1.00
H122   H     0.40178   0.22138   0.74876   0.00000  Uiso   1.00
H123   H     0.38080   0.38705   0.95509   0.00000  Uiso   1.00
H124   H     0.27631   0.33586   0.00473   0.00000  Uiso   1.00
H125   H     0.41269   0.52741   0.95672   0.00000  Uiso   1.00
H126   H     0.46679   0.29568   0.91378   0.00000  Uiso   1.00
H127   H     0.13936   0.28269   0.04408   0.00000  Uiso   1.00
H128   H     0.42695   0.68657   0.94283   0.00000  Uiso   1.00
H129   H     0.54102   0.19792   0.85228   0.00000  Uiso   1.00
O130   O     0.99806   0.26126   0.02279   0.00000  Uiso   1.00
O131   O     0.37538   0.79113   0.88996   0.00000  Uiso   1.00
O132   O     0.52504   0.15003   0.77116   0.00000  Uiso   1.00
N133   N     0.04723   0.30764   0.95810   0.00000  Uiso   1.00
N134   N     0.31610   0.68524   0.86345   0.00000  Uiso   1.00
N135   N     0.42276   0.22841   0.77879   0.00000  Uiso   1.00
N136   N     0.12216   0.29502   0.01381   0.00000  Uiso   1.00
N137   N     0.39102   0.67262   0.91916   0.00000  Uiso   1.00
N138   N     0.49769   0.21579   0.83449   0.00000  Uiso   1.00
C139   C     0.74458   0.59183   0.86188   0.00000  Uiso   1.00
C140   C     0.78365   0.62263   0.90201   0.00000  Uiso   1.00
C141   C     0.85823   0.64149   0.90473   0.00000  Uiso   1.00
C142   C     0.88329   0.66873   0.94433   0.00000  Uiso   1.00
C143   C     0.95124   0.71529   0.00123   0.00000  Uiso   1.00
C144   C     0.70955   0.51856   0.87593   0.00000  Uiso   1.00
C145   C     0.72183   0.44991   0.85671   0.00000  Uiso   1.00
C146   C     0.68452   0.38954   0.87436   0.00000  Uiso   1.00
C147   C     0.63739   0.27454   0.89075   0.00000  Uiso   1.00
C148   C     0.68017   0.64447   0.85260   0.00000  Uiso   1.00
C149   C     0.66772   0.68168   0.81376   0.00000  Uiso   1.00
C150   C     0.60565   0.72730   0.81176   0.00000  Uiso   1.00
C151   C     0.51290   0.80779   0.79193   0.00000  Uiso   1.00
C152   C     0.65647   0.60667   0.92739   0.00000  Uiso   1.00
C153   C     0.73578   0.63069   0.93759   0.00000  Uiso   1.00
C154   C     0.76074   0.65791   0.97720   0.00000  Uiso   1.00
C155   C     0.83535   0.67681   0.97997   0.00000  Uiso   1.00
C156   C     0.66169   0.52662   0.91151   0.00000  Uiso   1.00
C157   C     0.62434   0.46633   0.92919   0.00000  Uiso   1.00
C158   C     0.63657   0.39762   0.91000   0.00000  Uiso   1.00
C159   C     0.63230   0.65253   0.88818   0.00000  Uiso   1.00
C160   C     0.57024   0.69810   0.88624   0.00000  Uiso   1.00
C161   C     0.55771   0.73537   0.84740   0.00000  Uiso   1.00
H162   H     0.78184   0.58555   0.83418   0.00000  Uiso   1.00
H163   H     0.89525   0.63524   0.87718   0.00000  Uiso   1.00
H164   H     0.75887   0.44370   0.82917   0.00000  Uiso   1.00
H165   H     0.70477   0.67543   0.78623   0.00000  Uiso   1.00
H166   H     0.99988   0.69385   0.94055   0.00000  Uiso   1.00
H167   H     0.71230   0.28998   0.83931   0.00000  Uiso   1.00
H168   H     0.59822   0.77862   0.74876   0.00000  Uiso   1.00
H169   H     0.61920   0.61295   0.95509   0.00000  Uiso   1.00
H170   H     0.72369   0.66414   0.00473   0.00000  Uiso   1.00
H171   H     0.58731   0.47259   0.95672   0.00000  Uiso   1.00
H172   H     0.53321   0.70432   0.91378   0.00000  Uiso   1.00
H173   H     0.86064   0.71731   0.04408   0.00000  Uiso   1.00
H174   H     0.57305   0.31343   0.94283   0.00000  Uiso   1.00
H175   H     0.45898   0.80208   0.85228   0.00000  Uiso   1.00
O176   O     0.00194   0.73874   0.02279   0.00000  Uiso   1.00
O177   O     0.62462   0.20887   0.88996   0.00000  Uiso   1.00
O178   O     0.47496   0.84997   0.77116   0.00000  Uiso   1.00
N179   N     0.95277   0.69236   0.95810   0.00000  Uiso   1.00
N180   N     0.68390   0.31476   0.86345   0.00000  Uiso   1.00
N181   N     0.57724   0.77159   0.77879   0.00000  Uiso   1.00
N182   N     0.87784   0.70498   0.01381   0.00000  Uiso   1.00
N183   N     0.60898   0.32738   0.91916   0.00000  Uiso   1.00
N184   N     0.50231   0.78421   0.83449   0.00000  Uiso   1.00
C185   C     0.59183   0.74458   0.63812   0.00000  Uiso   1.00
C186   C     0.62263   0.78365   0.59799   0.00000  Uiso   1.00
C187   C     0.64149   0.85823   0.59527   0.00000  Uiso   1.00
C188   C     0.66873   0.88329   0.55567   0.00000  Uiso   1.00
C189   C     0.71529   0.95124   0.49877   0.00000  Uiso   1.00
C190   C     0.51856   0.70955   0.62407   0.00000  Uiso   1.00
C191   C     0.44991   0.72183   0.64329   0.00000  Uiso   1.00
C192   C     0.38954   0.68452   0.62564   0.00000  Uiso   1.00
C193   C     0.27454   0.63739   0.60925   0.00000  Uiso   1.00
C194   C     0.64447   0.68017   0.64740   0.00000  Uiso   1.00
C195   C     0.68168   0.66772   0.68624   0.00000  Uiso   1.00
C196   C     0.72730   0.60565   0.68824   0.00000  Uiso   1.00
C197   C     0.80779   0.51290   0.70807   0.00000  Uiso   1.00
C198   C     0.60667   0.65647   0.57261   0.00000  Uiso   1.00
C199   C     0.63069   0.73578   0.56241   0.00000  Uiso   1.00
C200   C     0.65791   0.76074   0.52280   0.00000  Uiso   1.00
C201   C     0.67681   0.83535   0.52003   0.00000  Uiso   1.00
C202   C     0.52662   0.66169   0.58849   0.00000  Uiso   1.00
C203   C     0.46633   0.62434   0.57081   0.00000  Uiso   1.00
C204   C     0.39762   0.63657   0.59000   0.00000  Uiso   1.00
C205   C     0.65253   0.63230   0.61182   0.00000  Uiso   1.00
C206   C     0.69810   0.57024   0.61376   0.00000  Uiso   1.00
C207   C     0.73537   0.55771   0.65260   0.00000  Uiso   1.00
H208   H     0.58555   0.78184   0.66582   0.00000  Uiso   1.00
H209   H     0.63524   0.89525   0.62282   0.00000  Uiso   1.00
H210   H     0.44370   0.75887   0.67083   0.00000  Uiso   1.00
H211   H     0.67543   0.70477   0.71377   0.00000  Uiso   1.00
H212   H     0.69385   0.99988   0.55945   0.00000  Uiso   1.00
H213   H     0.28998   0.71230   0.66069   0.00000  Uiso   1.00
H214   H     0.77862   0.59822   0.75124   0.00000  Uiso   1.00
H215   H     0.61295   0.61920   0.54491   0.00000  Uiso   1.00
H216   H     0.66414   0.72369   0.49527   0.00000  Uiso   1.00
H217   H     0.47259   0.58731   0.54328   0.00000  Uiso   1.00
H218   H     0.70432   0.53321   0.58622   0.00000  Uiso   1.00
H219   H     0.71731   0.86064   0.45592   0.00000  Uiso   1.00
H220   H     0.31343   0.57305   0.55717   0.00000  Uiso   1.00
H221   H     0.80208   0.45898   0.64772   0.00000  Uiso   1.00
O222   O     0.73874   0.00194   0.47721   0.00000  Uiso   1.00
O223   O     0.20887   0.62462   0.61004   0.00000  Uiso   1.00
O224   O     0.84997   0.47496   0.72884   0.00000  Uiso   1.00
N225   N     0.69236   0.95277   0.54190   0.00000  Uiso   1.00
N226   N     0.31476   0.68390   0.63655   0.00000  Uiso   1.00
N227   N     0.77159   0.57724   0.72121   0.00000  Uiso   1.00
N228   N     0.70498   0.87784   0.48619   0.00000  Uiso   1.00
N229   N     0.32738   0.60898   0.58084   0.00000  Uiso   1.00
N230   N     0.78421   0.50231   0.66551   0.00000  Uiso   1.00
C231   C     0.40817   0.25542   0.63812   0.00000  Uiso   1.00
C232   C     0.37737   0.21635   0.59799   0.00000  Uiso   1.00
C233   C     0.35851   0.14177   0.59527   0.00000  Uiso   1.00
C234   C     0.33127   0.11671   0.55567   0.00000  Uiso   1.00
C235   C     0.28471   0.04876   0.49877   0.00000  Uiso   1.00
C236   C     0.48144   0.29045   0.62407   0.00000  Uiso   1.00
C237   C     0.55009   0.27817   0.64329   0.00000  Uiso   1.00
C238   C     0.61046   0.31548   0.62564   0.00000  Uiso   1.00
C239   C     0.72546   0.36261   0.60925   0.00000  Uiso   1.00
C240   C     0.35553   0.31983   0.64740   0.00000  Uiso   1.00
C241   C     0.31832   0.33228   0.68624   0.00000  Uiso   1.00
C242   C     0.27270   0.39435   0.68824   0.00000  Uiso   1.00
C243   C     0.19221   0.48710   0.70807   0.00000  Uiso   1.00
C244   C     0.39333   0.34353   0.57261   0.00000  Uiso   1.00
C245   C     0.36931   0.26422   0.56241   0.00000  Uiso   1.00
C246   C     0.34209   0.23926   0.52280   0.00000  Uiso   1.00
C247   C     0.32319   0.16465   0.52003   0.00000  Uiso   1.00
C248   C     0.47338   0.33831   0.58849   0.00000  Uiso   1.00
C249   C     0.53367   0.37566   0.57081   0.00000  Uiso   1.00
C250   C     0.60238   0.36343   0.59000   0.00000  Uiso   1.00
C251   C     0.34747   0.36770   0.61182   0.00000  Uiso   1.00
C252   C     0.30190   0.42976   0.61376   0.00000  Uiso   1.00
C253   C     0.26463   0.44229   0.65260   0.00000  Uiso   1.00
H254   H     0.41445   0.21816   0.66582   0.00000  Uiso   1.00
H255   H     0.36476   0.10475   0.62282   0.00000  Uiso   1.00
H256   H     0.55630   0.24113   0.67083   0.00000  Uiso   1.00
H257   H     0.32457   0.29523   0.71377   0.00000  Uiso   1.00
H258   H     0.30615   0.00012   0.55945   0.00000  Uiso   1.00
H259   H     0.71002   0.28770   0.66069   0.00000  Uiso   1.00
H260   H     0.22138   0.40178   0.75124   0.00000  Uiso   1.00
H261   H     0.38705   0.38080   0.54491   0.00000  Uiso   1.00
H262   H     0.33586   0.27631   0.49527   0.00000  Uiso   1.00
H263   H     0.52741   0.41269   0.54328   0.00000  Uiso   1.00
H264   H     0.29568   0.46679   0.58622   0.00000  Uiso   1.00
H265   H     0.28269   0.13936   0.45592   0.00000  Uiso   1.00
H266   H     0.68657   0.42695   0.55717   0.00000  Uiso   1.00
H267   H     0.19792   0.54102   0.64772   0.00000  Uiso   1.00
O268   O     0.26126   0.99806   0.47721   0.00000  Uiso   1.00
O269   O     0.79113   0.37538   0.61004   0.00000  Uiso   1.00
O270   O     0.15003   0.52504   0.72884   0.00000  Uiso   1.00
N271   N     0.30764   0.04723   0.54190   0.00000  Uiso   1.00
N272   N     0.68524   0.31610   0.63655   0.00000  Uiso   1.00
N273   N     0.22841   0.42276   0.72121   0.00000  Uiso   1.00
N274   N     0.29502   0.12216   0.48619   0.00000  Uiso   1.00
N275   N     0.67262   0.39102   0.58084   0.00000  Uiso   1.00
N276   N     0.21579   0.49769   0.66551   0.00000  Uiso   1.00
C277   C     0.24458   0.90817   0.63812   0.00000  Uiso   1.00
C278   C     0.28365   0.87737   0.59799   0.00000  Uiso   1.00
C279   C     0.35823   0.85851   0.59527   0.00000  Uiso   1.00
C280   C     0.38329   0.83127   0.55567   0.00000  Uiso   1.00
C281   C     0.45124   0.78471   0.49877   0.00000  Uiso   1.00
C282   C     0.20955   0.98144   0.62407   0.00000  Uiso   1.00
C283   C     0.22183   0.05009   0.64329   0.00000  Uiso   1.00
C284   C     0.18452   0.11046   0.62564   0.00000  Uiso   1.00
C285   C     0.13739   0.22546   0.60925   0.00000  Uiso   1.00
C286   C     0.18017   0.85553   0.64740   0.00000  Uiso   1.00
C287   C     0.16772   0.81832   0.68624   0.00000  Uiso   1.00
C288   C     0.10565   0.77270   0.68824   0.00000  Uiso   1.00
C289   C     0.01290   0.69221   0.70807   0.00000  Uiso   1.00
C290   C     0.15647   0.89333   0.57261   0.00000  Uiso   1.00
C291   C     0.23578   0.86931   0.56241   0.00000  Uiso   1.00
C292   C     0.26074   0.84209   0.52280   0.00000  Uiso   1.00
C293   C     0.33535   0.82319   0.52003   0.00000  Uiso   1.00
C294   C     0.16169   0.97338   0.58849   0.00000  Uiso   1.00
C295   C     0.12434   0.03367   0.57081   0.00000  Uiso   1.00
C296   C     0.13657   0.10238   0.59000   0.00000  Uiso   1.00
C297   C     0.13230   0.84747   0.61182   0.00000  Uiso   1.00
C298   C     0.07024   0.80190   0.61376   0.00000  Uiso   1.00
C299   C     0.05771   0.76463   0.65260   0.00000  Uiso   1.00
H300   H     0.28184   0.91445   0.66582   0.00000  Uiso   1.00
H301   H     0.39525   0.86476   0.62282   0.00000  Uiso   1.00
H302   H     0.25887   0.05630   0.67083   0.00000  Uiso   1.00
H303   H     0.20477   0.82457   0.71377   0.00000  Uiso   1.00
H304   H     0.49988   0.80615   0.55945   0.00000  Uiso   1.00
H305   H     0.21230   0.21002   0.66069   0.00000  Uiso   1.00
H306   H     0.09822   0.72138   0.75124   0.00000  Uiso   1.00
H307   H     0.11920   0.88705   0.54491   0.00000  Uiso   1.00
H308   H     0.22369   0.83586   0.49527   0.00000  Uiso   1.00
H309   H     0.08731   0.02741   0.54328   0.00000  Uiso   1.00
H310   H     0.03321   0.79568   0.58622   0.00000  Uiso   1.00
H311   H     0.36064   0.78269   0.45592   0.00000  Uiso   1.00
H312   H     0.07305   0.18657   0.55717   0.00000  Uiso   1.00
H313   H     0.95898   0.69792   0.64772   0.00000  Uiso   1.00
O314   O     0.50194   0.76126   0.47721   0.00000  Uiso   1.00
O315   O     0.12462   0.29113   0.61004   0.00000  Uiso   1.00
O316   O     0.97496   0.65003   0.72884   0.00000  Uiso   1.00
N317   N     0.45277   0.80764   0.54190   0.00000  Uiso   1.00
N318   N     0.18390   0.18524   0.63655   0.00000  Uiso   1.00
N319   N     0.07724   0.72841   0.72121   0.00000  Uiso   1.00
N320   N     0.37784   0.79502   0.48619   0.00000  Uiso   1.00
N321   N     0.10898   0.17262   0.58084   0.00000  Uiso   1.00
N322   N     0.00231   0.71579   0.66551   0.00000  Uiso   1.00
C323   C     0.75542   0.09183   0.63812   0.00000  Uiso   1.00
C324   C     0.71635   0.12263   0.59799   0.00000  Uiso   1.00
C325   C     0.64177   0.14149   0.59527   0.00000  Uiso   1.00
C326   C     0.61671   0.16873   0.55567   0.00000  Uiso   1.00
C327   C     0.54876   0.21529   0.49877   0.00000  Uiso   1.00
C328   C     0.79045   0.01856   0.62407   0.00000  Uiso   1.00
C329   C     0.77817   0.94991   0.64329   0.00000  Uiso   1.00
C330   C     0.81548   0.88954   0.62564   0.00000  Uiso   1.00
C331   C     0.86261   0.77454   0.60925   0.00000  Uiso   1.00
C332   C     0.81983   0.14447   0.64740   0.00000  Uiso   1.00
C333   C     0.83228   0.18168   0.68624   0.00000  Uiso   1.00
C334   C     0.89435   0.22730   0.68824   0.00000  Uiso   1.00
C335   C     0.98710   0.30779   0.70807   0.00000  Uiso   1.00
C336   C     0.84353   0.10667   0.57261   0.00000  Uiso   1.00
C337   C     0.76422   0.13069   0.56241   0.00000  Uiso   1.00
C338   C     0.73926   0.15791   0.52280   0.00000  Uiso   1.00
C339   C     0.66465   0.17681   0.52003   0.00000  Uiso   1.00
C340   C     0.83831   0.02662   0.58849   0.00000  Uiso   1.00
C341   C     0.87566   0.96633   0.57081   0.00000  Uiso   1.00
C342   C     0.86343   0.89762   0.59000   0.00000  Uiso   1.00
C343   C     0.86770   0.15253   0.61182   0.00000  Uiso   1.00
C344   C     0.92976   0.19810   0.61376   0.00000  Uiso   1.00
C345   C     0.94229   0.23537   0.65260   0.00000  Uiso   1.00
H346   H     0.71816   0.08555   0.66582   0.00000  Uiso   1.00
H347   H     0.60475   0.13524   0.62282   0.00000  Uiso   1.00
H348   H     0.74113   0.94370   0.67083   0.00000  Uiso   1.00
H349   H     0.79523   0.17543   0.71377   0.00000  Uiso   1.00
H350   H     0.50012   0.19385   0.55945   0.00000  Uiso   1.00
H351   H     0.78770   0.78998   0.66069   0.00000  Uiso   1.00
H352   H     0.90178   0.27862   0.75124   0.00000  Uiso   1.00
H353   H     0.88080   0.11295   0.54491   0.00000  Uiso   1.00
H354   H     0.77631   0.16414   0.49527   0.00000  Uiso   1.00
H355   H     0.91269   0.97259   0.54328   0.00000  Uiso   1.00
H356   H     0.96679   0.20432   0.58622   0.00000  Uiso   1.00
H357   H     0.63936   0.21731   0.45592   0.00000  Uiso   1.00
H358   H     0.92695   0.81343   0.55717   0.00000  Uiso   1.00
H359   H     0.04102   0.30208   0.64772   0.00000  Uiso   1.00
O360   O     0.49806   0.23874   0.47721   0.00000  Uiso   1.00
O361   O     0.87538   0.70887   0.61004   0.00000  Uiso   1.00
O362   O     0.02504   0.34997   0.72884   0.00000  Uiso   1.00
N363   N     0.54723   0.19236   0.54190   0.00000  Uiso   1.00
N364   N     0.81610   0.81476   0.63655   0.00000  Uiso   1.00
N365   N     0.92276   0.27159   0.72121   0.00000  Uiso   1.00
N366   N     0.62216   0.20498   0.48619   0.00000  Uiso   1.00
N367   N     0.89102   0.82738   0.58084   0.00000  Uiso   1.00
N368   N     0.99769   0.28421   0.66551   0.00000  Uiso   1.00
C369   C     0.59183   0.25542   0.13812   0.00000  Uiso   1.00
C370   C     0.62263   0.21635   0.09799   0.00000  Uiso   1.00
C371   C     0.64149   0.14177   0.09527   0.00000  Uiso   1.00
C372   C     0.66873   0.11671   0.05567   0.00000  Uiso   1.00
C373   C     0.71529   0.04876   0.99877   0.00000  Uiso   1.00
C374   C     0.51856   0.29045   0.12407   0.00000  Uiso   1.00
C375   C     0.44991   0.27817   0.14329   0.00000  Uiso   1.00
C376   C     0.38954   0.31548   0.12564   0.00000  Uiso   1.00
C377   C     0.27454   0.36261   0.10925   0.00000  Uiso   1.00
C378   C     0.64447   0.31983   0.14740   0.00000  Uiso   1.00
C379   C     0.68168   0.33228   0.18624   0.00000  Uiso   1.00
C380   C     0.72730   0.39435   0.18824   0.00000  Uiso   1.00
C381   C     0.80779   0.48710   0.20807   0.00000  Uiso   1.00
C382   C     0.60667   0.34353   0.07261   0.00000  Uiso   1.00
C383   C     0.63069   0.26422   0.06241   0.00000  Uiso   1.00
C384   C     0.65791   0.23926   0.02280   0.00000  Uiso   1.00
C385   C     0.67681   0.16465   0.02003   0.00000  Uiso   1.00
C386   C     0.52662   0.33831   0.08849   0.00000  Uiso   1.00
C387   C     0.46633   0.37566   0.07081   0.00000  Uiso   1.00
C388   C     0.39762   0.36343   0.09000   0.00000  Uiso   1.00
C389   C     0.65253   0.36770   0.11182   0.00000  Uiso   1.00
C390   C     0.69810   0.42976   0.11376   0.00000  Uiso   1.00
C391   C     0.73537   0.44229   0.15260   0.00000  Uiso   1.00
H392   H     0.58555   0.21816   0.16582   0.00000  Uiso   1.00
H393   H     0.63524   0.10475   0.12282   0.00000  Uiso   1.00
H394   H     0.44370   0.24113   0.17083   0.00000  Uiso   1.00
H395   H     0.67543   0.29523   0.21377   0.00000  Uiso   1.00
H396   H     0.69385   0.00012   0.05945   0.00000  Uiso   1.00
H397   H     0.28998   0.28770   0.16069   0.00000  Uiso   1.00
H398   H     0.77862   0.40178   0.25124   0.00000  Uiso   1.00
H399   H     0.61295   0.38080   0.04491   0.00000  Uiso   1.00
H400   H     0.66414   0.27631   0.99527   0.00000  Uiso   1.00
H401   H     0.47259   0.41269   0.04328   0.00000  Uiso   1.00
H402   H     0.70432   0.46679   0.08622   0.00000  Uiso   1.00
H403   H     0.71731   0.13936   0.95592   0.00000  Uiso   1.00
H404   H     0.31343   0.42695   0.05717   0.00000  Uiso   1.00
H405   H     0.80208   0.54102   0.14772   0.00000  Uiso   1.00
O406   O     0.73874   0.99806   0.97721   0.00000  Uiso   1.00
O407   O     0.20887   0.37538   0.11004   0.00000  Uiso   1.00
O408   O     0.84997   0.52504   0.22884   0.00000  Uiso   1.00
N409   N     0.69236   0.04723   0.04190   0.00000  Uiso   1.00
N410   N     0.31476   0.31610   0.13655   0.00000  Uiso   1.00
N411   N     0.77159   0.42276   0.22121   0.00000  Uiso   1.00
N412   N     0.70498   0.12216   0.98619   0.00000  Uiso   1.00
N413   N     0.32738   0.39102   0.08084   0.00000  Uiso   1.00
N414   N     0.78421   0.49769   0.16551   0.00000  Uiso   1.00
C415   C     0.40817   0.74458   0.13812   0.00000  Uiso   1.00
C416   C     0.37737   0.78365   0.09799   0.00000  Uiso   1.00
C417   C     0.35851   0.85823   0.09527   0.00000  Uiso   1.00
C418   C     0.33127   0.88329   0.05567   0.00000  Uiso   1.00
C419   C     0.28471   0.95124   0.99877   0.00000  Uiso   1.00
C420   C     0.48144   0.70955   0.12407   0.00000  Uiso   1.00
C421   C     0.55009   0.72183   0.14329   0.00000  Uiso   1.00
C422   C     0.61046   0.68452   0.12564   0.00000  Uiso   1.00
C423   C     0.72546   0.63739   0.10925   0.00000  Uiso   1.00
C424   C     0.35553   0.68017   0.14740   0.00000  Uiso   1.00
C425   C     0.31832   0.66772   0.18624   0.00000  Uiso   1.00
C426   C     0.27270   0.60565   0.18824   0.00000  Uiso   1.00
C427   C     0.19221   0.51290   0.20807   0.00000  Uiso   1.00
C428   C     0.39333   0.65647   0.07261   0.00000  Uiso   1.00
C429   C     0.36931   0.73578   0.06241   0.00000  Uiso   1.00
C430   C     0.34209   0.76074   0.02280   0.00000  Uiso   1.00
C431   C     0.32319   0.83535   0.02003   0.00000  Uiso   1.00
C432   C     0.47338   0.66169   0.08849   0.00000  Uiso   1.00
C433   C     0.53367   0.62434   0.07081   0.00000  Uiso   1.00
C434   C     0.60238   0.63657   0.09000   0.00000  Uiso   1.00
C435   C     0.34747   0.63230   0.11182   0.00000  Uiso   1.00
C436   C     0.30190   0.57024   0.11376   0.00000  Uiso   1.00
C437   C     0.26463   0.55771   0.15260   0.00000  Uiso   1.00
H438   H     0.41445   0.78184   0.16582   0.00000  Uiso   1.00
H439   H     0.36476   0.89525   0.12282   0.00000  Uiso   1.00
H440   H     0.55630   0.75887   0.17083   0.00000  Uiso   1.00
H441   H     0.32457   0.70477   0.21377   0.00000  Uiso   1.00
H442   H     0.30615   0.99988   0.05945   0.00000  Uiso   1.00
H443   H     0.71002   0.71230   0.16069   0.00000  Uiso   1.00
H444   H     0.22138   0.59822   0.25124   0.00000  Uiso   1.00
H445   H     0.38705   0.61920   0.04491   0.00000  Uiso   1.00
H446   H     0.33586   0.72369   0.99527   0.00000  Uiso   1.00
H447   H     0.52741   0.58731   0.04328   0.00000  Uiso   1.00
H448   H     0.29568   0.53321   0.08622   0.00000  Uiso   1.00
H449   H     0.28269   0.86064   0.95592   0.00000  Uiso   1.00
H450   H     0.68657   0.57305   0.05717   0.00000  Uiso   1.00
H451   H     0.19792   0.45898   0.14772   0.00000  Uiso   1.00
O452   O     0.26126   0.00194   0.97721   0.00000  Uiso   1.00
O453   O     0.79113   0.62462   0.11004   0.00000  Uiso   1.00
O454   O     0.15003   0.47496   0.22884   0.00000  Uiso   1.00
N455   N     0.30764   0.95277   0.04190   0.00000  Uiso   1.00
N456   N     0.68524   0.68390   0.13655   0.00000  Uiso   1.00
N457   N     0.22841   0.57724   0.22121   0.00000  Uiso   1.00
N458   N     0.29502   0.87784   0.98619   0.00000  Uiso   1.00
N459   N     0.67262   0.60898   0.08084   0.00000  Uiso   1.00
N460   N     0.21579   0.50231   0.16551   0.00000  Uiso   1.00
C461   C     0.24458   0.09183   0.13812   0.00000  Uiso   1.00
C462   C     0.28365   0.12263   0.09799   0.00000  Uiso   1.00
C463   C     0.35823   0.14149   0.09527   0.00000  Uiso   1.00
C464   C     0.38329   0.16873   0.05567   0.00000  Uiso   1.00
C465   C     0.45124   0.21529   0.99877   0.00000  Uiso   1.00
C466   C     0.20955   0.01856   0.12407   0.00000  Uiso   1.00
C467   C     0.22183   0.94991   0.14329   0.00000  Uiso   1.00
C468   C     0.18452   0.88954   0.12564   0.00000  Uiso   1.00
C469   C     0.13739   0.77454   0.10925   0.00000  Uiso   1.00
C470   C     0.18017   0.14447   0.14740   0.00000  Uiso   1.00
C471   C     0.16772   0.18168   0.18624   0.00000  Uiso   1.00
C472   C     0.10565   0.22730   0.18824   0.00000  Uiso   1.00
C473   C     0.01290   0.30779   0.20807   0.00000  Uiso   1.00
C474   C     0.15647   0.10667   0.07261   0.00000  Uiso   1.00
C475   C     0.23578   0.13069   0.06241   0.00000  Uiso   1.00
C476   C     0.26074   0.15791   0.02280   0.00000  Uiso   1.00
C477   C     0.33535   0.17681   0.02003   0.00000  Uiso   1.00
C478   C     0.16169   0.02662   0.08849   0.00000  Uiso   1.00
C479   C     0.12434   0.96633   0.07081   0.00000  Uiso   1.00
C480   C     0.13657   0.89762   0.09000   0.00000  Uiso   1.00
C481   C     0.13230   0.15253   0.11182   0.00000  Uiso   1.00
C482   C     0.07024   0.19810   0.11376   0.00000  Uiso   1.00
C483   C     0.05771   0.23537   0.15260   0.00000  Uiso   1.00
H484   H     0.28184   0.08555   0.16582   0.00000  Uiso   1.00
H485   H     0.39525   0.13524   0.12282   0.00000  Uiso   1.00
H486   H     0.25887   0.94370   0.17083   0.00000  Uiso   1.00
H487   H     0.20477   0.17543   0.21377   0.00000  Uiso   1.00
H488   H     0.49988   0.19385   0.05945   0.00000  Uiso   1.00
H489   H     0.21230   0.78998   0.16069   0.00000  Uiso   1.00
H490   H     0.09822   0.27862   0.25124   0.00000  Uiso   1.00
H491   H     0.11920   0.11295   0.04491   0.00000  Uiso   1.00
H492   H     0.22369   0.16414   0.99527   0.00000  Uiso   1.00
H493   H     0.08731   0.97259   0.04328   0.00000  Uiso   1.00
H494   H     0.03321   0.20432   0.08622   0.00000  Uiso   1.00
H495   H     0.36064   0.21731   0.95592   0.00000  Uiso   1.00
H496   H     0.07305   0.81343   0.05717   0.00000  Uiso   1.00
H497   H     0.95898   0.30208   0.14772   0.00000  Uiso   1.00
O498   O     0.50194   0.23874   0.97721   0.00000  Uiso   1.00
O499   O     0.12462   0.70887   0.11004   0.00000  Uiso   1.00
O500   O     0.97496   0.34997   0.22884   0.00000  Uiso   1.00
N501   N     0.45277   0.19236   0.04190   0.00000  Uiso   1.00
N502   N     0.18390   0.81476   0.13655   0.00000  Uiso   1.00
N503   N     0.07724   0.27159   0.22121   0.00000  Uiso   1.00
N504   N     0.37784   0.20498   0.98619   0.00000  Uiso   1.00
N505   N     0.10898   0.82738   0.08084   0.00000  Uiso   1.00
N506   N     0.00231   0.28421   0.16551   0.00000  Uiso   1.00
C507   C     0.75542   0.90817   0.13812   0.00000  Uiso   1.00
C508   C     0.71635   0.87737   0.09799   0.00000  Uiso   1.00
C509   C     0.64177   0.85851   0.09527   0.00000  Uiso   1.00
C510   C     0.61671   0.83127   0.05567   0.00000  Uiso   1.00
C511   C     0.54876   0.78471   0.99877   0.00000  Uiso   1.00
C512   C     0.79045   0.98144   0.12407   0.00000  Uiso   1.00
C513   C     0.77817   0.05009   0.14329   0.00000  Uiso   1.00
C514   C     0.81548   0.11046   0.12564   0.00000  Uiso   1.00
C515   C     0.86261   0.22546   0.10925   0.00000  Uiso   1.00
C516   C     0.81983   0.85553   0.14740   0.00000  Uiso   1.00
C517   C     0.83228   0.81832   0.18624   0.00000  Uiso   1.00
C518   C     0.89435   0.77270   0.18824   0.00000  Uiso   1.00
C519   C     0.98710   0.69221   0.20807   0.00000  Uiso   1.00
C520   C     0.84353   0.89333   0.07261   0.00000  Uiso   1.00
C521   C     0.76422   0.86931   0.06241   0.00000  Uiso   1.00
C522   C     0.73926   0.84209   0.02280   0.00000  Uiso   1.00
C523   C     0.66465   0.82319   0.02003   0.00000  Uiso   1.00
C524   C     0.83831   0.97338   0.08849   0.00000  Uiso   1.00
C525   C     0.87566   0.03367   0.07081   0.00000  Uiso   1.00
C526   C     0.86343   0.10238   0.09000   0.00000  Uiso   1.00
C527   C     0.86770   0.84747   0.11182   0.00000  Uiso   1.00
C528   C     0.92976   0.80190   0.11376   0.00000  Uiso   1.00
C529   C     0.94229   0.76463   0.15260   0.00000  Uiso   1.00
H530   H     0.71816   0.91445   0.16582   0.00000  Uiso   1.00
H531   H     0.60475   0.86476   0.12282   0.00000  Uiso   1.00
H532   H     0.74113   0.05630   0.17083   0.00000  Uiso   1.00
H533   H     0.79523   0.82457   0.21377   0.00000  Uiso   1.00
H534   H     0.50012   0.80615   0.05945   0.00000  Uiso   1.00
H535   H     0.78770   0.21002   0.16069   0.00000  Uiso   1.00
H536   H     0.90178   0.72138   0.25124   0.00000  Uiso   1.00
H537   H     0.88080   0.88705   0.04491   0.00000  Uiso   1.00
H538   H     0.77631   0.83586   0.99527   0.00000  Uiso   1.00
H539   H     0.91269   0.02741   0.04328   0.00000  Uiso   1.00
H540   H     0.96679   0.79568   0.08622   0.00000  Uiso   1.00
H541   H     0.63936   0.78269   0.95592   0.00000  Uiso   1.00
H542   H     0.92695   0.18657   0.05717   0.00000  Uiso   1.00
H543   H     0.04102   0.69792   0.14772   0.00000  Uiso   1.00
O544   O     0.49806   0.76126   0.97721   0.00000  Uiso   1.00
O545   O     0.87538   0.29113   0.11004   0.00000  Uiso   1.00
O546   O     0.02504   0.65003   0.22884   0.00000  Uiso   1.00
N547   N     0.54723   0.80764   0.04190   0.00000  Uiso   1.00
N548   N     0.81610   0.18524   0.13655   0.00000  Uiso   1.00
N549   N     0.92276   0.72841   0.22121   0.00000  Uiso   1.00
N550   N     0.62216   0.79502   0.98619   0.00000  Uiso   1.00
N551   N     0.89102   0.17262   0.08084   0.00000  Uiso   1.00
N552   N     0.99769   0.71579   0.16551   0.00000  Uiso   1.00
C553   C     0.90817   0.75542   0.36188   0.00000  Uiso   1.00
C554   C     0.87737   0.71635   0.40201   0.00000  Uiso   1.00
C555   C     0.85851   0.64177   0.40473   0.00000  Uiso   1.00
C556   C     0.83127   0.61671   0.44433   0.00000  Uiso   1.00
C557   C     0.78471   0.54876   0.50123   0.00000  Uiso   1.00
C558   C     0.98144   0.79045   0.37593   0.00000  Uiso   1.00
C559   C     0.05009   0.77817   0.35671   0.00000  Uiso   1.00
C560   C     0.11046   0.81548   0.37436   0.00000  Uiso   1.00
C561   C     0.22546   0.86261   0.39075   0.00000  Uiso   1.00
C562   C     0.85553   0.81983   0.35260   0.00000  Uiso   1.00
C563   C     0.81832   0.83228   0.31376   0.00000  Uiso   1.00
C564   C     0.77270   0.89435   0.31176   0.00000  Uiso   1.00
C565   C     0.69221   0.98710   0.29193   0.00000  Uiso   1.00
C566   C     0.89333   0.84353   0.42739   0.00000  Uiso   1.00
C567   C     0.86931   0.76422   0.43759   0.00000  Uiso   1.00
C568   C     0.84209   0.73926   0.47720   0.00000  Uiso   1.00
C569   C     0.82319   0.66465   0.47997   0.00000  Uiso   1.00
C570   C     0.97338   0.83831   0.41151   0.00000  Uiso   1.00
C571   C     0.03367   0.87566   0.42919   0.00000  Uiso   1.00
C572   C     0.10238   0.86343   0.41000   0.00000  Uiso   1.00
C573   C     0.84747   0.86770   0.38818   0.00000  Uiso   1.00
C574   C     0.80190   0.92976   0.38624   0.00000  Uiso   1.00
C575   C     0.76463   0.94229   0.34740   0.00000  Uiso   1.00
H576   H     0.91445   0.71816   0.33418   0.00000  Uiso   1.00
H577   H     0.86476   0.60475   0.37718   0.00000  Uiso   1.00
H578   H     0.05630   0.74113   0.32917   0.00000  Uiso   1.00
H579   H     0.82457   0.79523   0.28623   0.00000  Uiso   1.00
H580   H     0.80615   0.50012   0.44055   0.00000  Uiso   1.00
H581   H     0.21002   0.78770   0.33931   0.00000  Uiso   1.00
H582   H     0.72138   0.90178   0.24876   0.00000  Uiso   1.00
H583   H     0.88705   0.88080   0.45509   0.00000  Uiso   1.00
H584   H     0.83586   0.77631   0.50473   0.00000  Uiso   1.00
H585   H     0.02741   0.91269   0.45672   0.00000  Uiso   1.00
H586   H     0.79568   0.96679   0.41378   0.00000  Uiso   1.00
H587   H     0.78269   0.63936   0.54408   0.00000  Uiso   1.00
H588   H     0.18657   0.92695   0.44283   0.00000  Uiso   1.00
H589   H     0.69792   0.04102   0.35228   0.00000  Uiso   1.00
O590   O     0.76126   0.49806   0.52279   0.00000  Uiso   1.00
O591   O     0.29113   0.87538   0.38996   0.00000  Uiso   1.00
O592   O     0.65003   0.02504   0.27116   0.00000  Uiso   1.00
N593   N     0.80764   0.54723   0.45810   0.00000  Uiso   1.00
N594   N     0.18524   0.81610   0.36345   0.00000  Uiso   1.00
N595   N     0.72841   0.92276   0.27879   0.00000  Uiso   1.00
N596   N     0.79502   0.62216   0.51381   0.00000  Uiso   1.00
N597   N     0.17262   0.89102   0.41916   0.00000  Uiso   1.00
N598   N     0.71579   0.99769   0.33449   0.00000  Uiso   1.00
C599   C     0.09183   0.24458   0.36188   0.00000  Uiso   1.00
C600   C     0.12263   0.28365   0.40201   0.00000  Uiso   1.00
C601   C     0.14149   0.35823   0.40473   0.00000  Uiso   1.00
C602   C     0.16873   0.38329   0.44433   0.00000  Uiso   1.00
C603   C     0.21529   0.45124   0.50123   0.00000  Uiso   1.00
C604   C     0.01856   0.20955   0.37593   0.00000  Uiso   1.00
C605   C     0.94991   0.22183   0.35671   0.00000  Uiso   1.00
C606   C     0.88954   0.18452   0.37436   0.00000  Uiso   1.00
C607   C     0.77454   0.13739   0.39075   0.00000  Uiso   1.00
C608   C     0.14447   0.18017   0.35260   0.00000  Uiso   1.00
C609   C     0.18168   0.16772   0.31376   0.00000  Uiso   1.00
C610   C     0.22730   0.10565   0.31176   0.00000  Uiso   1.00
C611   C     0.30779   0.01290   0.29193   0.00000  Uiso   1.00
C612   C     0.10667   0.15647   0.42739   0.00000  Uiso   1.00
C613   C     0.13069   0.23578   0.43759   0.00000  Uiso   1.00
C614   C     0.15791   0.26074   0.47720   0.00000  Uiso   1.00
C615   C     0.17681   0.33535   0.47997   0.00000  Uiso   1.00
C616   C     0.02662   0.16169   0.41151   0.00000  Uiso   1.00
C617   C     0.96633   0.12434   0.42919   0.00000  Uiso   1.00
C618   C     0.89762   0.13657   0.41000   0.00000  Uiso   1.00
C619   C     0.15253   0.13230   0.38818   0.00000  Uiso   1.00
C620   C     0.19810   0.07024   0.38624   0.00000  Uiso   1.00
C621   C     0.23537   0.05771   0.34740   0.00000  Uiso   1.00
H622   H     0.08555   0.28184   0.33418   0.00000  Uiso   1.00
H623   H     0.13524   0.39525   0.37718   0.00000  Uiso   1.00
H624   H     0.94370   0.25887   0.32917   0.00000  Uiso   1.00
H625   H     0.17543   0.20477   0.28623   0.00000  Uiso   1.00
H626   H     0.19385   0.49988   0.44055   0.00000  Uiso   1.00
H627   H     0.78998   0.21230   0.33931   0.00000  Uiso   1.00
H628   H     0.27862   0.09822   0.24876   0.00000  Uiso   1.00
H629   H     0.11295   0.11920   0.45509   0.00000  Uiso   1.00
H630   H     0.16414   0.22369   0.50473   0.00000  Uiso   1.00
H631   H     0.97259   0.08731   0.45672   0.00000  Uiso   1.00
H632   H     0.20432   0.03321   0.41378   0.00000  Uiso   1.00
H633   H     0.21731   0.36064   0.54408   0.00000  Uiso   1.00
H634   H     0.81343   0.07305   0.44283   0.00000  Uiso   1.00
H635   H     0.30208   0.95898   0.35228   0.00000  Uiso   1.00
O636   O     0.23874   0.50194   0.52279   0.00000  Uiso   1.00
O637   O     0.70887   0.12462   0.38996   0.00000  Uiso   1.00
O638   O     0.34997   0.97496   0.27116   0.00000  Uiso   1.00
N639   N     0.19236   0.45277   0.45810   0.00000  Uiso   1.00
N640   N     0.81476   0.18390   0.36345   0.00000  Uiso   1.00
N641   N     0.27159   0.07724   0.27879   0.00000  Uiso   1.00
N642   N     0.20498   0.37784   0.51381   0.00000  Uiso   1.00
N643   N     0.82738   0.10898   0.41916   0.00000  Uiso   1.00
N644   N     0.28421   0.00231   0.33449   0.00000  Uiso   1.00
C645   C     0.25542   0.59183   0.36188   0.00000  Uiso   1.00
C646   C     0.21635   0.62263   0.40201   0.00000  Uiso   1.00
C647   C     0.14177   0.64149   0.40473   0.00000  Uiso   1.00
C648   C     0.11671   0.66873   0.44433   0.00000  Uiso   1.00
C649   C     0.04876   0.71529   0.50123   0.00000  Uiso   1.00
C650   C     0.29045   0.51856   0.37593   0.00000  Uiso   1.00
C651   C     0.27817   0.44991   0.35671   0.00000  Uiso   1.00
C652   C     0.31548   0.38954   0.37436   0.00000  Uiso   1.00
C653   C     0.36261   0.27454   0.39075   0.00000  Uiso   1.00
C654   C     0.31983   0.64447   0.35260   0.00000  Uiso   1.00
C655   C     0.33228   0.68168   0.31376   0.00000  Uiso   1.00
C656   C     0.39435   0.72730   0.31176   0.00000  Uiso   1.00
C657   C     0.48710   0.80779   0.29193   0.00000  Uiso   1.00
C658   C     0.34353   0.60667   0.42739   0.00000  Uiso   1.00
C659   C     0.26422   0.63069   0.43759   0.00000  Uiso   1.00
C660   C     0.23926   0.65791   0.47720   0.00000  Uiso   1.00
C661   C     0.16465   0.67681   0.47997   0.00000  Uiso   1.00
C662   C     0.33831   0.52662   0.41151   0.00000  Uiso   1.00
C663   C     0.37566   0.46633   0.42919   0.00000  Uiso   1.00
C664   C     0.36343   0.39762   0.41000   0.00000  Uiso   1.00
C665   C     0.36770   0.65253   0.38818   0.00000  Uiso   1.00
C666   C     0.42976   0.69810   0.38624   0.00000  Uiso   1.00
C667   C     0.44229   0.73537   0.34740   0.00000  Uiso   1.00
H668   H     0.21816   0.58555   0.33418   0.00000  Uiso   1.00
H669   H     0.10475   0.63524   0.37718   0.00000  Uiso   1.00
H670   H     0.24113   0.44370   0.32917   0.00000  Uiso   1.00
H671   H     0.29523   0.67543   0.28623   0.00000  Uiso   1.00
H672   H     0.00012   0.69385   0.44055   0.00000  Uiso   1.00
H673   H     0.28770   0.28998   0.33931   0.00000  Uiso   1.00
H674   H     0.40178   0.77862   0.24876   0.00000  Uiso   1.00
H675   H     0.38080   0.61295   0.45509   0.00000  Uiso   1.00
H676   H     0.27631   0.66414   0.50473   0.00000  Uiso   1.00
H677   H     0.41269   0.47259   0.45672   0.00000  Uiso   1.00
H678   H     0.46679   0.70432   0.41378   0.00000  Uiso   1.00
H679   H     0.13936   0.71731   0.54408   0.00000  Uiso   1.00
H680   H     0.42695   0.31343   0.44283   0.00000  Uiso   1.00
H681   H     0.54102   0.80208   0.35228   0.00000  Uiso   1.00
O682   O     0.99806   0.73874   0.52279   0.00000  Uiso   1.00
O683   O     0.37538   0.20887   0.38996   0.00000  Uiso   1.00
O684   O     0.52504   0.84997   0.27116   0.00000  Uiso   1.00
N685   N     0.04723   0.69236   0.45810   0.00000  Uiso   1.00
N686   N     0.31610   0.31476   0.36345   0.00000  Uiso   1.00
N687   N     0.42276   0.77159   0.27879   0.00000  Uiso   1.00
N688   N     0.12216   0.70498   0.51381   0.00000  Uiso   1.00
N689   N     0.39102   0.32738   0.41916   0.00000  Uiso   1.00
N690   N     0.49769   0.78421   0.33449   0.00000  Uiso   1.00
C691   C     0.74458   0.40817   0.36188   0.00000  Uiso   1.00
C692   C     0.78365   0.37737   0.40201   0.00000  Uiso   1.00
C693   C     0.85823   0.35851   0.40473   0.00000  Uiso   1.00
C694   C     0.88329   0.33127   0.44433   0.00000  Uiso   1.00
C695   C     0.95124   0.28471   0.50123   0.00000  Uiso   1.00
C696   C     0.70955   0.48144   0.37593   0.00000  Uiso   1.00
C697   C     0.72183   0.55009   0.35671   0.00000  Uiso   1.00
C698   C     0.68452   0.61046   0.37436   0.00000  Uiso   1.00
C699   C     0.63739   0.72546   0.39075   0.00000  Uiso   1.00
C700   C     0.68017   0.35553   0.35260   0.00000  Uiso   1.00
C701   C     0.66772   0.31832   0.31376   0.00000  Uiso   1.00
C702   C     0.60565   0.27270   0.31176   0.00000  Uiso   1.00
C703   C     0.51290   0.19221   0.29193   0.00000  Uiso   1.00
C704   C     0.65647   0.39333   0.42739   0.00000  Uiso   1.00
C705   C     0.73578   0.36931   0.43759   0.00000  Uiso   1.00
C706   C     0.76074   0.34209   0.47720   0.00000  Uiso   1.00
C707   C     0.83535   0.32319   0.47997   0.00000  Uiso   1.00
C708   C     0.66169   0.47338   0.41151   0.00000  Uiso   1.00
C709   C     0.62434   0.53367   0.42919   0.00000  Uiso   1.00
C710   C     0.63657   0.60238   0.41000   0.00000  Uiso   1.00
C711   C     0.63230   0.34747   0.38818   0.00000  Uiso   1.00
C712   C     0.57024   0.30190   0.38624   0.00000  Uiso   1.00
C713   C     0.55771   0.26463   0.34740   0.00000  Uiso   1.00
H714   H     0.78184   0.41445   0.33418   0.00000  Uiso   1.00
H715   H     0.89525   0.36476   0.37718   0.00000  Uiso   1.00
H716   H     0.75887   0.55630   0.32917   0.00000  Uiso   1.00
H717   H     0.70477   0.32457   0.28623   0.00000  Uiso   1.00
H718   H     0.99988   0.30615   0.44055   0.00000  Uiso   1.00
H719   H     0.71230   0.71002   0.33931   0.00000  Uiso   1.00
H720   H     0.59822   0.22138   0.24876   0.00000  Uiso   1.00
H721   H     0.61920   0.38705   0.45509   0.00000  Uiso   1.00
H722   H     0.72369   0.33586   0.50473   0.00000  Uiso   1.00
H723   H     0.58731   0.52741   0.45672   0.00000  Uiso   1.00
H724   H     0.53321   0.29568   0.41378   0.00000  Uiso   1.00
H725   H     0.86064   0.28269   0.54408   0.00000  Uiso   1.00
H726   H     0.57305   0.68657   0.44283   0.00000  Uiso   1.00
H727   H     0.45898   0.19792   0.35228   0.00000  Uiso   1.00
O728   O     0.00194   0.26126   0.52279   0.00000  Uiso   1.00
O729   O     0.62462   0.79113   0.38996   0.00000  Uiso   1.00
O730   O     0.47496   0.15003   0.27116   0.00000  Uiso   1.00
N731   N     0.95277   0.30764   0.45810   0.00000  Uiso   1.00
N732   N     0.68390   0.68524   0.36345   0.00000  Uiso   1.00
N733   N     0.57724   0.22841   0.27879   0.00000  Uiso   1.00
N734   N     0.87784   0.29502   0.51381   0.00000  Uiso   1.00
N735   N     0.60898   0.67262   0.41916   0.00000  Uiso   1.00
N736   N     0.50231   0.21579   0.33449   0.00000  Uiso   1.00
