data_job_03873
_audit_creation_date              2018-12-19
_audit_creation_method            'Materials Studio'
_symmetry_space_group_name_H-M    'P1'
_symmetry_Int_Tables_number       1
_symmetry_cell_setting            triclinic
loop_
_symmetry_equiv_pos_as_xyz
  x,y,z
_cell_length_a                    27.9709
_cell_length_b                    26.7452
_cell_length_c                    11.9578
_cell_angle_alpha                 90.0000
_cell_angle_beta                  90.0000
_cell_angle_gamma                 90.0000
loop_
_atom_site_label
_atom_site_type_symbol
_atom_site_fract_x
_atom_site_fract_y
_atom_site_fract_z
_atom_site_U_iso_or_equiv
_atom_site_adp_type
_atom_site_occupancy
C1     C     0.12729   0.38561   0.33340   0.00000  Uiso   1.00
C2     C     0.09694   0.38941   0.22780   0.00000  Uiso   1.00
C3     C     0.04945   0.40429   0.22331   0.00000  Uiso   1.00
C4     C     0.02802   0.40531   0.11861   0.00000  Uiso   1.00
C5     C     0.97707   0.41328   0.96934   0.00000  Uiso   1.00
C6     C     0.17095   0.41854   0.31320   0.00000  Uiso   1.00
C7     C     0.18569   0.45789   0.38054   0.00000  Uiso   1.00
C8     C     0.22657   0.48343   0.34773   0.00000  Uiso   1.00
C9     C     0.29055   0.53658   0.33110   0.00000  Uiso   1.00
C10    C     0.14578   0.33200   0.33722   0.00000  Uiso   1.00
C11    C     0.13936   0.29860   0.42476   0.00000  Uiso   1.00
C12    C     0.15905   0.25128   0.41219   0.00000  Uiso   1.00
C13    C     0.18393   0.17007   0.43285   0.00000  Uiso   1.00
C14    C     0.17369   0.36097   0.15543   0.00000  Uiso   1.00
C15    C     0.12215   0.37603   0.13113   0.00000  Uiso   1.00
C16    C     0.10078   0.37703   0.02641   0.00000  Uiso   1.00
C17    C     0.05327   0.39190   0.02176   0.00000  Uiso   1.00
C18    C     0.19616   0.40516   0.21654   0.00000  Uiso   1.00
C19    C     0.23703   0.43064   0.18363   0.00000  Uiso   1.00
C20    C     0.25182   0.47002   0.25089   0.00000  Uiso   1.00
C21    C     0.17098   0.31862   0.24056   0.00000  Uiso   1.00
C22    C     0.19069   0.27134   0.22785   0.00000  Uiso   1.00
C23    C     0.18430   0.23787   0.31535   0.00000  Uiso   1.00
H24    H     0.10767   0.39603   0.40866   0.00000  Uiso   1.00
H25    H     0.02996   0.41465   0.29814   0.00000  Uiso   1.00
H26    H     0.16618   0.46824   0.45534   0.00000  Uiso   1.00
H27    H     0.11985   0.30897   0.49955   0.00000  Uiso   1.00
H28    H     0.95492   0.42940   0.13297   0.00000  Uiso   1.00
H29    H     0.24216   0.54239   0.46447   0.00000  Uiso   1.00
H30    H     0.14447   0.20654   0.55770   0.00000  Uiso   1.00
H31    H     0.19332   0.35055   0.08016   0.00000  Uiso   1.00
H32    H     0.12030   0.36667   0.95161   0.00000  Uiso   1.00
H33    H     0.25652   0.42027   0.10882   0.00000  Uiso   1.00
H34    H     0.21019   0.26100   0.15303   0.00000  Uiso   1.00
H35    H     0.02824   0.39047   0.85172   0.00000  Uiso   1.00
H36    H     0.31549   0.50346   0.18322   0.00000  Uiso   1.00
H37    H     0.21779   0.16760   0.27645   0.00000  Uiso   1.00
O38    O     0.94200   0.42138   0.91371   0.00000  Uiso   1.00
O39    O     0.31887   0.56961   0.34863   0.00000  Uiso   1.00
O40    O     0.19069   0.12898   0.47094   0.00000  Uiso   1.00
N41    N     0.98219   0.41802   0.08443   0.00000  Uiso   1.00
N42    N     0.25075   0.52366   0.39435   0.00000  Uiso   1.00
N43    N     0.15942   0.20967   0.48152   0.00000  Uiso   1.00
N44    N     0.02164   0.39707   0.93309   0.00000  Uiso   1.00
N45    N     0.29020   0.50271   0.24301   0.00000  Uiso   1.00
N46    N     0.19887   0.18872   0.33018   0.00000  Uiso   1.00
C47    C     0.12729   0.88561   0.83340   0.00000  Uiso   1.00
C48    C     0.09694   0.88941   0.72780   0.00000  Uiso   1.00
C49    C     0.04945   0.90429   0.72331   0.00000  Uiso   1.00
C50    C     0.02802   0.90531   0.61861   0.00000  Uiso   1.00
C51    C     0.97707   0.91328   0.46934   0.00000  Uiso   1.00
C52    C     0.17095   0.91854   0.81320   0.00000  Uiso   1.00
C53    C     0.18569   0.95789   0.88054   0.00000  Uiso   1.00
C54    C     0.22657   0.98343   0.84773   0.00000  Uiso   1.00
C55    C     0.29055   0.03658   0.83110   0.00000  Uiso   1.00
C56    C     0.14578   0.83200   0.83722   0.00000  Uiso   1.00
C57    C     0.13936   0.79860   0.92476   0.00000  Uiso   1.00
C58    C     0.15905   0.75128   0.91219   0.00000  Uiso   1.00
C59    C     0.18393   0.67007   0.93285   0.00000  Uiso   1.00
C60    C     0.17369   0.86097   0.65543   0.00000  Uiso   1.00
C61    C     0.12215   0.87603   0.63113   0.00000  Uiso   1.00
C62    C     0.10078   0.87703   0.52641   0.00000  Uiso   1.00
C63    C     0.05327   0.89190   0.52176   0.00000  Uiso   1.00
C64    C     0.19616   0.90516   0.71654   0.00000  Uiso   1.00
C65    C     0.23703   0.93064   0.68363   0.00000  Uiso   1.00
C66    C     0.25182   0.97002   0.75089   0.00000  Uiso   1.00
C67    C     0.17098   0.81862   0.74056   0.00000  Uiso   1.00
C68    C     0.19069   0.77134   0.72785   0.00000  Uiso   1.00
C69    C     0.18430   0.73787   0.81535   0.00000  Uiso   1.00
H70    H     0.10767   0.89603   0.90866   0.00000  Uiso   1.00
H71    H     0.02996   0.91465   0.79814   0.00000  Uiso   1.00
H72    H     0.16618   0.96824   0.95534   0.00000  Uiso   1.00
H73    H     0.11985   0.80897   0.99955   0.00000  Uiso   1.00
H74    H     0.95492   0.92940   0.63297   0.00000  Uiso   1.00
H75    H     0.24216   0.04239   0.96447   0.00000  Uiso   1.00
H76    H     0.14447   0.70654   0.05770   0.00000  Uiso   1.00
H77    H     0.19332   0.85055   0.58016   0.00000  Uiso   1.00
H78    H     0.12030   0.86667   0.45161   0.00000  Uiso   1.00
H79    H     0.25652   0.92027   0.60882   0.00000  Uiso   1.00
H80    H     0.21019   0.76100   0.65303   0.00000  Uiso   1.00
H81    H     0.02824   0.89047   0.35172   0.00000  Uiso   1.00
H82    H     0.31549   0.00346   0.68322   0.00000  Uiso   1.00
H83    H     0.21779   0.66760   0.77645   0.00000  Uiso   1.00
O84    O     0.94200   0.92138   0.41371   0.00000  Uiso   1.00
O85    O     0.31887   0.06961   0.84863   0.00000  Uiso   1.00
O86    O     0.19069   0.62898   0.97094   0.00000  Uiso   1.00
N87    N     0.98219   0.91802   0.58443   0.00000  Uiso   1.00
N88    N     0.25075   0.02366   0.89435   0.00000  Uiso   1.00
N89    N     0.15942   0.70967   0.98152   0.00000  Uiso   1.00
N90    N     0.02164   0.89707   0.43309   0.00000  Uiso   1.00
N91    N     0.29020   0.00271   0.74301   0.00000  Uiso   1.00
N92    N     0.19887   0.68872   0.83018   0.00000  Uiso   1.00
C93    C     0.62729   0.38561   0.83340   0.00000  Uiso   1.00
C94    C     0.59694   0.38941   0.72780   0.00000  Uiso   1.00
C95    C     0.54945   0.40429   0.72331   0.00000  Uiso   1.00
C96    C     0.52802   0.40531   0.61861   0.00000  Uiso   1.00
C97    C     0.47707   0.41328   0.46934   0.00000  Uiso   1.00
C98    C     0.67095   0.41854   0.81320   0.00000  Uiso   1.00
C99    C     0.68569   0.45789   0.88054   0.00000  Uiso   1.00
C100   C     0.72657   0.48343   0.84773   0.00000  Uiso   1.00
C101   C     0.79055   0.53658   0.83110   0.00000  Uiso   1.00
C102   C     0.64578   0.33200   0.83722   0.00000  Uiso   1.00
C103   C     0.63936   0.29860   0.92476   0.00000  Uiso   1.00
C104   C     0.65905   0.25128   0.91219   0.00000  Uiso   1.00
C105   C     0.68393   0.17007   0.93285   0.00000  Uiso   1.00
C106   C     0.67369   0.36097   0.65543   0.00000  Uiso   1.00
C107   C     0.62215   0.37603   0.63113   0.00000  Uiso   1.00
C108   C     0.60078   0.37703   0.52641   0.00000  Uiso   1.00
C109   C     0.55327   0.39190   0.52176   0.00000  Uiso   1.00
C110   C     0.69616   0.40516   0.71654   0.00000  Uiso   1.00
C111   C     0.73703   0.43064   0.68363   0.00000  Uiso   1.00
C112   C     0.75182   0.47002   0.75089   0.00000  Uiso   1.00
C113   C     0.67098   0.31862   0.74056   0.00000  Uiso   1.00
C114   C     0.69069   0.27134   0.72785   0.00000  Uiso   1.00
C115   C     0.68430   0.23787   0.81535   0.00000  Uiso   1.00
H116   H     0.60767   0.39603   0.90866   0.00000  Uiso   1.00
H117   H     0.52996   0.41465   0.79814   0.00000  Uiso   1.00
H118   H     0.66618   0.46824   0.95534   0.00000  Uiso   1.00
H119   H     0.61985   0.30897   0.99955   0.00000  Uiso   1.00
H120   H     0.45492   0.42940   0.63297   0.00000  Uiso   1.00
H121   H     0.74216   0.54239   0.96447   0.00000  Uiso   1.00
H122   H     0.64447   0.20654   0.05770   0.00000  Uiso   1.00
H123   H     0.69332   0.35055   0.58016   0.00000  Uiso   1.00
H124   H     0.62030   0.36667   0.45161   0.00000  Uiso   1.00
H125   H     0.75652   0.42027   0.60882   0.00000  Uiso   1.00
H126   H     0.71019   0.26100   0.65303   0.00000  Uiso   1.00
H127   H     0.52824   0.39047   0.35172   0.00000  Uiso   1.00
H128   H     0.81549   0.50346   0.68322   0.00000  Uiso   1.00
H129   H     0.71779   0.16760   0.77645   0.00000  Uiso   1.00
O130   O     0.44200   0.42138   0.41371   0.00000  Uiso   1.00
O131   O     0.81887   0.56961   0.84863   0.00000  Uiso   1.00
O132   O     0.69069   0.12898   0.97094   0.00000  Uiso   1.00
N133   N     0.48219   0.41802   0.58443   0.00000  Uiso   1.00
N134   N     0.75075   0.52366   0.89435   0.00000  Uiso   1.00
N135   N     0.65942   0.20967   0.98152   0.00000  Uiso   1.00
N136   N     0.52164   0.39707   0.43309   0.00000  Uiso   1.00
N137   N     0.79020   0.50271   0.74301   0.00000  Uiso   1.00
N138   N     0.69887   0.18872   0.83018   0.00000  Uiso   1.00
C139   C     0.62729   0.88561   0.33340   0.00000  Uiso   1.00
C140   C     0.59694   0.88941   0.22780   0.00000  Uiso   1.00
C141   C     0.54945   0.90429   0.22331   0.00000  Uiso   1.00
C142   C     0.52802   0.90531   0.11861   0.00000  Uiso   1.00
C143   C     0.47707   0.91328   0.96934   0.00000  Uiso   1.00
C144   C     0.67095   0.91854   0.31320   0.00000  Uiso   1.00
C145   C     0.68569   0.95789   0.38054   0.00000  Uiso   1.00
C146   C     0.72657   0.98343   0.34773   0.00000  Uiso   1.00
C147   C     0.79055   0.03658   0.33110   0.00000  Uiso   1.00
C148   C     0.64578   0.83200   0.33722   0.00000  Uiso   1.00
C149   C     0.63936   0.79860   0.42476   0.00000  Uiso   1.00
C150   C     0.65905   0.75128   0.41219   0.00000  Uiso   1.00
C151   C     0.68393   0.67007   0.43285   0.00000  Uiso   1.00
C152   C     0.67369   0.86097   0.15543   0.00000  Uiso   1.00
C153   C     0.62215   0.87603   0.13113   0.00000  Uiso   1.00
C154   C     0.60078   0.87703   0.02641   0.00000  Uiso   1.00
C155   C     0.55327   0.89190   0.02176   0.00000  Uiso   1.00
C156   C     0.69616   0.90516   0.21654   0.00000  Uiso   1.00
C157   C     0.73703   0.93064   0.18363   0.00000  Uiso   1.00
C158   C     0.75182   0.97002   0.25089   0.00000  Uiso   1.00
C159   C     0.67098   0.81862   0.24056   0.00000  Uiso   1.00
C160   C     0.69069   0.77134   0.22785   0.00000  Uiso   1.00
C161   C     0.68430   0.73787   0.31535   0.00000  Uiso   1.00
H162   H     0.60767   0.89603   0.40866   0.00000  Uiso   1.00
H163   H     0.52996   0.91465   0.29814   0.00000  Uiso   1.00
H164   H     0.66618   0.96824   0.45534   0.00000  Uiso   1.00
H165   H     0.61985   0.80897   0.49955   0.00000  Uiso   1.00
H166   H     0.45492   0.92940   0.13297   0.00000  Uiso   1.00
H167   H     0.74216   0.04239   0.46447   0.00000  Uiso   1.00
H168   H     0.64447   0.70654   0.55770   0.00000  Uiso   1.00
H169   H     0.69332   0.85055   0.08016   0.00000  Uiso   1.00
H170   H     0.62030   0.86667   0.95161   0.00000  Uiso   1.00
H171   H     0.75652   0.92027   0.10882   0.00000  Uiso   1.00
H172   H     0.71019   0.76100   0.15303   0.00000  Uiso   1.00
H173   H     0.52824   0.89047   0.85172   0.00000  Uiso   1.00
H174   H     0.81549   0.00346   0.18322   0.00000  Uiso   1.00
H175   H     0.71779   0.66760   0.27645   0.00000  Uiso   1.00
O176   O     0.44200   0.92138   0.91371   0.00000  Uiso   1.00
O177   O     0.81887   0.06961   0.34863   0.00000  Uiso   1.00
O178   O     0.69069   0.62898   0.47094   0.00000  Uiso   1.00
N179   N     0.48219   0.91802   0.08443   0.00000  Uiso   1.00
N180   N     0.75075   0.02366   0.39435   0.00000  Uiso   1.00
N181   N     0.65942   0.70967   0.48152   0.00000  Uiso   1.00
N182   N     0.52164   0.89707   0.93309   0.00000  Uiso   1.00
N183   N     0.79020   0.00271   0.24301   0.00000  Uiso   1.00
N184   N     0.69887   0.68872   0.33018   0.00000  Uiso   1.00
C185   C     0.87271   0.61439   0.33340   0.00000  Uiso   1.00
C186   C     0.90306   0.61059   0.22780   0.00000  Uiso   1.00
C187   C     0.95055   0.59571   0.22331   0.00000  Uiso   1.00
C188   C     0.97198   0.59469   0.11861   0.00000  Uiso   1.00
C189   C     0.02293   0.58672   0.96934   0.00000  Uiso   1.00
C190   C     0.82905   0.58146   0.31320   0.00000  Uiso   1.00
C191   C     0.81431   0.54211   0.38054   0.00000  Uiso   1.00
C192   C     0.77343   0.51657   0.34773   0.00000  Uiso   1.00
C193   C     0.70945   0.46342   0.33110   0.00000  Uiso   1.00
C194   C     0.85422   0.66800   0.33722   0.00000  Uiso   1.00
C195   C     0.86064   0.70140   0.42476   0.00000  Uiso   1.00
C196   C     0.84095   0.74872   0.41219   0.00000  Uiso   1.00
C197   C     0.81607   0.82993   0.43285   0.00000  Uiso   1.00
C198   C     0.82631   0.63903   0.15543   0.00000  Uiso   1.00
C199   C     0.87785   0.62397   0.13113   0.00000  Uiso   1.00
C200   C     0.89922   0.62297   0.02641   0.00000  Uiso   1.00
C201   C     0.94673   0.60810   0.02176   0.00000  Uiso   1.00
C202   C     0.80384   0.59484   0.21654   0.00000  Uiso   1.00
C203   C     0.76297   0.56936   0.18363   0.00000  Uiso   1.00
C204   C     0.74818   0.52998   0.25089   0.00000  Uiso   1.00
C205   C     0.82902   0.68138   0.24056   0.00000  Uiso   1.00
C206   C     0.80931   0.72866   0.22785   0.00000  Uiso   1.00
C207   C     0.81570   0.76213   0.31535   0.00000  Uiso   1.00
H208   H     0.89233   0.60397   0.40866   0.00000  Uiso   1.00
H209   H     0.97004   0.58535   0.29814   0.00000  Uiso   1.00
H210   H     0.83382   0.53176   0.45534   0.00000  Uiso   1.00
H211   H     0.88015   0.69103   0.49955   0.00000  Uiso   1.00
H212   H     0.04508   0.57060   0.13297   0.00000  Uiso   1.00
H213   H     0.75784   0.45761   0.46447   0.00000  Uiso   1.00
H214   H     0.85553   0.79346   0.55770   0.00000  Uiso   1.00
H215   H     0.80668   0.64945   0.08016   0.00000  Uiso   1.00
H216   H     0.87970   0.63333   0.95161   0.00000  Uiso   1.00
H217   H     0.74348   0.57973   0.10882   0.00000  Uiso   1.00
H218   H     0.78981   0.73900   0.15303   0.00000  Uiso   1.00
H219   H     0.97176   0.60953   0.85172   0.00000  Uiso   1.00
H220   H     0.68451   0.49654   0.18322   0.00000  Uiso   1.00
H221   H     0.78221   0.83240   0.27645   0.00000  Uiso   1.00
O222   O     0.05800   0.57862   0.91371   0.00000  Uiso   1.00
O223   O     0.68113   0.43039   0.34863   0.00000  Uiso   1.00
O224   O     0.80931   0.87102   0.47094   0.00000  Uiso   1.00
N225   N     0.01781   0.58198   0.08443   0.00000  Uiso   1.00
N226   N     0.74925   0.47634   0.39435   0.00000  Uiso   1.00
N227   N     0.84058   0.79033   0.48152   0.00000  Uiso   1.00
N228   N     0.97836   0.60293   0.93309   0.00000  Uiso   1.00
N229   N     0.70980   0.49729   0.24301   0.00000  Uiso   1.00
N230   N     0.80113   0.81128   0.33018   0.00000  Uiso   1.00
C231   C     0.87271   0.11439   0.83340   0.00000  Uiso   1.00
C232   C     0.90306   0.11059   0.72780   0.00000  Uiso   1.00
C233   C     0.95055   0.09571   0.72331   0.00000  Uiso   1.00
C234   C     0.97198   0.09469   0.61861   0.00000  Uiso   1.00
C235   C     0.02293   0.08672   0.46934   0.00000  Uiso   1.00
C236   C     0.82905   0.08146   0.81320   0.00000  Uiso   1.00
C237   C     0.81431   0.04211   0.88054   0.00000  Uiso   1.00
C238   C     0.77343   0.01657   0.84773   0.00000  Uiso   1.00
C239   C     0.70945   0.96342   0.83110   0.00000  Uiso   1.00
C240   C     0.85422   0.16800   0.83722   0.00000  Uiso   1.00
C241   C     0.86064   0.20140   0.92476   0.00000  Uiso   1.00
C242   C     0.84095   0.24872   0.91219   0.00000  Uiso   1.00
C243   C     0.81607   0.32993   0.93285   0.00000  Uiso   1.00
C244   C     0.82631   0.13903   0.65543   0.00000  Uiso   1.00
C245   C     0.87785   0.12397   0.63113   0.00000  Uiso   1.00
C246   C     0.89922   0.12297   0.52641   0.00000  Uiso   1.00
C247   C     0.94673   0.10810   0.52176   0.00000  Uiso   1.00
C248   C     0.80384   0.09484   0.71654   0.00000  Uiso   1.00
C249   C     0.76297   0.06936   0.68363   0.00000  Uiso   1.00
C250   C     0.74818   0.02998   0.75089   0.00000  Uiso   1.00
C251   C     0.82902   0.18138   0.74056   0.00000  Uiso   1.00
C252   C     0.80931   0.22866   0.72785   0.00000  Uiso   1.00
C253   C     0.81570   0.26213   0.81535   0.00000  Uiso   1.00
H254   H     0.89233   0.10397   0.90866   0.00000  Uiso   1.00
H255   H     0.97004   0.08535   0.79814   0.00000  Uiso   1.00
H256   H     0.83382   0.03176   0.95534   0.00000  Uiso   1.00
H257   H     0.88015   0.19103   0.99955   0.00000  Uiso   1.00
H258   H     0.04508   0.07060   0.63297   0.00000  Uiso   1.00
H259   H     0.75784   0.95761   0.96447   0.00000  Uiso   1.00
H260   H     0.85553   0.29346   0.05770   0.00000  Uiso   1.00
H261   H     0.80668   0.14945   0.58016   0.00000  Uiso   1.00
H262   H     0.87970   0.13333   0.45161   0.00000  Uiso   1.00
H263   H     0.74348   0.07973   0.60882   0.00000  Uiso   1.00
H264   H     0.78981   0.23900   0.65303   0.00000  Uiso   1.00
H265   H     0.97176   0.10953   0.35172   0.00000  Uiso   1.00
H266   H     0.68451   0.99654   0.68322   0.00000  Uiso   1.00
H267   H     0.78221   0.33240   0.77645   0.00000  Uiso   1.00
O268   O     0.05800   0.07862   0.41371   0.00000  Uiso   1.00
O269   O     0.68113   0.93039   0.84863   0.00000  Uiso   1.00
O270   O     0.80931   0.37102   0.97094   0.00000  Uiso   1.00
N271   N     0.01781   0.08198   0.58443   0.00000  Uiso   1.00
N272   N     0.74925   0.97634   0.89435   0.00000  Uiso   1.00
N273   N     0.84058   0.29033   0.98152   0.00000  Uiso   1.00
N274   N     0.97836   0.10293   0.43309   0.00000  Uiso   1.00
N275   N     0.70980   0.99729   0.74301   0.00000  Uiso   1.00
N276   N     0.80113   0.31128   0.83018   0.00000  Uiso   1.00
C277   C     0.37271   0.61439   0.83340   0.00000  Uiso   1.00
C278   C     0.40306   0.61059   0.72780   0.00000  Uiso   1.00
C279   C     0.45055   0.59571   0.72331   0.00000  Uiso   1.00
C280   C     0.47198   0.59469   0.61861   0.00000  Uiso   1.00
C281   C     0.52293   0.58672   0.46934   0.00000  Uiso   1.00
C282   C     0.32905   0.58146   0.81320   0.00000  Uiso   1.00
C283   C     0.31431   0.54211   0.88054   0.00000  Uiso   1.00
C284   C     0.27343   0.51657   0.84773   0.00000  Uiso   1.00
C285   C     0.20945   0.46342   0.83110   0.00000  Uiso   1.00
C286   C     0.35422   0.66800   0.83722   0.00000  Uiso   1.00
C287   C     0.36064   0.70140   0.92476   0.00000  Uiso   1.00
C288   C     0.34095   0.74872   0.91219   0.00000  Uiso   1.00
C289   C     0.31607   0.82993   0.93285   0.00000  Uiso   1.00
C290   C     0.32631   0.63903   0.65543   0.00000  Uiso   1.00
C291   C     0.37785   0.62397   0.63113   0.00000  Uiso   1.00
C292   C     0.39922   0.62297   0.52641   0.00000  Uiso   1.00
C293   C     0.44673   0.60810   0.52176   0.00000  Uiso   1.00
C294   C     0.30384   0.59484   0.71654   0.00000  Uiso   1.00
C295   C     0.26297   0.56936   0.68363   0.00000  Uiso   1.00
C296   C     0.24818   0.52998   0.75089   0.00000  Uiso   1.00
C297   C     0.32902   0.68138   0.74056   0.00000  Uiso   1.00
C298   C     0.30931   0.72866   0.72785   0.00000  Uiso   1.00
C299   C     0.31570   0.76213   0.81535   0.00000  Uiso   1.00
H300   H     0.39233   0.60397   0.90866   0.00000  Uiso   1.00
H301   H     0.47004   0.58535   0.79814   0.00000  Uiso   1.00
H302   H     0.33382   0.53176   0.95534   0.00000  Uiso   1.00
H303   H     0.38015   0.69103   0.99955   0.00000  Uiso   1.00
H304   H     0.54508   0.57060   0.63297   0.00000  Uiso   1.00
H305   H     0.25784   0.45761   0.96447   0.00000  Uiso   1.00
H306   H     0.35553   0.79346   0.05770   0.00000  Uiso   1.00
H307   H     0.30668   0.64945   0.58016   0.00000  Uiso   1.00
H308   H     0.37970   0.63333   0.45161   0.00000  Uiso   1.00
H309   H     0.24348   0.57973   0.60882   0.00000  Uiso   1.00
H310   H     0.28981   0.73900   0.65303   0.00000  Uiso   1.00
H311   H     0.47176   0.60953   0.35172   0.00000  Uiso   1.00
H312   H     0.18451   0.49654   0.68322   0.00000  Uiso   1.00
H313   H     0.28221   0.83240   0.77645   0.00000  Uiso   1.00
O314   O     0.55800   0.57862   0.41371   0.00000  Uiso   1.00
O315   O     0.18113   0.43039   0.84863   0.00000  Uiso   1.00
O316   O     0.30931   0.87102   0.97094   0.00000  Uiso   1.00
N317   N     0.51781   0.58198   0.58443   0.00000  Uiso   1.00
N318   N     0.24925   0.47634   0.89435   0.00000  Uiso   1.00
N319   N     0.34058   0.79033   0.98152   0.00000  Uiso   1.00
N320   N     0.47836   0.60293   0.43309   0.00000  Uiso   1.00
N321   N     0.20980   0.49729   0.74301   0.00000  Uiso   1.00
N322   N     0.30113   0.81128   0.83018   0.00000  Uiso   1.00
C323   C     0.37271   0.11439   0.33340   0.00000  Uiso   1.00
C324   C     0.40306   0.11059   0.22780   0.00000  Uiso   1.00
C325   C     0.45055   0.09571   0.22331   0.00000  Uiso   1.00
C326   C     0.47198   0.09469   0.11861   0.00000  Uiso   1.00
C327   C     0.52293   0.08672   0.96934   0.00000  Uiso   1.00
C328   C     0.32905   0.08146   0.31320   0.00000  Uiso   1.00
C329   C     0.31431   0.04211   0.38054   0.00000  Uiso   1.00
C330   C     0.27343   0.01657   0.34773   0.00000  Uiso   1.00
C331   C     0.20945   0.96342   0.33110   0.00000  Uiso   1.00
C332   C     0.35422   0.16800   0.33722   0.00000  Uiso   1.00
C333   C     0.36064   0.20140   0.42476   0.00000  Uiso   1.00
C334   C     0.34095   0.24872   0.41219   0.00000  Uiso   1.00
C335   C     0.31607   0.32993   0.43285   0.00000  Uiso   1.00
C336   C     0.32631   0.13903   0.15543   0.00000  Uiso   1.00
C337   C     0.37785   0.12397   0.13113   0.00000  Uiso   1.00
C338   C     0.39922   0.12297   0.02641   0.00000  Uiso   1.00
C339   C     0.44673   0.10810   0.02176   0.00000  Uiso   1.00
C340   C     0.30384   0.09484   0.21654   0.00000  Uiso   1.00
C341   C     0.26297   0.06936   0.18363   0.00000  Uiso   1.00
C342   C     0.24818   0.02998   0.25089   0.00000  Uiso   1.00
C343   C     0.32902   0.18138   0.24056   0.00000  Uiso   1.00
C344   C     0.30931   0.22866   0.22785   0.00000  Uiso   1.00
C345   C     0.31570   0.26213   0.31535   0.00000  Uiso   1.00
H346   H     0.39233   0.10397   0.40866   0.00000  Uiso   1.00
H347   H     0.47004   0.08535   0.29814   0.00000  Uiso   1.00
H348   H     0.33382   0.03176   0.45534   0.00000  Uiso   1.00
H349   H     0.38015   0.19103   0.49955   0.00000  Uiso   1.00
H350   H     0.54508   0.07060   0.13297   0.00000  Uiso   1.00
H351   H     0.25784   0.95761   0.46447   0.00000  Uiso   1.00
H352   H     0.35553   0.29346   0.55770   0.00000  Uiso   1.00
H353   H     0.30668   0.14945   0.08016   0.00000  Uiso   1.00
H354   H     0.37970   0.13333   0.95161   0.00000  Uiso   1.00
H355   H     0.24348   0.07973   0.10882   0.00000  Uiso   1.00
H356   H     0.28981   0.23900   0.15303   0.00000  Uiso   1.00
H357   H     0.47176   0.10953   0.85172   0.00000  Uiso   1.00
H358   H     0.18451   0.99654   0.18322   0.00000  Uiso   1.00
H359   H     0.28221   0.33240   0.27645   0.00000  Uiso   1.00
O360   O     0.55800   0.07862   0.91371   0.00000  Uiso   1.00
O361   O     0.18113   0.93039   0.34863   0.00000  Uiso   1.00
O362   O     0.30931   0.37102   0.47094   0.00000  Uiso   1.00
N363   N     0.51781   0.08198   0.08443   0.00000  Uiso   1.00
N364   N     0.24925   0.97634   0.39435   0.00000  Uiso   1.00
N365   N     0.34058   0.29033   0.48152   0.00000  Uiso   1.00
N366   N     0.47836   0.10293   0.93309   0.00000  Uiso   1.00
N367   N     0.20980   0.99729   0.24301   0.00000  Uiso   1.00
N368   N     0.30113   0.31128   0.33018   0.00000  Uiso   1.00
C369   C     0.37729   0.86439   0.58340   0.00000  Uiso   1.00
C370   C     0.34694   0.86059   0.47780   0.00000  Uiso   1.00
C371   C     0.29945   0.84571   0.47331   0.00000  Uiso   1.00
C372   C     0.27802   0.84469   0.36861   0.00000  Uiso   1.00
C373   C     0.22707   0.83672   0.21934   0.00000  Uiso   1.00
C374   C     0.42095   0.83146   0.56320   0.00000  Uiso   1.00
C375   C     0.43569   0.79211   0.63054   0.00000  Uiso   1.00
C376   C     0.47657   0.76657   0.59773   0.00000  Uiso   1.00
C377   C     0.54055   0.71342   0.58110   0.00000  Uiso   1.00
C378   C     0.39578   0.91800   0.58722   0.00000  Uiso   1.00
C379   C     0.38936   0.95140   0.67476   0.00000  Uiso   1.00
C380   C     0.40905   0.99872   0.66219   0.00000  Uiso   1.00
C381   C     0.43393   0.07993   0.68285   0.00000  Uiso   1.00
C382   C     0.42369   0.88903   0.40543   0.00000  Uiso   1.00
C383   C     0.37215   0.87397   0.38113   0.00000  Uiso   1.00
C384   C     0.35078   0.87297   0.27641   0.00000  Uiso   1.00
C385   C     0.30327   0.85810   0.27176   0.00000  Uiso   1.00
C386   C     0.44616   0.84484   0.46654   0.00000  Uiso   1.00
C387   C     0.48703   0.81936   0.43363   0.00000  Uiso   1.00
C388   C     0.50182   0.77998   0.50089   0.00000  Uiso   1.00
C389   C     0.42098   0.93138   0.49056   0.00000  Uiso   1.00
C390   C     0.44069   0.97866   0.47785   0.00000  Uiso   1.00
C391   C     0.43430   0.01213   0.56535   0.00000  Uiso   1.00
H392   H     0.35767   0.85397   0.65866   0.00000  Uiso   1.00
H393   H     0.27996   0.83535   0.54814   0.00000  Uiso   1.00
H394   H     0.41618   0.78176   0.70534   0.00000  Uiso   1.00
H395   H     0.36985   0.94103   0.74955   0.00000  Uiso   1.00
H396   H     0.20492   0.82060   0.38297   0.00000  Uiso   1.00
H397   H     0.49216   0.70761   0.71447   0.00000  Uiso   1.00
H398   H     0.39447   0.04346   0.80770   0.00000  Uiso   1.00
H399   H     0.44332   0.89945   0.33016   0.00000  Uiso   1.00
H400   H     0.37030   0.88333   0.20161   0.00000  Uiso   1.00
H401   H     0.50652   0.82973   0.35882   0.00000  Uiso   1.00
H402   H     0.46019   0.98900   0.40303   0.00000  Uiso   1.00
H403   H     0.27824   0.85953   0.10172   0.00000  Uiso   1.00
H404   H     0.56549   0.74654   0.43322   0.00000  Uiso   1.00
H405   H     0.46779   0.08240   0.52645   0.00000  Uiso   1.00
O406   O     0.19200   0.82862   0.16371   0.00000  Uiso   1.00
O407   O     0.56887   0.68039   0.59863   0.00000  Uiso   1.00
O408   O     0.44069   0.12102   0.72094   0.00000  Uiso   1.00
N409   N     0.23219   0.83198   0.33443   0.00000  Uiso   1.00
N410   N     0.50075   0.72634   0.64435   0.00000  Uiso   1.00
N411   N     0.40942   0.04033   0.73152   0.00000  Uiso   1.00
N412   N     0.27164   0.85293   0.18309   0.00000  Uiso   1.00
N413   N     0.54020   0.74729   0.49301   0.00000  Uiso   1.00
N414   N     0.44887   0.06128   0.58018   0.00000  Uiso   1.00
C415   C     0.37729   0.36439   0.08340   0.00000  Uiso   1.00
C416   C     0.34694   0.36059   0.97780   0.00000  Uiso   1.00
C417   C     0.29945   0.34571   0.97331   0.00000  Uiso   1.00
C418   C     0.27802   0.34469   0.86861   0.00000  Uiso   1.00
C419   C     0.22707   0.33672   0.71934   0.00000  Uiso   1.00
C420   C     0.42095   0.33146   0.06320   0.00000  Uiso   1.00
C421   C     0.43569   0.29211   0.13054   0.00000  Uiso   1.00
C422   C     0.47657   0.26657   0.09773   0.00000  Uiso   1.00
C423   C     0.54055   0.21342   0.08110   0.00000  Uiso   1.00
C424   C     0.39578   0.41800   0.08722   0.00000  Uiso   1.00
C425   C     0.38936   0.45140   0.17476   0.00000  Uiso   1.00
C426   C     0.40905   0.49872   0.16219   0.00000  Uiso   1.00
C427   C     0.43393   0.57993   0.18285   0.00000  Uiso   1.00
C428   C     0.42369   0.38903   0.90543   0.00000  Uiso   1.00
C429   C     0.37215   0.37397   0.88113   0.00000  Uiso   1.00
C430   C     0.35078   0.37297   0.77641   0.00000  Uiso   1.00
C431   C     0.30327   0.35810   0.77176   0.00000  Uiso   1.00
C432   C     0.44616   0.34484   0.96654   0.00000  Uiso   1.00
C433   C     0.48703   0.31936   0.93363   0.00000  Uiso   1.00
C434   C     0.50182   0.27998   0.00089   0.00000  Uiso   1.00
C435   C     0.42098   0.43138   0.99056   0.00000  Uiso   1.00
C436   C     0.44069   0.47866   0.97785   0.00000  Uiso   1.00
C437   C     0.43430   0.51213   0.06535   0.00000  Uiso   1.00
H438   H     0.35767   0.35397   0.15866   0.00000  Uiso   1.00
H439   H     0.27996   0.33535   0.04814   0.00000  Uiso   1.00
H440   H     0.41618   0.28176   0.20534   0.00000  Uiso   1.00
H441   H     0.36985   0.44103   0.24955   0.00000  Uiso   1.00
H442   H     0.20492   0.32060   0.88297   0.00000  Uiso   1.00
H443   H     0.49216   0.20761   0.21447   0.00000  Uiso   1.00
H444   H     0.39447   0.54346   0.30770   0.00000  Uiso   1.00
H445   H     0.44332   0.39945   0.83016   0.00000  Uiso   1.00
H446   H     0.37030   0.38333   0.70161   0.00000  Uiso   1.00
H447   H     0.50652   0.32973   0.85882   0.00000  Uiso   1.00
H448   H     0.46019   0.48900   0.90303   0.00000  Uiso   1.00
H449   H     0.27824   0.35953   0.60172   0.00000  Uiso   1.00
H450   H     0.56549   0.24654   0.93322   0.00000  Uiso   1.00
H451   H     0.46779   0.58240   0.02645   0.00000  Uiso   1.00
O452   O     0.19200   0.32862   0.66371   0.00000  Uiso   1.00
O453   O     0.56887   0.18039   0.09863   0.00000  Uiso   1.00
O454   O     0.44069   0.62102   0.22094   0.00000  Uiso   1.00
N455   N     0.23219   0.33198   0.83443   0.00000  Uiso   1.00
N456   N     0.50075   0.22634   0.14435   0.00000  Uiso   1.00
N457   N     0.40942   0.54033   0.23152   0.00000  Uiso   1.00
N458   N     0.27164   0.35293   0.68309   0.00000  Uiso   1.00
N459   N     0.54020   0.24729   0.99301   0.00000  Uiso   1.00
N460   N     0.44887   0.56128   0.08018   0.00000  Uiso   1.00
C461   C     0.87729   0.86439   0.08340   0.00000  Uiso   1.00
C462   C     0.84694   0.86059   0.97780   0.00000  Uiso   1.00
C463   C     0.79945   0.84571   0.97331   0.00000  Uiso   1.00
C464   C     0.77802   0.84469   0.86861   0.00000  Uiso   1.00
C465   C     0.72707   0.83672   0.71934   0.00000  Uiso   1.00
C466   C     0.92095   0.83146   0.06320   0.00000  Uiso   1.00
C467   C     0.93569   0.79211   0.13054   0.00000  Uiso   1.00
C468   C     0.97657   0.76657   0.09773   0.00000  Uiso   1.00
C469   C     0.04055   0.71342   0.08110   0.00000  Uiso   1.00
C470   C     0.89578   0.91800   0.08722   0.00000  Uiso   1.00
C471   C     0.88936   0.95140   0.17476   0.00000  Uiso   1.00
C472   C     0.90905   0.99872   0.16219   0.00000  Uiso   1.00
C473   C     0.93393   0.07993   0.18285   0.00000  Uiso   1.00
C474   C     0.92369   0.88903   0.90543   0.00000  Uiso   1.00
C475   C     0.87215   0.87397   0.88113   0.00000  Uiso   1.00
C476   C     0.85078   0.87297   0.77641   0.00000  Uiso   1.00
C477   C     0.80327   0.85810   0.77176   0.00000  Uiso   1.00
C478   C     0.94616   0.84484   0.96654   0.00000  Uiso   1.00
C479   C     0.98703   0.81936   0.93363   0.00000  Uiso   1.00
C480   C     0.00182   0.77998   0.00089   0.00000  Uiso   1.00
C481   C     0.92098   0.93138   0.99056   0.00000  Uiso   1.00
C482   C     0.94069   0.97866   0.97785   0.00000  Uiso   1.00
C483   C     0.93430   0.01213   0.06535   0.00000  Uiso   1.00
H484   H     0.85767   0.85397   0.15866   0.00000  Uiso   1.00
H485   H     0.77996   0.83535   0.04814   0.00000  Uiso   1.00
H486   H     0.91618   0.78176   0.20534   0.00000  Uiso   1.00
H487   H     0.86985   0.94103   0.24955   0.00000  Uiso   1.00
H488   H     0.70492   0.82060   0.88297   0.00000  Uiso   1.00
H489   H     0.99216   0.70761   0.21447   0.00000  Uiso   1.00
H490   H     0.89447   0.04346   0.30770   0.00000  Uiso   1.00
H491   H     0.94332   0.89945   0.83016   0.00000  Uiso   1.00
H492   H     0.87030   0.88333   0.70161   0.00000  Uiso   1.00
H493   H     0.00652   0.82973   0.85882   0.00000  Uiso   1.00
H494   H     0.96019   0.98900   0.90303   0.00000  Uiso   1.00
H495   H     0.77824   0.85953   0.60172   0.00000  Uiso   1.00
H496   H     0.06549   0.74654   0.93322   0.00000  Uiso   1.00
H497   H     0.96779   0.08240   0.02645   0.00000  Uiso   1.00
O498   O     0.69200   0.82862   0.66371   0.00000  Uiso   1.00
O499   O     0.06887   0.68039   0.09863   0.00000  Uiso   1.00
O500   O     0.94069   0.12102   0.22094   0.00000  Uiso   1.00
N501   N     0.73219   0.83198   0.83443   0.00000  Uiso   1.00
N502   N     0.00075   0.72634   0.14435   0.00000  Uiso   1.00
N503   N     0.90942   0.04033   0.23152   0.00000  Uiso   1.00
N504   N     0.77164   0.85293   0.68309   0.00000  Uiso   1.00
N505   N     0.04020   0.74729   0.99301   0.00000  Uiso   1.00
N506   N     0.94887   0.06128   0.08018   0.00000  Uiso   1.00
C507   C     0.87729   0.36439   0.58340   0.00000  Uiso   1.00
C508   C     0.84694   0.36059   0.47780   0.00000  Uiso   1.00
C509   C     0.79945   0.34571   0.47331   0.00000  Uiso   1.00
C510   C     0.77802   0.34469   0.36861   0.00000  Uiso   1.00
C511   C     0.72707   0.33672   0.21934   0.00000  Uiso   1.00
C512   C     0.92095   0.33146   0.56320   0.00000  Uiso   1.00
C513   C     0.93569   0.29211   0.63054   0.00000  Uiso   1.00
C514   C     0.97657   0.26657   0.59773   0.00000  Uiso   1.00
C515   C     0.04055   0.21342   0.58110   0.00000  Uiso   1.00
C516   C     0.89578   0.41800   0.58722   0.00000  Uiso   1.00
C517   C     0.88936   0.45140   0.67476   0.00000  Uiso   1.00
C518   C     0.90905   0.49872   0.66219   0.00000  Uiso   1.00
C519   C     0.93393   0.57993   0.68285   0.00000  Uiso   1.00
C520   C     0.92369   0.38903   0.40543   0.00000  Uiso   1.00
C521   C     0.87215   0.37397   0.38113   0.00000  Uiso   1.00
C522   C     0.85078   0.37297   0.27641   0.00000  Uiso   1.00
C523   C     0.80327   0.35810   0.27176   0.00000  Uiso   1.00
C524   C     0.94616   0.34484   0.46654   0.00000  Uiso   1.00
C525   C     0.98703   0.31936   0.43363   0.00000  Uiso   1.00
C526   C     0.00182   0.27998   0.50089   0.00000  Uiso   1.00
C527   C     0.92098   0.43138   0.49056   0.00000  Uiso   1.00
C528   C     0.94069   0.47866   0.47785   0.00000  Uiso   1.00
C529   C     0.93430   0.51213   0.56535   0.00000  Uiso   1.00
H530   H     0.85767   0.35397   0.65866   0.00000  Uiso   1.00
H531   H     0.77996   0.33535   0.54814   0.00000  Uiso   1.00
H532   H     0.91618   0.28176   0.70534   0.00000  Uiso   1.00
H533   H     0.86985   0.44103   0.74955   0.00000  Uiso   1.00
H534   H     0.70492   0.32060   0.38297   0.00000  Uiso   1.00
H535   H     0.99216   0.20761   0.71447   0.00000  Uiso   1.00
H536   H     0.89447   0.54346   0.80770   0.00000  Uiso   1.00
H537   H     0.94332   0.39945   0.33016   0.00000  Uiso   1.00
H538   H     0.87030   0.38333   0.20161   0.00000  Uiso   1.00
H539   H     0.00652   0.32973   0.35882   0.00000  Uiso   1.00
H540   H     0.96019   0.48900   0.40303   0.00000  Uiso   1.00
H541   H     0.77824   0.35953   0.10172   0.00000  Uiso   1.00
H542   H     0.06549   0.24654   0.43322   0.00000  Uiso   1.00
H543   H     0.96779   0.58240   0.52645   0.00000  Uiso   1.00
O544   O     0.69200   0.32862   0.16371   0.00000  Uiso   1.00
O545   O     0.06887   0.18039   0.59863   0.00000  Uiso   1.00
O546   O     0.94069   0.62102   0.72094   0.00000  Uiso   1.00
N547   N     0.73219   0.33198   0.33443   0.00000  Uiso   1.00
N548   N     0.00075   0.22634   0.64435   0.00000  Uiso   1.00
N549   N     0.90942   0.54033   0.73152   0.00000  Uiso   1.00
N550   N     0.77164   0.35293   0.18309   0.00000  Uiso   1.00
N551   N     0.04020   0.24729   0.49301   0.00000  Uiso   1.00
N552   N     0.94887   0.56128   0.58018   0.00000  Uiso   1.00
C553   C     0.12271   0.63561   0.58340   0.00000  Uiso   1.00
C554   C     0.15306   0.63941   0.47780   0.00000  Uiso   1.00
C555   C     0.20055   0.65429   0.47331   0.00000  Uiso   1.00
C556   C     0.22198   0.65531   0.36861   0.00000  Uiso   1.00
C557   C     0.27293   0.66328   0.21934   0.00000  Uiso   1.00
C558   C     0.07905   0.66854   0.56320   0.00000  Uiso   1.00
C559   C     0.06431   0.70789   0.63054   0.00000  Uiso   1.00
C560   C     0.02343   0.73343   0.59773   0.00000  Uiso   1.00
C561   C     0.95945   0.78658   0.58110   0.00000  Uiso   1.00
C562   C     0.10422   0.58200   0.58722   0.00000  Uiso   1.00
C563   C     0.11064   0.54860   0.67476   0.00000  Uiso   1.00
C564   C     0.09095   0.50128   0.66219   0.00000  Uiso   1.00
C565   C     0.06607   0.42007   0.68285   0.00000  Uiso   1.00
C566   C     0.07631   0.61097   0.40543   0.00000  Uiso   1.00
C567   C     0.12785   0.62603   0.38113   0.00000  Uiso   1.00
C568   C     0.14922   0.62703   0.27641   0.00000  Uiso   1.00
C569   C     0.19673   0.64190   0.27176   0.00000  Uiso   1.00
C570   C     0.05384   0.65516   0.46654   0.00000  Uiso   1.00
C571   C     0.01297   0.68064   0.43363   0.00000  Uiso   1.00
C572   C     0.99818   0.72002   0.50089   0.00000  Uiso   1.00
C573   C     0.07902   0.56862   0.49056   0.00000  Uiso   1.00
C574   C     0.05931   0.52134   0.47785   0.00000  Uiso   1.00
C575   C     0.06570   0.48787   0.56535   0.00000  Uiso   1.00
H576   H     0.14233   0.64603   0.65866   0.00000  Uiso   1.00
H577   H     0.22004   0.66465   0.54814   0.00000  Uiso   1.00
H578   H     0.08382   0.71824   0.70534   0.00000  Uiso   1.00
H579   H     0.13015   0.55897   0.74955   0.00000  Uiso   1.00
H580   H     0.29508   0.67940   0.38297   0.00000  Uiso   1.00
H581   H     0.00784   0.79239   0.71447   0.00000  Uiso   1.00
H582   H     0.10553   0.45654   0.80770   0.00000  Uiso   1.00
H583   H     0.05668   0.60055   0.33016   0.00000  Uiso   1.00
H584   H     0.12970   0.61667   0.20161   0.00000  Uiso   1.00
H585   H     0.99348   0.67027   0.35882   0.00000  Uiso   1.00
H586   H     0.03981   0.51100   0.40303   0.00000  Uiso   1.00
H587   H     0.22176   0.64047   0.10172   0.00000  Uiso   1.00
H588   H     0.93451   0.75346   0.43322   0.00000  Uiso   1.00
H589   H     0.03221   0.41760   0.52645   0.00000  Uiso   1.00
O590   O     0.30800   0.67138   0.16371   0.00000  Uiso   1.00
O591   O     0.93113   0.81961   0.59863   0.00000  Uiso   1.00
O592   O     0.05931   0.37898   0.72094   0.00000  Uiso   1.00
N593   N     0.26781   0.66802   0.33443   0.00000  Uiso   1.00
N594   N     0.99925   0.77366   0.64435   0.00000  Uiso   1.00
N595   N     0.09058   0.45967   0.73152   0.00000  Uiso   1.00
N596   N     0.22836   0.64707   0.18309   0.00000  Uiso   1.00
N597   N     0.95980   0.75271   0.49301   0.00000  Uiso   1.00
N598   N     0.05113   0.43872   0.58018   0.00000  Uiso   1.00
C599   C     0.12271   0.13561   0.08340   0.00000  Uiso   1.00
C600   C     0.15306   0.13941   0.97780   0.00000  Uiso   1.00
C601   C     0.20055   0.15429   0.97331   0.00000  Uiso   1.00
C602   C     0.22198   0.15531   0.86861   0.00000  Uiso   1.00
C603   C     0.27293   0.16328   0.71934   0.00000  Uiso   1.00
C604   C     0.07905   0.16854   0.06320   0.00000  Uiso   1.00
C605   C     0.06431   0.20789   0.13054   0.00000  Uiso   1.00
C606   C     0.02343   0.23343   0.09773   0.00000  Uiso   1.00
C607   C     0.95945   0.28658   0.08110   0.00000  Uiso   1.00
C608   C     0.10422   0.08200   0.08722   0.00000  Uiso   1.00
C609   C     0.11064   0.04860   0.17476   0.00000  Uiso   1.00
C610   C     0.09095   0.00128   0.16219   0.00000  Uiso   1.00
C611   C     0.06607   0.92007   0.18285   0.00000  Uiso   1.00
C612   C     0.07631   0.11097   0.90543   0.00000  Uiso   1.00
C613   C     0.12785   0.12603   0.88113   0.00000  Uiso   1.00
C614   C     0.14922   0.12703   0.77641   0.00000  Uiso   1.00
C615   C     0.19673   0.14190   0.77176   0.00000  Uiso   1.00
C616   C     0.05384   0.15516   0.96654   0.00000  Uiso   1.00
C617   C     0.01297   0.18064   0.93363   0.00000  Uiso   1.00
C618   C     0.99818   0.22002   0.00089   0.00000  Uiso   1.00
C619   C     0.07902   0.06862   0.99056   0.00000  Uiso   1.00
C620   C     0.05931   0.02134   0.97785   0.00000  Uiso   1.00
C621   C     0.06570   0.98787   0.06535   0.00000  Uiso   1.00
H622   H     0.14233   0.14603   0.15866   0.00000  Uiso   1.00
H623   H     0.22004   0.16465   0.04814   0.00000  Uiso   1.00
H624   H     0.08382   0.21824   0.20534   0.00000  Uiso   1.00
H625   H     0.13015   0.05897   0.24955   0.00000  Uiso   1.00
H626   H     0.29508   0.17940   0.88297   0.00000  Uiso   1.00
H627   H     0.00784   0.29239   0.21447   0.00000  Uiso   1.00
H628   H     0.10553   0.95654   0.30770   0.00000  Uiso   1.00
H629   H     0.05668   0.10055   0.83016   0.00000  Uiso   1.00
H630   H     0.12970   0.11667   0.70161   0.00000  Uiso   1.00
H631   H     0.99348   0.17027   0.85882   0.00000  Uiso   1.00
H632   H     0.03981   0.01100   0.90303   0.00000  Uiso   1.00
H633   H     0.22176   0.14047   0.60172   0.00000  Uiso   1.00
H634   H     0.93451   0.25346   0.93322   0.00000  Uiso   1.00
H635   H     0.03221   0.91760   0.02645   0.00000  Uiso   1.00
O636   O     0.30800   0.17138   0.66371   0.00000  Uiso   1.00
O637   O     0.93113   0.31961   0.09863   0.00000  Uiso   1.00
O638   O     0.05931   0.87898   0.22094   0.00000  Uiso   1.00
N639   N     0.26781   0.16802   0.83443   0.00000  Uiso   1.00
N640   N     0.99925   0.27366   0.14435   0.00000  Uiso   1.00
N641   N     0.09058   0.95967   0.23152   0.00000  Uiso   1.00
N642   N     0.22836   0.14707   0.68309   0.00000  Uiso   1.00
N643   N     0.95980   0.25271   0.99301   0.00000  Uiso   1.00
N644   N     0.05113   0.93872   0.08018   0.00000  Uiso   1.00
C645   C     0.62271   0.63561   0.08340   0.00000  Uiso   1.00
C646   C     0.65306   0.63941   0.97780   0.00000  Uiso   1.00
C647   C     0.70055   0.65429   0.97331   0.00000  Uiso   1.00
C648   C     0.72198   0.65531   0.86861   0.00000  Uiso   1.00
C649   C     0.77293   0.66328   0.71934   0.00000  Uiso   1.00
C650   C     0.57905   0.66854   0.06320   0.00000  Uiso   1.00
C651   C     0.56431   0.70789   0.13054   0.00000  Uiso   1.00
C652   C     0.52343   0.73343   0.09773   0.00000  Uiso   1.00
C653   C     0.45945   0.78658   0.08110   0.00000  Uiso   1.00
C654   C     0.60422   0.58200   0.08722   0.00000  Uiso   1.00
C655   C     0.61064   0.54860   0.17476   0.00000  Uiso   1.00
C656   C     0.59095   0.50128   0.16219   0.00000  Uiso   1.00
C657   C     0.56607   0.42007   0.18285   0.00000  Uiso   1.00
C658   C     0.57631   0.61097   0.90543   0.00000  Uiso   1.00
C659   C     0.62785   0.62603   0.88113   0.00000  Uiso   1.00
C660   C     0.64922   0.62703   0.77641   0.00000  Uiso   1.00
C661   C     0.69673   0.64190   0.77176   0.00000  Uiso   1.00
C662   C     0.55384   0.65516   0.96654   0.00000  Uiso   1.00
C663   C     0.51297   0.68064   0.93363   0.00000  Uiso   1.00
C664   C     0.49818   0.72002   0.00089   0.00000  Uiso   1.00
C665   C     0.57902   0.56862   0.99056   0.00000  Uiso   1.00
C666   C     0.55931   0.52134   0.97785   0.00000  Uiso   1.00
C667   C     0.56570   0.48787   0.06535   0.00000  Uiso   1.00
H668   H     0.64233   0.64603   0.15866   0.00000  Uiso   1.00
H669   H     0.72004   0.66465   0.04814   0.00000  Uiso   1.00
H670   H     0.58382   0.71824   0.20534   0.00000  Uiso   1.00
H671   H     0.63015   0.55897   0.24955   0.00000  Uiso   1.00
H672   H     0.79508   0.67940   0.88297   0.00000  Uiso   1.00
H673   H     0.50784   0.79239   0.21447   0.00000  Uiso   1.00
H674   H     0.60553   0.45654   0.30770   0.00000  Uiso   1.00
H675   H     0.55668   0.60055   0.83016   0.00000  Uiso   1.00
H676   H     0.62970   0.61667   0.70161   0.00000  Uiso   1.00
H677   H     0.49348   0.67027   0.85882   0.00000  Uiso   1.00
H678   H     0.53981   0.51100   0.90303   0.00000  Uiso   1.00
H679   H     0.72176   0.64047   0.60172   0.00000  Uiso   1.00
H680   H     0.43451   0.75346   0.93322   0.00000  Uiso   1.00
H681   H     0.53221   0.41760   0.02645   0.00000  Uiso   1.00
O682   O     0.80800   0.67138   0.66371   0.00000  Uiso   1.00
O683   O     0.43113   0.81961   0.09863   0.00000  Uiso   1.00
O684   O     0.55931   0.37898   0.22094   0.00000  Uiso   1.00
N685   N     0.76781   0.66802   0.83443   0.00000  Uiso   1.00
N686   N     0.49925   0.77366   0.14435   0.00000  Uiso   1.00
N687   N     0.59058   0.45967   0.23152   0.00000  Uiso   1.00
N688   N     0.72836   0.64707   0.68309   0.00000  Uiso   1.00
N689   N     0.45980   0.75271   0.99301   0.00000  Uiso   1.00
N690   N     0.55113   0.43872   0.08018   0.00000  Uiso   1.00
C691   C     0.62271   0.13561   0.58340   0.00000  Uiso   1.00
C692   C     0.65306   0.13941   0.47780   0.00000  Uiso   1.00
C693   C     0.70055   0.15429   0.47331   0.00000  Uiso   1.00
C694   C     0.72198   0.15531   0.36861   0.00000  Uiso   1.00
C695   C     0.77293   0.16328   0.21934   0.00000  Uiso   1.00
C696   C     0.57905   0.16854   0.56320   0.00000  Uiso   1.00
C697   C     0.56431   0.20789   0.63054   0.00000  Uiso   1.00
C698   C     0.52343   0.23343   0.59773   0.00000  Uiso   1.00
C699   C     0.45945   0.28658   0.58110   0.00000  Uiso   1.00
C700   C     0.60422   0.08200   0.58722   0.00000  Uiso   1.00
C701   C     0.61064   0.04860   0.67476   0.00000  Uiso   1.00
C702   C     0.59095   0.00128   0.66219   0.00000  Uiso   1.00
C703   C     0.56607   0.92007   0.68285   0.00000  Uiso   1.00
C704   C     0.57631   0.11097   0.40543   0.00000  Uiso   1.00
C705   C     0.62785   0.12603   0.38113   0.00000  Uiso   1.00
C706   C     0.64922   0.12703   0.27641   0.00000  Uiso   1.00
C707   C     0.69673   0.14190   0.27176   0.00000  Uiso   1.00
C708   C     0.55384   0.15516   0.46654   0.00000  Uiso   1.00
C709   C     0.51297   0.18064   0.43363   0.00000  Uiso   1.00
C710   C     0.49818   0.22002   0.50089   0.00000  Uiso   1.00
C711   C     0.57902   0.06862   0.49056   0.00000  Uiso   1.00
C712   C     0.55931   0.02134   0.47785   0.00000  Uiso   1.00
C713   C     0.56570   0.98787   0.56535   0.00000  Uiso   1.00
H714   H     0.64233   0.14603   0.65866   0.00000  Uiso   1.00
H715   H     0.72004   0.16465   0.54814   0.00000  Uiso   1.00
H716   H     0.58382   0.21824   0.70534   0.00000  Uiso   1.00
H717   H     0.63015   0.05897   0.74955   0.00000  Uiso   1.00
H718   H     0.79508   0.17940   0.38297   0.00000  Uiso   1.00
H719   H     0.50784   0.29239   0.71447   0.00000  Uiso   1.00
H720   H     0.60553   0.95654   0.80770   0.00000  Uiso   1.00
H721   H     0.55668   0.10055   0.33016   0.00000  Uiso   1.00
H722   H     0.62970   0.11667   0.20161   0.00000  Uiso   1.00
H723   H     0.49348   0.17027   0.35882   0.00000  Uiso   1.00
H724   H     0.53981   0.01100   0.40303   0.00000  Uiso   1.00
H725   H     0.72176   0.14047   0.10172   0.00000  Uiso   1.00
H726   H     0.43451   0.25346   0.43322   0.00000  Uiso   1.00
H727   H     0.53221   0.91760   0.52645   0.00000  Uiso   1.00
O728   O     0.80800   0.17138   0.16371   0.00000  Uiso   1.00
O729   O     0.43113   0.31961   0.59863   0.00000  Uiso   1.00
O730   O     0.55931   0.87898   0.72094   0.00000  Uiso   1.00
N731   N     0.76781   0.16802   0.33443   0.00000  Uiso   1.00
N732   N     0.49925   0.27366   0.64435   0.00000  Uiso   1.00
N733   N     0.59058   0.95967   0.73152   0.00000  Uiso   1.00
N734   N     0.72836   0.14707   0.18309   0.00000  Uiso   1.00
N735   N     0.45980   0.25271   0.49301   0.00000  Uiso   1.00
N736   N     0.55113   0.93872   0.58018   0.00000  Uiso   1.00
