data_job_03568
_audit_creation_date              2018-12-19
_audit_creation_method            'Materials Studio'
_symmetry_space_group_name_H-M    'P1'
_symmetry_Int_Tables_number       1
_symmetry_cell_setting            triclinic
loop_
_symmetry_equiv_pos_as_xyz
  x,y,z
_cell_length_a                    25.5177
_cell_length_b                    25.5177
_cell_length_c                    16.3186
_cell_angle_alpha                 90.0000
_cell_angle_beta                  90.0000
_cell_angle_gamma                 90.0000
loop_
_atom_site_label
_atom_site_type_symbol
_atom_site_fract_x
_atom_site_fract_y
_atom_site_fract_z
_atom_site_U_iso_or_equiv
_atom_site_adp_type
_atom_site_occupancy
C1     C     0.74459   0.96935   0.87313   0.00000  Uiso   1.00
C2     C     0.70512   0.00115   0.82363   0.00000  Uiso   1.00
C3     C     0.68560   0.98785   0.74703   0.00000  Uiso   1.00
C4     C     0.64982   0.02213   0.71190   0.00000  Uiso   1.00
C5     C     0.59094   0.06454   0.62892   0.00000  Uiso   1.00
C6     C     0.79025   0.00622   0.89076   0.00000  Uiso   1.00
C7     C     0.84231   0.99717   0.87060   0.00000  Uiso   1.00
C8     C     0.87818   0.03573   0.89200   0.00000  Uiso   1.00
C9     C     0.95147   0.08599   0.91329   0.00000  Uiso   1.00
C10    C     0.71864   0.95861   0.95561   0.00000  Uiso   1.00
C11    C     0.71049   0.90954   0.99000   0.00000  Uiso   1.00
C12    C     0.68609   0.90801   0.06601   0.00000  Uiso   1.00
C13    C     0.64819   0.88435   0.18800   0.00000  Uiso   1.00
C14    C     0.71574   0.05389   0.94698   0.00000  Uiso   1.00
C15    C     0.68945   0.04707   0.86375   0.00000  Uiso   1.00
C16    C     0.65369   0.08138   0.82873   0.00000  Uiso   1.00
C17    C     0.63412   0.06813   0.75209   0.00000  Uiso   1.00
C18    C     0.77458   0.05214   0.93087   0.00000  Uiso   1.00
C19    C     0.81039   0.09071   0.95231   0.00000  Uiso   1.00
C20    C     0.86249   0.08173   0.93218   0.00000  Uiso   1.00
C21    C     0.70297   0.00453   0.99573   0.00000  Uiso   1.00
C22    C     0.67858   0.00307   0.07170   0.00000  Uiso   1.00
C23    C     0.67040   0.95401   0.10620   0.00000  Uiso   1.00
H24    H     0.75679   0.93360   0.84191   0.00000  Uiso   1.00
H25    H     0.69774   0.95231   0.71600   0.00000  Uiso   1.00
H26    H     0.85442   0.96164   0.83957   0.00000  Uiso   1.00
H27    H     0.72262   0.87402   0.95895   0.00000  Uiso   1.00
H28    H     0.62538   0.99332   0.59409   0.00000  Uiso   1.00
H29    H     0.95575   0.01297   0.85466   0.00000  Uiso   1.00
H30    H     0.67783   0.82820   0.10639   0.00000  Uiso   1.00
H31    H     0.70355   0.08964   0.97821   0.00000  Uiso   1.00
H32    H     0.64157   0.11691   0.85979   0.00000  Uiso   1.00
H33    H     0.79825   0.12623   0.98335   0.00000  Uiso   1.00
H34    H     0.66646   0.03861   0.10273   0.00000  Uiso   1.00
H35    H     0.57979   0.12691   0.71079   0.00000  Uiso   1.00
H36    H     0.91016   0.14656   0.97136   0.00000  Uiso   1.00
H37    H     0.63225   0.96180   0.22309   0.00000  Uiso   1.00
O38    O     0.56279   0.07525   0.57206   0.00000  Uiso   1.00
O39    O     0.99622   0.10102   0.91394   0.00000  Uiso   1.00
O40    O     0.63160   0.85862   0.24419   0.00000  Uiso   1.00
N41    N     0.62315   0.02101   0.63782   0.00000  Uiso   1.00
N42    N     0.93202   0.03939   0.88142   0.00000  Uiso   1.00
N43    N     0.67221   0.86665   0.11678   0.00000  Uiso   1.00
N44    N     0.59862   0.09290   0.70061   0.00000  Uiso   1.00
N45    N     0.90749   0.11127   0.94422   0.00000  Uiso   1.00
N46    N     0.64768   0.93853   0.17957   0.00000  Uiso   1.00
C47    C     0.57076   0.73307   0.05356   0.00000  Uiso   1.00
C48    C     0.53935   0.69337   0.00389   0.00000  Uiso   1.00
C49    C     0.55330   0.67345   0.92782   0.00000  Uiso   1.00
C50    C     0.51929   0.63752   0.89242   0.00000  Uiso   1.00
C51    C     0.47755   0.57824   0.80929   0.00000  Uiso   1.00
C52    C     0.53379   0.77885   0.06983   0.00000  Uiso   1.00
C53    C     0.54305   0.83079   0.04921   0.00000  Uiso   1.00
C54    C     0.50436   0.86681   0.06934   0.00000  Uiso   1.00
C55    C     0.45399   0.94025   0.08864   0.00000  Uiso   1.00
C56    C     0.58076   0.70753   0.13659   0.00000  Uiso   1.00
C57    C     0.62952   0.69952   0.17211   0.00000  Uiso   1.00
C58    C     0.63037   0.67551   0.24845   0.00000  Uiso   1.00
C59    C     0.65293   0.63822   0.37140   0.00000  Uiso   1.00
C60    C     0.48556   0.70467   0.12597   0.00000  Uiso   1.00
C61    C     0.49308   0.67795   0.04322   0.00000  Uiso   1.00
C62    C     0.45904   0.64204   0.00793   0.00000  Uiso   1.00
C63    C     0.47293   0.62206   0.93183   0.00000  Uiso   1.00
C64    C     0.48751   0.76343   0.10916   0.00000  Uiso   1.00
C65    C     0.44879   0.79938   0.12933   0.00000  Uiso   1.00
C66    C     0.45800   0.85136   0.10874   0.00000  Uiso   1.00
C67    C     0.53448   0.69211   0.17592   0.00000  Uiso   1.00
C68    C     0.53526   0.66811   0.25222   0.00000  Uiso   1.00
C69    C     0.58401   0.66006   0.28785   0.00000  Uiso   1.00
H70    H     0.60679   0.74508   0.02294   0.00000  Uiso   1.00
H71    H     0.58911   0.68540   0.89740   0.00000  Uiso   1.00
H72    H     0.57887   0.84271   0.01878   0.00000  Uiso   1.00
H73    H     0.66532   0.71146   0.14166   0.00000  Uiso   1.00
H74    H     0.54910   0.61245   0.77554   0.00000  Uiso   1.00
H75    H     0.52751   0.94416   0.03151   0.00000  Uiso   1.00
H76    H     0.70981   0.66739   0.29062   0.00000  Uiso   1.00
H77    H     0.44953   0.69267   0.15659   0.00000  Uiso   1.00
H78    H     0.42323   0.63011   0.03838   0.00000  Uiso   1.00
H79    H     0.41299   0.78743   0.15977   0.00000  Uiso   1.00
H80    H     0.49944   0.65618   0.28264   0.00000  Uiso   1.00
H81    H     0.41446   0.56757   0.88997   0.00000  Uiso   1.00
H82    H     0.39287   0.89929   0.14594   0.00000  Uiso   1.00
H83    H     0.57517   0.62252   0.40505   0.00000  Uiso   1.00
O84    O     0.46730   0.54982   0.75257   0.00000  Uiso   1.00
O85    O     0.43899   0.98501   0.08841   0.00000  Uiso   1.00
O86    O     0.67816   0.62190   0.42834   0.00000  Uiso   1.00
N87    N     0.52103   0.61046   0.81870   0.00000  Uiso   1.00
N88    N     0.50084   0.92060   0.05801   0.00000  Uiso   1.00
N89    N     0.67127   0.66185   0.30026   0.00000  Uiso   1.00
N90    N     0.44858   0.58632   0.88028   0.00000  Uiso   1.00
N91    N     0.42839   0.89645   0.11958   0.00000  Uiso   1.00
N92    N     0.59883   0.63771   0.36183   0.00000  Uiso   1.00
C93    C     0.24459   0.46935   0.37313   0.00000  Uiso   1.00
C94    C     0.20512   0.50115   0.32363   0.00000  Uiso   1.00
C95    C     0.18560   0.48785   0.24703   0.00000  Uiso   1.00
C96    C     0.14982   0.52213   0.21190   0.00000  Uiso   1.00
C97    C     0.09094   0.56454   0.12892   0.00000  Uiso   1.00
C98    C     0.29025   0.50622   0.39076   0.00000  Uiso   1.00
C99    C     0.34231   0.49717   0.37060   0.00000  Uiso   1.00
C100   C     0.37818   0.53573   0.39200   0.00000  Uiso   1.00
C101   C     0.45147   0.58599   0.41329   0.00000  Uiso   1.00
C102   C     0.21864   0.45861   0.45561   0.00000  Uiso   1.00
C103   C     0.21049   0.40954   0.49000   0.00000  Uiso   1.00
C104   C     0.18609   0.40801   0.56601   0.00000  Uiso   1.00
C105   C     0.14819   0.38435   0.68800   0.00000  Uiso   1.00
C106   C     0.21574   0.55389   0.44698   0.00000  Uiso   1.00
C107   C     0.18945   0.54707   0.36375   0.00000  Uiso   1.00
C108   C     0.15369   0.58138   0.32873   0.00000  Uiso   1.00
C109   C     0.13412   0.56813   0.25209   0.00000  Uiso   1.00
C110   C     0.27458   0.55214   0.43087   0.00000  Uiso   1.00
C111   C     0.31039   0.59071   0.45231   0.00000  Uiso   1.00
C112   C     0.36249   0.58173   0.43218   0.00000  Uiso   1.00
C113   C     0.20297   0.50453   0.49573   0.00000  Uiso   1.00
C114   C     0.17858   0.50307   0.57170   0.00000  Uiso   1.00
C115   C     0.17040   0.45401   0.60620   0.00000  Uiso   1.00
H116   H     0.25679   0.43360   0.34191   0.00000  Uiso   1.00
H117   H     0.19774   0.45231   0.21600   0.00000  Uiso   1.00
H118   H     0.35442   0.46164   0.33957   0.00000  Uiso   1.00
H119   H     0.22262   0.37402   0.45895   0.00000  Uiso   1.00
H120   H     0.12538   0.49332   0.09409   0.00000  Uiso   1.00
H121   H     0.45575   0.51297   0.35466   0.00000  Uiso   1.00
H122   H     0.17783   0.32820   0.60639   0.00000  Uiso   1.00
H123   H     0.20355   0.58964   0.47821   0.00000  Uiso   1.00
H124   H     0.14157   0.61691   0.35979   0.00000  Uiso   1.00
H125   H     0.29825   0.62623   0.48335   0.00000  Uiso   1.00
H126   H     0.16646   0.53861   0.60273   0.00000  Uiso   1.00
H127   H     0.07979   0.62691   0.21079   0.00000  Uiso   1.00
H128   H     0.41016   0.64656   0.47136   0.00000  Uiso   1.00
H129   H     0.13225   0.46180   0.72309   0.00000  Uiso   1.00
O130   O     0.06279   0.57525   0.07206   0.00000  Uiso   1.00
O131   O     0.49622   0.60102   0.41394   0.00000  Uiso   1.00
O132   O     0.13160   0.35862   0.74419   0.00000  Uiso   1.00
N133   N     0.12315   0.52101   0.13782   0.00000  Uiso   1.00
N134   N     0.43202   0.53939   0.38142   0.00000  Uiso   1.00
N135   N     0.17221   0.36665   0.61678   0.00000  Uiso   1.00
N136   N     0.09862   0.59290   0.20061   0.00000  Uiso   1.00
N137   N     0.40749   0.61127   0.44422   0.00000  Uiso   1.00
N138   N     0.14768   0.43853   0.67957   0.00000  Uiso   1.00
C139   C     0.07076   0.23307   0.55356   0.00000  Uiso   1.00
C140   C     0.03935   0.19337   0.50389   0.00000  Uiso   1.00
C141   C     0.05330   0.17345   0.42782   0.00000  Uiso   1.00
C142   C     0.01929   0.13752   0.39242   0.00000  Uiso   1.00
C143   C     0.97755   0.07824   0.30929   0.00000  Uiso   1.00
C144   C     0.03379   0.27885   0.56983   0.00000  Uiso   1.00
C145   C     0.04305   0.33079   0.54921   0.00000  Uiso   1.00
C146   C     0.00436   0.36681   0.56934   0.00000  Uiso   1.00
C147   C     0.95399   0.44025   0.58864   0.00000  Uiso   1.00
C148   C     0.08076   0.20753   0.63659   0.00000  Uiso   1.00
C149   C     0.12952   0.19952   0.67211   0.00000  Uiso   1.00
C150   C     0.13037   0.17551   0.74845   0.00000  Uiso   1.00
C151   C     0.15293   0.13822   0.87140   0.00000  Uiso   1.00
C152   C     0.98556   0.20467   0.62597   0.00000  Uiso   1.00
C153   C     0.99308   0.17795   0.54322   0.00000  Uiso   1.00
C154   C     0.95904   0.14204   0.50793   0.00000  Uiso   1.00
C155   C     0.97293   0.12206   0.43183   0.00000  Uiso   1.00
C156   C     0.98751   0.26343   0.60916   0.00000  Uiso   1.00
C157   C     0.94879   0.29938   0.62933   0.00000  Uiso   1.00
C158   C     0.95800   0.35136   0.60874   0.00000  Uiso   1.00
C159   C     0.03448   0.19211   0.67592   0.00000  Uiso   1.00
C160   C     0.03526   0.16811   0.75222   0.00000  Uiso   1.00
C161   C     0.08401   0.16006   0.78785   0.00000  Uiso   1.00
H162   H     0.10679   0.24508   0.52294   0.00000  Uiso   1.00
H163   H     0.08911   0.18540   0.39740   0.00000  Uiso   1.00
H164   H     0.07887   0.34271   0.51878   0.00000  Uiso   1.00
H165   H     0.16532   0.21146   0.64166   0.00000  Uiso   1.00
H166   H     0.04910   0.11245   0.27554   0.00000  Uiso   1.00
H167   H     0.02751   0.44416   0.53151   0.00000  Uiso   1.00
H168   H     0.20981   0.16739   0.79062   0.00000  Uiso   1.00
H169   H     0.94953   0.19267   0.65659   0.00000  Uiso   1.00
H170   H     0.92323   0.13011   0.53838   0.00000  Uiso   1.00
H171   H     0.91299   0.28743   0.65977   0.00000  Uiso   1.00
H172   H     0.99944   0.15618   0.78264   0.00000  Uiso   1.00
H173   H     0.91446   0.06757   0.38997   0.00000  Uiso   1.00
H174   H     0.89287   0.39929   0.64594   0.00000  Uiso   1.00
H175   H     0.07517   0.12252   0.90505   0.00000  Uiso   1.00
O176   O     0.96730   0.04982   0.25257   0.00000  Uiso   1.00
O177   O     0.93899   0.48501   0.58841   0.00000  Uiso   1.00
O178   O     0.17816   0.12190   0.92834   0.00000  Uiso   1.00
N179   N     0.02103   0.11046   0.31870   0.00000  Uiso   1.00
N180   N     0.00084   0.42060   0.55801   0.00000  Uiso   1.00
N181   N     0.17127   0.16185   0.80026   0.00000  Uiso   1.00
N182   N     0.94858   0.08632   0.38028   0.00000  Uiso   1.00
N183   N     0.92839   0.39645   0.61958   0.00000  Uiso   1.00
N184   N     0.09883   0.13771   0.86183   0.00000  Uiso   1.00
C185   C     0.25541   0.03065   0.87313   0.00000  Uiso   1.00
C186   C     0.29488   0.99885   0.82363   0.00000  Uiso   1.00
C187   C     0.31440   0.01215   0.74703   0.00000  Uiso   1.00
C188   C     0.35018   0.97787   0.71190   0.00000  Uiso   1.00
C189   C     0.40906   0.93546   0.62892   0.00000  Uiso   1.00
C190   C     0.20975   0.99378   0.89076   0.00000  Uiso   1.00
C191   C     0.15769   0.00283   0.87060   0.00000  Uiso   1.00
C192   C     0.12182   0.96427   0.89200   0.00000  Uiso   1.00
C193   C     0.04853   0.91401   0.91329   0.00000  Uiso   1.00
C194   C     0.28136   0.04139   0.95561   0.00000  Uiso   1.00
C195   C     0.28951   0.09046   0.99000   0.00000  Uiso   1.00
C196   C     0.31391   0.09199   0.06601   0.00000  Uiso   1.00
C197   C     0.35181   0.11565   0.18800   0.00000  Uiso   1.00
C198   C     0.28426   0.94611   0.94698   0.00000  Uiso   1.00
C199   C     0.31055   0.95293   0.86375   0.00000  Uiso   1.00
C200   C     0.34631   0.91862   0.82873   0.00000  Uiso   1.00
C201   C     0.36588   0.93187   0.75209   0.00000  Uiso   1.00
C202   C     0.22542   0.94786   0.93087   0.00000  Uiso   1.00
C203   C     0.18961   0.90929   0.95231   0.00000  Uiso   1.00
C204   C     0.13751   0.91827   0.93218   0.00000  Uiso   1.00
C205   C     0.29703   0.99547   0.99573   0.00000  Uiso   1.00
C206   C     0.32142   0.99693   0.07170   0.00000  Uiso   1.00
C207   C     0.32960   0.04599   0.10620   0.00000  Uiso   1.00
H208   H     0.24321   0.06640   0.84191   0.00000  Uiso   1.00
H209   H     0.30226   0.04769   0.71600   0.00000  Uiso   1.00
H210   H     0.14558   0.03836   0.83957   0.00000  Uiso   1.00
H211   H     0.27738   0.12598   0.95895   0.00000  Uiso   1.00
H212   H     0.37462   0.00668   0.59409   0.00000  Uiso   1.00
H213   H     0.04425   0.98703   0.85466   0.00000  Uiso   1.00
H214   H     0.32217   0.17180   0.10639   0.00000  Uiso   1.00
H215   H     0.29645   0.91036   0.97821   0.00000  Uiso   1.00
H216   H     0.35843   0.88309   0.85979   0.00000  Uiso   1.00
H217   H     0.20175   0.87377   0.98335   0.00000  Uiso   1.00
H218   H     0.33354   0.96139   0.10273   0.00000  Uiso   1.00
H219   H     0.42021   0.87309   0.71079   0.00000  Uiso   1.00
H220   H     0.08984   0.85344   0.97136   0.00000  Uiso   1.00
H221   H     0.36775   0.03820   0.22309   0.00000  Uiso   1.00
O222   O     0.43721   0.92475   0.57206   0.00000  Uiso   1.00
O223   O     0.00378   0.89898   0.91394   0.00000  Uiso   1.00
O224   O     0.36840   0.14138   0.24419   0.00000  Uiso   1.00
N225   N     0.37685   0.97899   0.63782   0.00000  Uiso   1.00
N226   N     0.06798   0.96061   0.88142   0.00000  Uiso   1.00
N227   N     0.32779   0.13335   0.11678   0.00000  Uiso   1.00
N228   N     0.40138   0.90710   0.70061   0.00000  Uiso   1.00
N229   N     0.09251   0.88873   0.94422   0.00000  Uiso   1.00
N230   N     0.35232   0.06147   0.17957   0.00000  Uiso   1.00
C231   C     0.42924   0.26693   0.05356   0.00000  Uiso   1.00
C232   C     0.46065   0.30663   0.00389   0.00000  Uiso   1.00
C233   C     0.44670   0.32655   0.92782   0.00000  Uiso   1.00
C234   C     0.48071   0.36248   0.89242   0.00000  Uiso   1.00
C235   C     0.52245   0.42176   0.80929   0.00000  Uiso   1.00
C236   C     0.46621   0.22115   0.06983   0.00000  Uiso   1.00
C237   C     0.45695   0.16921   0.04921   0.00000  Uiso   1.00
C238   C     0.49564   0.13319   0.06934   0.00000  Uiso   1.00
C239   C     0.54601   0.05975   0.08864   0.00000  Uiso   1.00
C240   C     0.41924   0.29247   0.13659   0.00000  Uiso   1.00
C241   C     0.37048   0.30048   0.17211   0.00000  Uiso   1.00
C242   C     0.36963   0.32449   0.24845   0.00000  Uiso   1.00
C243   C     0.34707   0.36178   0.37140   0.00000  Uiso   1.00
C244   C     0.51444   0.29533   0.12597   0.00000  Uiso   1.00
C245   C     0.50692   0.32205   0.04322   0.00000  Uiso   1.00
C246   C     0.54096   0.35796   0.00793   0.00000  Uiso   1.00
C247   C     0.52707   0.37794   0.93183   0.00000  Uiso   1.00
C248   C     0.51249   0.23657   0.10916   0.00000  Uiso   1.00
C249   C     0.55121   0.20062   0.12933   0.00000  Uiso   1.00
C250   C     0.54200   0.14864   0.10874   0.00000  Uiso   1.00
C251   C     0.46552   0.30789   0.17592   0.00000  Uiso   1.00
C252   C     0.46474   0.33189   0.25222   0.00000  Uiso   1.00
C253   C     0.41599   0.33994   0.28785   0.00000  Uiso   1.00
H254   H     0.39321   0.25492   0.02294   0.00000  Uiso   1.00
H255   H     0.41089   0.31460   0.89740   0.00000  Uiso   1.00
H256   H     0.42113   0.15729   0.01878   0.00000  Uiso   1.00
H257   H     0.33468   0.28854   0.14166   0.00000  Uiso   1.00
H258   H     0.45090   0.38755   0.77554   0.00000  Uiso   1.00
H259   H     0.47249   0.05584   0.03151   0.00000  Uiso   1.00
H260   H     0.29019   0.33261   0.29062   0.00000  Uiso   1.00
H261   H     0.55047   0.30733   0.15659   0.00000  Uiso   1.00
H262   H     0.57677   0.36989   0.03838   0.00000  Uiso   1.00
H263   H     0.58701   0.21257   0.15977   0.00000  Uiso   1.00
H264   H     0.50056   0.34382   0.28264   0.00000  Uiso   1.00
H265   H     0.58554   0.43243   0.88997   0.00000  Uiso   1.00
H266   H     0.60713   0.10071   0.14594   0.00000  Uiso   1.00
H267   H     0.42483   0.37748   0.40505   0.00000  Uiso   1.00
O268   O     0.53270   0.45018   0.75257   0.00000  Uiso   1.00
O269   O     0.56101   0.01499   0.08841   0.00000  Uiso   1.00
O270   O     0.32184   0.37810   0.42834   0.00000  Uiso   1.00
N271   N     0.47897   0.38954   0.81870   0.00000  Uiso   1.00
N272   N     0.49916   0.07940   0.05801   0.00000  Uiso   1.00
N273   N     0.32873   0.33815   0.30026   0.00000  Uiso   1.00
N274   N     0.55142   0.41368   0.88028   0.00000  Uiso   1.00
N275   N     0.57161   0.10355   0.11958   0.00000  Uiso   1.00
N276   N     0.40117   0.36229   0.36183   0.00000  Uiso   1.00
C277   C     0.75541   0.53065   0.37313   0.00000  Uiso   1.00
C278   C     0.79488   0.49885   0.32363   0.00000  Uiso   1.00
C279   C     0.81440   0.51215   0.24703   0.00000  Uiso   1.00
C280   C     0.85018   0.47787   0.21190   0.00000  Uiso   1.00
C281   C     0.90906   0.43546   0.12892   0.00000  Uiso   1.00
C282   C     0.70975   0.49378   0.39076   0.00000  Uiso   1.00
C283   C     0.65769   0.50283   0.37060   0.00000  Uiso   1.00
C284   C     0.62182   0.46427   0.39200   0.00000  Uiso   1.00
C285   C     0.54853   0.41401   0.41329   0.00000  Uiso   1.00
C286   C     0.78136   0.54139   0.45561   0.00000  Uiso   1.00
C287   C     0.78951   0.59046   0.49000   0.00000  Uiso   1.00
C288   C     0.81391   0.59199   0.56601   0.00000  Uiso   1.00
C289   C     0.85181   0.61565   0.68800   0.00000  Uiso   1.00
C290   C     0.78426   0.44611   0.44698   0.00000  Uiso   1.00
C291   C     0.81055   0.45293   0.36375   0.00000  Uiso   1.00
C292   C     0.84631   0.41862   0.32873   0.00000  Uiso   1.00
C293   C     0.86588   0.43187   0.25209   0.00000  Uiso   1.00
C294   C     0.72542   0.44786   0.43087   0.00000  Uiso   1.00
C295   C     0.68961   0.40929   0.45231   0.00000  Uiso   1.00
C296   C     0.63751   0.41827   0.43218   0.00000  Uiso   1.00
C297   C     0.79703   0.49547   0.49573   0.00000  Uiso   1.00
C298   C     0.82142   0.49693   0.57170   0.00000  Uiso   1.00
C299   C     0.82960   0.54599   0.60620   0.00000  Uiso   1.00
H300   H     0.74321   0.56640   0.34191   0.00000  Uiso   1.00
H301   H     0.80226   0.54769   0.21600   0.00000  Uiso   1.00
H302   H     0.64558   0.53836   0.33957   0.00000  Uiso   1.00
H303   H     0.77738   0.62598   0.45895   0.00000  Uiso   1.00
H304   H     0.87462   0.50668   0.09409   0.00000  Uiso   1.00
H305   H     0.54425   0.48703   0.35466   0.00000  Uiso   1.00
H306   H     0.82217   0.67180   0.60639   0.00000  Uiso   1.00
H307   H     0.79645   0.41036   0.47821   0.00000  Uiso   1.00
H308   H     0.85843   0.38309   0.35979   0.00000  Uiso   1.00
H309   H     0.70175   0.37377   0.48335   0.00000  Uiso   1.00
H310   H     0.83354   0.46139   0.60273   0.00000  Uiso   1.00
H311   H     0.92021   0.37309   0.21079   0.00000  Uiso   1.00
H312   H     0.58984   0.35344   0.47136   0.00000  Uiso   1.00
H313   H     0.86775   0.53820   0.72309   0.00000  Uiso   1.00
O314   O     0.93721   0.42475   0.07206   0.00000  Uiso   1.00
O315   O     0.50378   0.39898   0.41394   0.00000  Uiso   1.00
O316   O     0.86840   0.64138   0.74419   0.00000  Uiso   1.00
N317   N     0.87685   0.47899   0.13782   0.00000  Uiso   1.00
N318   N     0.56798   0.46061   0.38142   0.00000  Uiso   1.00
N319   N     0.82779   0.63335   0.61678   0.00000  Uiso   1.00
N320   N     0.90138   0.40710   0.20061   0.00000  Uiso   1.00
N321   N     0.59251   0.38873   0.44422   0.00000  Uiso   1.00
N322   N     0.85232   0.56147   0.67957   0.00000  Uiso   1.00
C323   C     0.92924   0.76693   0.55356   0.00000  Uiso   1.00
C324   C     0.96065   0.80663   0.50389   0.00000  Uiso   1.00
C325   C     0.94670   0.82655   0.42782   0.00000  Uiso   1.00
C326   C     0.98071   0.86248   0.39242   0.00000  Uiso   1.00
C327   C     0.02245   0.92176   0.30929   0.00000  Uiso   1.00
C328   C     0.96621   0.72115   0.56983   0.00000  Uiso   1.00
C329   C     0.95695   0.66921   0.54921   0.00000  Uiso   1.00
C330   C     0.99564   0.63319   0.56934   0.00000  Uiso   1.00
C331   C     0.04601   0.55975   0.58864   0.00000  Uiso   1.00
C332   C     0.91924   0.79247   0.63659   0.00000  Uiso   1.00
C333   C     0.87048   0.80048   0.67211   0.00000  Uiso   1.00
C334   C     0.86963   0.82449   0.74845   0.00000  Uiso   1.00
C335   C     0.84707   0.86178   0.87140   0.00000  Uiso   1.00
C336   C     0.01444   0.79533   0.62597   0.00000  Uiso   1.00
C337   C     0.00692   0.82205   0.54322   0.00000  Uiso   1.00
C338   C     0.04096   0.85796   0.50793   0.00000  Uiso   1.00
C339   C     0.02707   0.87794   0.43183   0.00000  Uiso   1.00
C340   C     0.01249   0.73657   0.60916   0.00000  Uiso   1.00
C341   C     0.05121   0.70062   0.62933   0.00000  Uiso   1.00
C342   C     0.04200   0.64864   0.60874   0.00000  Uiso   1.00
C343   C     0.96552   0.80789   0.67592   0.00000  Uiso   1.00
C344   C     0.96474   0.83189   0.75222   0.00000  Uiso   1.00
C345   C     0.91599   0.83994   0.78785   0.00000  Uiso   1.00
H346   H     0.89321   0.75492   0.52294   0.00000  Uiso   1.00
H347   H     0.91089   0.81460   0.39740   0.00000  Uiso   1.00
H348   H     0.92113   0.65729   0.51878   0.00000  Uiso   1.00
H349   H     0.83468   0.78854   0.64166   0.00000  Uiso   1.00
H350   H     0.95090   0.88755   0.27554   0.00000  Uiso   1.00
H351   H     0.97249   0.55584   0.53151   0.00000  Uiso   1.00
H352   H     0.79019   0.83261   0.79062   0.00000  Uiso   1.00
H353   H     0.05047   0.80733   0.65659   0.00000  Uiso   1.00
H354   H     0.07677   0.86989   0.53838   0.00000  Uiso   1.00
H355   H     0.08701   0.71257   0.65977   0.00000  Uiso   1.00
H356   H     0.00056   0.84382   0.78264   0.00000  Uiso   1.00
H357   H     0.08554   0.93243   0.38997   0.00000  Uiso   1.00
H358   H     0.10713   0.60071   0.64594   0.00000  Uiso   1.00
H359   H     0.92483   0.87748   0.90505   0.00000  Uiso   1.00
O360   O     0.03270   0.95018   0.25257   0.00000  Uiso   1.00
O361   O     0.06101   0.51499   0.58841   0.00000  Uiso   1.00
O362   O     0.82184   0.87810   0.92834   0.00000  Uiso   1.00
N363   N     0.97897   0.88954   0.31870   0.00000  Uiso   1.00
N364   N     0.99916   0.57940   0.55801   0.00000  Uiso   1.00
N365   N     0.82873   0.83815   0.80026   0.00000  Uiso   1.00
N366   N     0.05142   0.91368   0.38028   0.00000  Uiso   1.00
N367   N     0.07161   0.60355   0.61958   0.00000  Uiso   1.00
N368   N     0.90117   0.86229   0.86183   0.00000  Uiso   1.00
C369   C     0.96935   0.25541   0.12687   0.00000  Uiso   1.00
C370   C     0.00115   0.29488   0.17637   0.00000  Uiso   1.00
C371   C     0.98785   0.31440   0.25297   0.00000  Uiso   1.00
C372   C     0.02213   0.35018   0.28810   0.00000  Uiso   1.00
C373   C     0.06454   0.40906   0.37108   0.00000  Uiso   1.00
C374   C     0.00622   0.20975   0.10924   0.00000  Uiso   1.00
C375   C     0.99717   0.15769   0.12940   0.00000  Uiso   1.00
C376   C     0.03573   0.12182   0.10800   0.00000  Uiso   1.00
C377   C     0.08599   0.04853   0.08671   0.00000  Uiso   1.00
C378   C     0.95861   0.28136   0.04439   0.00000  Uiso   1.00
C379   C     0.90954   0.28951   0.01000   0.00000  Uiso   1.00
C380   C     0.90801   0.31391   0.93399   0.00000  Uiso   1.00
C381   C     0.88435   0.35181   0.81200   0.00000  Uiso   1.00
C382   C     0.05389   0.28426   0.05302   0.00000  Uiso   1.00
C383   C     0.04707   0.31055   0.13625   0.00000  Uiso   1.00
C384   C     0.08138   0.34631   0.17127   0.00000  Uiso   1.00
C385   C     0.06813   0.36588   0.24791   0.00000  Uiso   1.00
C386   C     0.05214   0.22542   0.06913   0.00000  Uiso   1.00
C387   C     0.09071   0.18961   0.04769   0.00000  Uiso   1.00
C388   C     0.08173   0.13751   0.06782   0.00000  Uiso   1.00
C389   C     0.00453   0.29703   0.00427   0.00000  Uiso   1.00
C390   C     0.00307   0.32142   0.92830   0.00000  Uiso   1.00
C391   C     0.95401   0.32960   0.89380   0.00000  Uiso   1.00
H392   H     0.93360   0.24321   0.15809   0.00000  Uiso   1.00
H393   H     0.95231   0.30226   0.28400   0.00000  Uiso   1.00
H394   H     0.96164   0.14558   0.16043   0.00000  Uiso   1.00
H395   H     0.87402   0.27738   0.04105   0.00000  Uiso   1.00
H396   H     0.99332   0.37462   0.40591   0.00000  Uiso   1.00
H397   H     0.01297   0.04425   0.14534   0.00000  Uiso   1.00
H398   H     0.82820   0.32217   0.89361   0.00000  Uiso   1.00
H399   H     0.08964   0.29645   0.02179   0.00000  Uiso   1.00
H400   H     0.11691   0.35843   0.14021   0.00000  Uiso   1.00
H401   H     0.12623   0.20175   0.01665   0.00000  Uiso   1.00
H402   H     0.03861   0.33354   0.89727   0.00000  Uiso   1.00
H403   H     0.12691   0.42021   0.28921   0.00000  Uiso   1.00
H404   H     0.14656   0.08984   0.02864   0.00000  Uiso   1.00
H405   H     0.96180   0.36775   0.77691   0.00000  Uiso   1.00
O406   O     0.07525   0.43721   0.42794   0.00000  Uiso   1.00
O407   O     0.10102   0.00378   0.08606   0.00000  Uiso   1.00
O408   O     0.85862   0.36840   0.75581   0.00000  Uiso   1.00
N409   N     0.02101   0.37685   0.36218   0.00000  Uiso   1.00
N410   N     0.03939   0.06798   0.11858   0.00000  Uiso   1.00
N411   N     0.86665   0.32779   0.88322   0.00000  Uiso   1.00
N412   N     0.09290   0.40138   0.29939   0.00000  Uiso   1.00
N413   N     0.11127   0.09251   0.05578   0.00000  Uiso   1.00
N414   N     0.93853   0.35232   0.82043   0.00000  Uiso   1.00
C415   C     0.73307   0.42924   0.94644   0.00000  Uiso   1.00
C416   C     0.69337   0.46065   0.99611   0.00000  Uiso   1.00
C417   C     0.67345   0.44670   0.07218   0.00000  Uiso   1.00
C418   C     0.63752   0.48071   0.10758   0.00000  Uiso   1.00
C419   C     0.57824   0.52245   0.19071   0.00000  Uiso   1.00
C420   C     0.77885   0.46621   0.93017   0.00000  Uiso   1.00
C421   C     0.83079   0.45695   0.95079   0.00000  Uiso   1.00
C422   C     0.86681   0.49564   0.93066   0.00000  Uiso   1.00
C423   C     0.94025   0.54601   0.91136   0.00000  Uiso   1.00
C424   C     0.70753   0.41924   0.86341   0.00000  Uiso   1.00
C425   C     0.69952   0.37048   0.82789   0.00000  Uiso   1.00
C426   C     0.67551   0.36963   0.75155   0.00000  Uiso   1.00
C427   C     0.63822   0.34707   0.62860   0.00000  Uiso   1.00
C428   C     0.70467   0.51444   0.87403   0.00000  Uiso   1.00
C429   C     0.67795   0.50692   0.95678   0.00000  Uiso   1.00
C430   C     0.64204   0.54096   0.99207   0.00000  Uiso   1.00
C431   C     0.62206   0.52707   0.06817   0.00000  Uiso   1.00
C432   C     0.76343   0.51249   0.89084   0.00000  Uiso   1.00
C433   C     0.79938   0.55121   0.87067   0.00000  Uiso   1.00
C434   C     0.85136   0.54200   0.89126   0.00000  Uiso   1.00
C435   C     0.69211   0.46552   0.82408   0.00000  Uiso   1.00
C436   C     0.66811   0.46474   0.74778   0.00000  Uiso   1.00
C437   C     0.66006   0.41599   0.71215   0.00000  Uiso   1.00
H438   H     0.74508   0.39321   0.97706   0.00000  Uiso   1.00
H439   H     0.68540   0.41089   0.10260   0.00000  Uiso   1.00
H440   H     0.84271   0.42113   0.98122   0.00000  Uiso   1.00
H441   H     0.71146   0.33468   0.85834   0.00000  Uiso   1.00
H442   H     0.61245   0.45090   0.22446   0.00000  Uiso   1.00
H443   H     0.94416   0.47249   0.96849   0.00000  Uiso   1.00
H444   H     0.66739   0.29019   0.70938   0.00000  Uiso   1.00
H445   H     0.69267   0.55047   0.84341   0.00000  Uiso   1.00
H446   H     0.63011   0.57677   0.96162   0.00000  Uiso   1.00
H447   H     0.78743   0.58701   0.84023   0.00000  Uiso   1.00
H448   H     0.65618   0.50056   0.71736   0.00000  Uiso   1.00
H449   H     0.56757   0.58554   0.11003   0.00000  Uiso   1.00
H450   H     0.89929   0.60713   0.85406   0.00000  Uiso   1.00
H451   H     0.62252   0.42483   0.59495   0.00000  Uiso   1.00
O452   O     0.54982   0.53270   0.24743   0.00000  Uiso   1.00
O453   O     0.98501   0.56101   0.91159   0.00000  Uiso   1.00
O454   O     0.62190   0.32184   0.57166   0.00000  Uiso   1.00
N455   N     0.61046   0.47897   0.18130   0.00000  Uiso   1.00
N456   N     0.92060   0.49916   0.94199   0.00000  Uiso   1.00
N457   N     0.66185   0.32873   0.69974   0.00000  Uiso   1.00
N458   N     0.58632   0.55142   0.11972   0.00000  Uiso   1.00
N459   N     0.89645   0.57161   0.88042   0.00000  Uiso   1.00
N460   N     0.63771   0.40117   0.63817   0.00000  Uiso   1.00
C461   C     0.46935   0.75541   0.62687   0.00000  Uiso   1.00
C462   C     0.50115   0.79488   0.67637   0.00000  Uiso   1.00
C463   C     0.48785   0.81440   0.75297   0.00000  Uiso   1.00
C464   C     0.52213   0.85018   0.78810   0.00000  Uiso   1.00
C465   C     0.56454   0.90906   0.87108   0.00000  Uiso   1.00
C466   C     0.50622   0.70975   0.60924   0.00000  Uiso   1.00
C467   C     0.49717   0.65769   0.62940   0.00000  Uiso   1.00
C468   C     0.53573   0.62182   0.60800   0.00000  Uiso   1.00
C469   C     0.58599   0.54853   0.58671   0.00000  Uiso   1.00
C470   C     0.45861   0.78136   0.54439   0.00000  Uiso   1.00
C471   C     0.40954   0.78951   0.51000   0.00000  Uiso   1.00
C472   C     0.40801   0.81391   0.43399   0.00000  Uiso   1.00
C473   C     0.38435   0.85181   0.31200   0.00000  Uiso   1.00
C474   C     0.55389   0.78426   0.55302   0.00000  Uiso   1.00
C475   C     0.54707   0.81055   0.63625   0.00000  Uiso   1.00
C476   C     0.58138   0.84631   0.67127   0.00000  Uiso   1.00
C477   C     0.56813   0.86588   0.74791   0.00000  Uiso   1.00
C478   C     0.55214   0.72542   0.56913   0.00000  Uiso   1.00
C479   C     0.59071   0.68961   0.54769   0.00000  Uiso   1.00
C480   C     0.58173   0.63751   0.56782   0.00000  Uiso   1.00
C481   C     0.50453   0.79703   0.50427   0.00000  Uiso   1.00
C482   C     0.50307   0.82142   0.42830   0.00000  Uiso   1.00
C483   C     0.45401   0.82960   0.39380   0.00000  Uiso   1.00
H484   H     0.43360   0.74321   0.65809   0.00000  Uiso   1.00
H485   H     0.45231   0.80226   0.78400   0.00000  Uiso   1.00
H486   H     0.46164   0.64558   0.66043   0.00000  Uiso   1.00
H487   H     0.37402   0.77738   0.54105   0.00000  Uiso   1.00
H488   H     0.49332   0.87462   0.90591   0.00000  Uiso   1.00
H489   H     0.51297   0.54425   0.64534   0.00000  Uiso   1.00
H490   H     0.32820   0.82217   0.39361   0.00000  Uiso   1.00
H491   H     0.58964   0.79645   0.52179   0.00000  Uiso   1.00
H492   H     0.61691   0.85843   0.64021   0.00000  Uiso   1.00
H493   H     0.62623   0.70175   0.51665   0.00000  Uiso   1.00
H494   H     0.53861   0.83354   0.39727   0.00000  Uiso   1.00
H495   H     0.62691   0.92021   0.78921   0.00000  Uiso   1.00
H496   H     0.64656   0.58984   0.52864   0.00000  Uiso   1.00
H497   H     0.46180   0.86775   0.27691   0.00000  Uiso   1.00
O498   O     0.57525   0.93721   0.92794   0.00000  Uiso   1.00
O499   O     0.60102   0.50378   0.58606   0.00000  Uiso   1.00
O500   O     0.35862   0.86840   0.25581   0.00000  Uiso   1.00
N501   N     0.52101   0.87685   0.86218   0.00000  Uiso   1.00
N502   N     0.53939   0.56798   0.61858   0.00000  Uiso   1.00
N503   N     0.36665   0.82779   0.38322   0.00000  Uiso   1.00
N504   N     0.59290   0.90138   0.79939   0.00000  Uiso   1.00
N505   N     0.61127   0.59251   0.55578   0.00000  Uiso   1.00
N506   N     0.43853   0.85232   0.32043   0.00000  Uiso   1.00
C507   C     0.23307   0.92924   0.44644   0.00000  Uiso   1.00
C508   C     0.19337   0.96065   0.49611   0.00000  Uiso   1.00
C509   C     0.17345   0.94670   0.57218   0.00000  Uiso   1.00
C510   C     0.13752   0.98071   0.60758   0.00000  Uiso   1.00
C511   C     0.07824   0.02245   0.69071   0.00000  Uiso   1.00
C512   C     0.27885   0.96621   0.43017   0.00000  Uiso   1.00
C513   C     0.33079   0.95695   0.45079   0.00000  Uiso   1.00
C514   C     0.36681   0.99564   0.43066   0.00000  Uiso   1.00
C515   C     0.44025   0.04601   0.41136   0.00000  Uiso   1.00
C516   C     0.20753   0.91924   0.36341   0.00000  Uiso   1.00
C517   C     0.19952   0.87048   0.32789   0.00000  Uiso   1.00
C518   C     0.17551   0.86963   0.25155   0.00000  Uiso   1.00
C519   C     0.13822   0.84707   0.12860   0.00000  Uiso   1.00
C520   C     0.20467   0.01444   0.37403   0.00000  Uiso   1.00
C521   C     0.17795   0.00692   0.45678   0.00000  Uiso   1.00
C522   C     0.14204   0.04096   0.49207   0.00000  Uiso   1.00
C523   C     0.12206   0.02707   0.56817   0.00000  Uiso   1.00
C524   C     0.26343   0.01249   0.39084   0.00000  Uiso   1.00
C525   C     0.29938   0.05121   0.37067   0.00000  Uiso   1.00
C526   C     0.35136   0.04200   0.39126   0.00000  Uiso   1.00
C527   C     0.19211   0.96552   0.32408   0.00000  Uiso   1.00
C528   C     0.16811   0.96474   0.24778   0.00000  Uiso   1.00
C529   C     0.16006   0.91599   0.21215   0.00000  Uiso   1.00
H530   H     0.24508   0.89321   0.47706   0.00000  Uiso   1.00
H531   H     0.18540   0.91089   0.60260   0.00000  Uiso   1.00
H532   H     0.34271   0.92113   0.48122   0.00000  Uiso   1.00
H533   H     0.21146   0.83468   0.35834   0.00000  Uiso   1.00
H534   H     0.11245   0.95090   0.72446   0.00000  Uiso   1.00
H535   H     0.44416   0.97249   0.46849   0.00000  Uiso   1.00
H536   H     0.16739   0.79019   0.20938   0.00000  Uiso   1.00
H537   H     0.19267   0.05047   0.34341   0.00000  Uiso   1.00
H538   H     0.13011   0.07677   0.46162   0.00000  Uiso   1.00
H539   H     0.28743   0.08701   0.34023   0.00000  Uiso   1.00
H540   H     0.15618   0.00056   0.21736   0.00000  Uiso   1.00
H541   H     0.06757   0.08554   0.61003   0.00000  Uiso   1.00
H542   H     0.39929   0.10713   0.35406   0.00000  Uiso   1.00
H543   H     0.12252   0.92483   0.09495   0.00000  Uiso   1.00
O544   O     0.04982   0.03270   0.74743   0.00000  Uiso   1.00
O545   O     0.48501   0.06101   0.41159   0.00000  Uiso   1.00
O546   O     0.12190   0.82184   0.07166   0.00000  Uiso   1.00
N547   N     0.11046   0.97897   0.68130   0.00000  Uiso   1.00
N548   N     0.42060   0.99916   0.44199   0.00000  Uiso   1.00
N549   N     0.16185   0.82873   0.19974   0.00000  Uiso   1.00
N550   N     0.08632   0.05142   0.61972   0.00000  Uiso   1.00
N551   N     0.39645   0.07161   0.38042   0.00000  Uiso   1.00
N552   N     0.13771   0.90117   0.13817   0.00000  Uiso   1.00
C553   C     0.03065   0.74459   0.12687   0.00000  Uiso   1.00
C554   C     0.99885   0.70512   0.17637   0.00000  Uiso   1.00
C555   C     0.01215   0.68560   0.25297   0.00000  Uiso   1.00
C556   C     0.97787   0.64982   0.28810   0.00000  Uiso   1.00
C557   C     0.93546   0.59094   0.37108   0.00000  Uiso   1.00
C558   C     0.99378   0.79025   0.10924   0.00000  Uiso   1.00
C559   C     0.00283   0.84231   0.12940   0.00000  Uiso   1.00
C560   C     0.96427   0.87818   0.10800   0.00000  Uiso   1.00
C561   C     0.91401   0.95147   0.08671   0.00000  Uiso   1.00
C562   C     0.04139   0.71864   0.04439   0.00000  Uiso   1.00
C563   C     0.09046   0.71049   0.01000   0.00000  Uiso   1.00
C564   C     0.09199   0.68609   0.93399   0.00000  Uiso   1.00
C565   C     0.11565   0.64819   0.81200   0.00000  Uiso   1.00
C566   C     0.94611   0.71574   0.05302   0.00000  Uiso   1.00
C567   C     0.95293   0.68945   0.13625   0.00000  Uiso   1.00
C568   C     0.91862   0.65369   0.17127   0.00000  Uiso   1.00
C569   C     0.93187   0.63412   0.24791   0.00000  Uiso   1.00
C570   C     0.94786   0.77458   0.06913   0.00000  Uiso   1.00
C571   C     0.90929   0.81039   0.04769   0.00000  Uiso   1.00
C572   C     0.91827   0.86249   0.06782   0.00000  Uiso   1.00
C573   C     0.99547   0.70297   0.00427   0.00000  Uiso   1.00
C574   C     0.99693   0.67858   0.92830   0.00000  Uiso   1.00
C575   C     0.04599   0.67040   0.89380   0.00000  Uiso   1.00
H576   H     0.06640   0.75679   0.15809   0.00000  Uiso   1.00
H577   H     0.04769   0.69774   0.28400   0.00000  Uiso   1.00
H578   H     0.03836   0.85442   0.16043   0.00000  Uiso   1.00
H579   H     0.12598   0.72262   0.04105   0.00000  Uiso   1.00
H580   H     0.00668   0.62538   0.40591   0.00000  Uiso   1.00
H581   H     0.98703   0.95575   0.14534   0.00000  Uiso   1.00
H582   H     0.17180   0.67783   0.89361   0.00000  Uiso   1.00
H583   H     0.91036   0.70355   0.02179   0.00000  Uiso   1.00
H584   H     0.88309   0.64157   0.14021   0.00000  Uiso   1.00
H585   H     0.87377   0.79825   0.01665   0.00000  Uiso   1.00
H586   H     0.96139   0.66646   0.89727   0.00000  Uiso   1.00
H587   H     0.87309   0.57979   0.28921   0.00000  Uiso   1.00
H588   H     0.85344   0.91016   0.02864   0.00000  Uiso   1.00
H589   H     0.03820   0.63225   0.77691   0.00000  Uiso   1.00
O590   O     0.92475   0.56279   0.42794   0.00000  Uiso   1.00
O591   O     0.89898   0.99622   0.08606   0.00000  Uiso   1.00
O592   O     0.14138   0.63160   0.75581   0.00000  Uiso   1.00
N593   N     0.97899   0.62315   0.36218   0.00000  Uiso   1.00
N594   N     0.96061   0.93202   0.11858   0.00000  Uiso   1.00
N595   N     0.13335   0.67221   0.88322   0.00000  Uiso   1.00
N596   N     0.90710   0.59862   0.29939   0.00000  Uiso   1.00
N597   N     0.88873   0.90749   0.05578   0.00000  Uiso   1.00
N598   N     0.06147   0.64768   0.82043   0.00000  Uiso   1.00
C599   C     0.26693   0.57076   0.94644   0.00000  Uiso   1.00
C600   C     0.30663   0.53935   0.99611   0.00000  Uiso   1.00
C601   C     0.32655   0.55330   0.07218   0.00000  Uiso   1.00
C602   C     0.36248   0.51929   0.10758   0.00000  Uiso   1.00
C603   C     0.42176   0.47755   0.19071   0.00000  Uiso   1.00
C604   C     0.22115   0.53379   0.93017   0.00000  Uiso   1.00
C605   C     0.16921   0.54305   0.95079   0.00000  Uiso   1.00
C606   C     0.13319   0.50436   0.93066   0.00000  Uiso   1.00
C607   C     0.05975   0.45399   0.91136   0.00000  Uiso   1.00
C608   C     0.29247   0.58076   0.86341   0.00000  Uiso   1.00
C609   C     0.30048   0.62952   0.82789   0.00000  Uiso   1.00
C610   C     0.32449   0.63037   0.75155   0.00000  Uiso   1.00
C611   C     0.36178   0.65293   0.62860   0.00000  Uiso   1.00
C612   C     0.29533   0.48556   0.87403   0.00000  Uiso   1.00
C613   C     0.32205   0.49308   0.95678   0.00000  Uiso   1.00
C614   C     0.35796   0.45904   0.99207   0.00000  Uiso   1.00
C615   C     0.37794   0.47293   0.06817   0.00000  Uiso   1.00
C616   C     0.23657   0.48751   0.89084   0.00000  Uiso   1.00
C617   C     0.20062   0.44879   0.87067   0.00000  Uiso   1.00
C618   C     0.14864   0.45800   0.89126   0.00000  Uiso   1.00
C619   C     0.30789   0.53448   0.82408   0.00000  Uiso   1.00
C620   C     0.33189   0.53526   0.74778   0.00000  Uiso   1.00
C621   C     0.33994   0.58401   0.71215   0.00000  Uiso   1.00
H622   H     0.25492   0.60679   0.97706   0.00000  Uiso   1.00
H623   H     0.31460   0.58911   0.10260   0.00000  Uiso   1.00
H624   H     0.15729   0.57887   0.98122   0.00000  Uiso   1.00
H625   H     0.28854   0.66532   0.85834   0.00000  Uiso   1.00
H626   H     0.38755   0.54910   0.22446   0.00000  Uiso   1.00
H627   H     0.05584   0.52751   0.96849   0.00000  Uiso   1.00
H628   H     0.33261   0.70981   0.70938   0.00000  Uiso   1.00
H629   H     0.30733   0.44953   0.84341   0.00000  Uiso   1.00
H630   H     0.36989   0.42323   0.96162   0.00000  Uiso   1.00
H631   H     0.21257   0.41299   0.84023   0.00000  Uiso   1.00
H632   H     0.34382   0.49944   0.71736   0.00000  Uiso   1.00
H633   H     0.43243   0.41446   0.11003   0.00000  Uiso   1.00
H634   H     0.10071   0.39287   0.85406   0.00000  Uiso   1.00
H635   H     0.37748   0.57517   0.59495   0.00000  Uiso   1.00
O636   O     0.45018   0.46730   0.24743   0.00000  Uiso   1.00
O637   O     0.01499   0.43899   0.91159   0.00000  Uiso   1.00
O638   O     0.37810   0.67816   0.57166   0.00000  Uiso   1.00
N639   N     0.38954   0.52103   0.18130   0.00000  Uiso   1.00
N640   N     0.07940   0.50084   0.94199   0.00000  Uiso   1.00
N641   N     0.33815   0.67127   0.69974   0.00000  Uiso   1.00
N642   N     0.41368   0.44858   0.11972   0.00000  Uiso   1.00
N643   N     0.10355   0.42839   0.88042   0.00000  Uiso   1.00
N644   N     0.36229   0.59883   0.63817   0.00000  Uiso   1.00
C645   C     0.53065   0.24459   0.62687   0.00000  Uiso   1.00
C646   C     0.49885   0.20512   0.67637   0.00000  Uiso   1.00
C647   C     0.51215   0.18560   0.75297   0.00000  Uiso   1.00
C648   C     0.47787   0.14982   0.78810   0.00000  Uiso   1.00
C649   C     0.43546   0.09094   0.87108   0.00000  Uiso   1.00
C650   C     0.49378   0.29025   0.60924   0.00000  Uiso   1.00
C651   C     0.50283   0.34231   0.62940   0.00000  Uiso   1.00
C652   C     0.46427   0.37818   0.60800   0.00000  Uiso   1.00
C653   C     0.41401   0.45147   0.58671   0.00000  Uiso   1.00
C654   C     0.54139   0.21864   0.54439   0.00000  Uiso   1.00
C655   C     0.59046   0.21049   0.51000   0.00000  Uiso   1.00
C656   C     0.59199   0.18609   0.43399   0.00000  Uiso   1.00
C657   C     0.61565   0.14819   0.31200   0.00000  Uiso   1.00
C658   C     0.44611   0.21574   0.55302   0.00000  Uiso   1.00
C659   C     0.45293   0.18945   0.63625   0.00000  Uiso   1.00
C660   C     0.41862   0.15369   0.67127   0.00000  Uiso   1.00
C661   C     0.43187   0.13412   0.74791   0.00000  Uiso   1.00
C662   C     0.44786   0.27458   0.56913   0.00000  Uiso   1.00
C663   C     0.40929   0.31039   0.54769   0.00000  Uiso   1.00
C664   C     0.41827   0.36249   0.56782   0.00000  Uiso   1.00
C665   C     0.49547   0.20297   0.50427   0.00000  Uiso   1.00
C666   C     0.49693   0.17858   0.42830   0.00000  Uiso   1.00
C667   C     0.54599   0.17040   0.39380   0.00000  Uiso   1.00
H668   H     0.56640   0.25679   0.65809   0.00000  Uiso   1.00
H669   H     0.54769   0.19774   0.78400   0.00000  Uiso   1.00
H670   H     0.53836   0.35442   0.66043   0.00000  Uiso   1.00
H671   H     0.62598   0.22262   0.54105   0.00000  Uiso   1.00
H672   H     0.50668   0.12538   0.90591   0.00000  Uiso   1.00
H673   H     0.48703   0.45575   0.64534   0.00000  Uiso   1.00
H674   H     0.67180   0.17783   0.39361   0.00000  Uiso   1.00
H675   H     0.41036   0.20355   0.52179   0.00000  Uiso   1.00
H676   H     0.38309   0.14157   0.64021   0.00000  Uiso   1.00
H677   H     0.37377   0.29825   0.51665   0.00000  Uiso   1.00
H678   H     0.46139   0.16646   0.39727   0.00000  Uiso   1.00
H679   H     0.37309   0.07979   0.78921   0.00000  Uiso   1.00
H680   H     0.35344   0.41016   0.52864   0.00000  Uiso   1.00
H681   H     0.53820   0.13225   0.27691   0.00000  Uiso   1.00
O682   O     0.42475   0.06279   0.92794   0.00000  Uiso   1.00
O683   O     0.39898   0.49622   0.58606   0.00000  Uiso   1.00
O684   O     0.64138   0.13160   0.25581   0.00000  Uiso   1.00
N685   N     0.47899   0.12315   0.86218   0.00000  Uiso   1.00
N686   N     0.46061   0.43202   0.61858   0.00000  Uiso   1.00
N687   N     0.63335   0.17221   0.38322   0.00000  Uiso   1.00
N688   N     0.40710   0.09862   0.79939   0.00000  Uiso   1.00
N689   N     0.38873   0.40749   0.55578   0.00000  Uiso   1.00
N690   N     0.56147   0.14768   0.32043   0.00000  Uiso   1.00
C691   C     0.76693   0.07076   0.44644   0.00000  Uiso   1.00
C692   C     0.80663   0.03935   0.49611   0.00000  Uiso   1.00
C693   C     0.82655   0.05330   0.57218   0.00000  Uiso   1.00
C694   C     0.86248   0.01929   0.60758   0.00000  Uiso   1.00
C695   C     0.92176   0.97755   0.69071   0.00000  Uiso   1.00
C696   C     0.72115   0.03379   0.43017   0.00000  Uiso   1.00
C697   C     0.66921   0.04305   0.45079   0.00000  Uiso   1.00
C698   C     0.63319   0.00436   0.43066   0.00000  Uiso   1.00
C699   C     0.55975   0.95399   0.41136   0.00000  Uiso   1.00
C700   C     0.79247   0.08076   0.36341   0.00000  Uiso   1.00
C701   C     0.80048   0.12952   0.32789   0.00000  Uiso   1.00
C702   C     0.82449   0.13037   0.25155   0.00000  Uiso   1.00
C703   C     0.86178   0.15293   0.12860   0.00000  Uiso   1.00
C704   C     0.79533   0.98556   0.37403   0.00000  Uiso   1.00
C705   C     0.82205   0.99308   0.45678   0.00000  Uiso   1.00
C706   C     0.85796   0.95904   0.49207   0.00000  Uiso   1.00
C707   C     0.87794   0.97293   0.56817   0.00000  Uiso   1.00
C708   C     0.73657   0.98751   0.39084   0.00000  Uiso   1.00
C709   C     0.70062   0.94879   0.37067   0.00000  Uiso   1.00
C710   C     0.64864   0.95800   0.39126   0.00000  Uiso   1.00
C711   C     0.80789   0.03448   0.32408   0.00000  Uiso   1.00
C712   C     0.83189   0.03526   0.24778   0.00000  Uiso   1.00
C713   C     0.83994   0.08401   0.21215   0.00000  Uiso   1.00
H714   H     0.75492   0.10679   0.47706   0.00000  Uiso   1.00
H715   H     0.81460   0.08911   0.60260   0.00000  Uiso   1.00
H716   H     0.65729   0.07887   0.48122   0.00000  Uiso   1.00
H717   H     0.78854   0.16532   0.35834   0.00000  Uiso   1.00
H718   H     0.88755   0.04910   0.72446   0.00000  Uiso   1.00
H719   H     0.55584   0.02751   0.46849   0.00000  Uiso   1.00
H720   H     0.83261   0.20981   0.20938   0.00000  Uiso   1.00
H721   H     0.80733   0.94953   0.34341   0.00000  Uiso   1.00
H722   H     0.86989   0.92323   0.46162   0.00000  Uiso   1.00
H723   H     0.71257   0.91299   0.34023   0.00000  Uiso   1.00
H724   H     0.84382   0.99944   0.21736   0.00000  Uiso   1.00
H725   H     0.93243   0.91446   0.61003   0.00000  Uiso   1.00
H726   H     0.60071   0.89287   0.35406   0.00000  Uiso   1.00
H727   H     0.87748   0.07517   0.09495   0.00000  Uiso   1.00
O728   O     0.95018   0.96730   0.74743   0.00000  Uiso   1.00
O729   O     0.51499   0.93899   0.41159   0.00000  Uiso   1.00
O730   O     0.87810   0.17816   0.07166   0.00000  Uiso   1.00
N731   N     0.88954   0.02103   0.68130   0.00000  Uiso   1.00
N732   N     0.57940   0.00084   0.44199   0.00000  Uiso   1.00
N733   N     0.83815   0.17127   0.19974   0.00000  Uiso   1.00
N734   N     0.91368   0.94858   0.61972   0.00000  Uiso   1.00
N735   N     0.60355   0.92839   0.38042   0.00000  Uiso   1.00
N736   N     0.86229   0.09883   0.13817   0.00000  Uiso   1.00
