data_job_03058
_audit_creation_date              2018-12-19
_audit_creation_method            'Materials Studio'
_symmetry_space_group_name_H-M    'P1'
_symmetry_Int_Tables_number       1
_symmetry_cell_setting            triclinic
loop_
_symmetry_equiv_pos_as_xyz
  x,y,z
_cell_length_a                    31.0544
_cell_length_b                    31.0544
_cell_length_c                    12.3485
_cell_angle_alpha                 90.0000
_cell_angle_beta                  90.0000
_cell_angle_gamma                 90.0000
loop_
_atom_site_label
_atom_site_type_symbol
_atom_site_fract_x
_atom_site_fract_y
_atom_site_fract_z
_atom_site_U_iso_or_equiv
_atom_site_adp_type
_atom_site_occupancy
C1     C     0.04947   0.32897   0.81553   0.00000  Uiso   1.00
C2     C     0.00186   0.32016   0.79503   0.00000  Uiso   1.00
C3     C     0.98150   0.28063   0.80620   0.00000  Uiso   1.00
C4     C     0.93773   0.27923   0.78359   0.00000  Uiso   1.00
C5     C     0.86723   0.25994   0.75667   0.00000  Uiso   1.00
C6     C     0.06701   0.34829   0.71091   0.00000  Uiso   1.00
C7     C     0.10143   0.33242   0.65137   0.00000  Uiso   1.00
C8     C     0.11250   0.35470   0.55796   0.00000  Uiso   1.00
C9     C     0.14317   0.37910   0.40049   0.00000  Uiso   1.00
C10    C     0.05110   0.36494   0.89950   0.00000  Uiso   1.00
C11    C     0.07214   0.36306   0.99854   0.00000  Uiso   1.00
C12    C     0.06983   0.39937   0.06390   0.00000  Uiso   1.00
C13    C     0.07579   0.44962   0.19925   0.00000  Uiso   1.00
C14    C     0.00794   0.39679   0.75550   0.00000  Uiso   1.00
C15    C     0.97930   0.35700   0.76242   0.00000  Uiso   1.00
C16    C     0.93555   0.35566   0.73979   0.00000  Uiso   1.00
C17    C     0.91513   0.31613   0.75094   0.00000  Uiso   1.00
C18    C     0.04445   0.38513   0.67830   0.00000  Uiso   1.00
C19    C     0.05548   0.40744   0.58496   0.00000  Uiso   1.00
C20    C     0.08991   0.39160   0.52530   0.00000  Uiso   1.00
C21    C     0.02854   0.40177   0.86691   0.00000  Uiso   1.00
C22    C     0.02619   0.43809   0.93213   0.00000  Uiso   1.00
C23    C     0.04723   0.43627   0.03124   0.00000  Uiso   1.00
H24    H     0.06704   0.30030   0.84091   0.00000  Uiso   1.00
H25    H     0.99897   0.25213   0.83143   0.00000  Uiso   1.00
H26    H     0.11888   0.30391   0.67663   0.00000  Uiso   1.00
H27    H     0.08960   0.33456   0.02374   0.00000  Uiso   1.00
H28    H     0.91355   0.21497   0.80650   0.00000  Uiso   1.00
H29    H     0.16641   0.32416   0.48012   0.00000  Uiso   1.00
H30    H     0.10466   0.38878   0.21207   0.00000  Uiso   1.00
H31    H     0.99038   0.42547   0.73012   0.00000  Uiso   1.00
H32    H     0.91810   0.38417   0.71456   0.00000  Uiso   1.00
H33    H     0.03802   0.43595   0.55976   0.00000  Uiso   1.00
H34    H     0.00873   0.46659   0.90687   0.00000  Uiso   1.00
H35    H     0.84792   0.32214   0.71165   0.00000  Uiso   1.00
H36    H     0.10078   0.43133   0.38527   0.00000  Uiso   1.00
H37    H     0.03903   0.49594   0.11721   0.00000  Uiso   1.00
O38    O     0.83457   0.23913   0.75080   0.00000  Uiso   1.00
O39    O     0.16632   0.38238   0.32262   0.00000  Uiso   1.00
O40    O     0.08530   0.46715   0.28291   0.00000  Uiso   1.00
N41    N     0.90802   0.24586   0.78633   0.00000  Uiso   1.00
N42    N     0.14443   0.34794   0.48118   0.00000  Uiso   1.00
N43    N     0.08670   0.40836   0.16547   0.00000  Uiso   1.00
N44    N     0.87271   0.30353   0.73529   0.00000  Uiso   1.00
N45    N     0.10911   0.40561   0.43014   0.00000  Uiso   1.00
N46    N     0.05139   0.46602   0.11443   0.00000  Uiso   1.00
C47    C     0.54947   0.82897   0.31553   0.00000  Uiso   1.00
C48    C     0.50186   0.82016   0.29503   0.00000  Uiso   1.00
C49    C     0.48150   0.78063   0.30620   0.00000  Uiso   1.00
C50    C     0.43773   0.77923   0.28359   0.00000  Uiso   1.00
C51    C     0.36723   0.75994   0.25667   0.00000  Uiso   1.00
C52    C     0.56701   0.84829   0.21091   0.00000  Uiso   1.00
C53    C     0.60143   0.83242   0.15137   0.00000  Uiso   1.00
C54    C     0.61250   0.85470   0.05796   0.00000  Uiso   1.00
C55    C     0.64317   0.87910   0.90049   0.00000  Uiso   1.00
C56    C     0.55110   0.86494   0.39950   0.00000  Uiso   1.00
C57    C     0.57214   0.86306   0.49854   0.00000  Uiso   1.00
C58    C     0.56983   0.89937   0.56390   0.00000  Uiso   1.00
C59    C     0.57579   0.94962   0.69925   0.00000  Uiso   1.00
C60    C     0.50794   0.89679   0.25550   0.00000  Uiso   1.00
C61    C     0.47930   0.85700   0.26242   0.00000  Uiso   1.00
C62    C     0.43555   0.85566   0.23979   0.00000  Uiso   1.00
C63    C     0.41513   0.81613   0.25094   0.00000  Uiso   1.00
C64    C     0.54445   0.88513   0.17830   0.00000  Uiso   1.00
C65    C     0.55548   0.90744   0.08496   0.00000  Uiso   1.00
C66    C     0.58991   0.89160   0.02530   0.00000  Uiso   1.00
C67    C     0.52854   0.90177   0.36691   0.00000  Uiso   1.00
C68    C     0.52619   0.93809   0.43213   0.00000  Uiso   1.00
C69    C     0.54723   0.93627   0.53124   0.00000  Uiso   1.00
H70    H     0.56704   0.80030   0.34091   0.00000  Uiso   1.00
H71    H     0.49897   0.75213   0.33143   0.00000  Uiso   1.00
H72    H     0.61888   0.80391   0.17663   0.00000  Uiso   1.00
H73    H     0.58960   0.83456   0.52374   0.00000  Uiso   1.00
H74    H     0.41355   0.71497   0.30650   0.00000  Uiso   1.00
H75    H     0.66641   0.82416   0.98012   0.00000  Uiso   1.00
H76    H     0.60466   0.88878   0.71207   0.00000  Uiso   1.00
H77    H     0.49038   0.92547   0.23012   0.00000  Uiso   1.00
H78    H     0.41810   0.88417   0.21456   0.00000  Uiso   1.00
H79    H     0.53802   0.93595   0.05976   0.00000  Uiso   1.00
H80    H     0.50873   0.96659   0.40687   0.00000  Uiso   1.00
H81    H     0.34792   0.82214   0.21165   0.00000  Uiso   1.00
H82    H     0.60078   0.93133   0.88527   0.00000  Uiso   1.00
H83    H     0.53903   0.99594   0.61721   0.00000  Uiso   1.00
O84    O     0.33457   0.73913   0.25080   0.00000  Uiso   1.00
O85    O     0.66632   0.88238   0.82262   0.00000  Uiso   1.00
O86    O     0.58530   0.96715   0.78291   0.00000  Uiso   1.00
N87    N     0.40802   0.74586   0.28633   0.00000  Uiso   1.00
N88    N     0.64443   0.84794   0.98118   0.00000  Uiso   1.00
N89    N     0.58670   0.90836   0.66547   0.00000  Uiso   1.00
N90    N     0.37271   0.80353   0.23529   0.00000  Uiso   1.00
N91    N     0.60911   0.90561   0.93014   0.00000  Uiso   1.00
N92    N     0.55139   0.96602   0.61443   0.00000  Uiso   1.00
C93    C     0.45053   0.17103   0.31553   0.00000  Uiso   1.00
C94    C     0.49814   0.17984   0.29503   0.00000  Uiso   1.00
C95    C     0.51850   0.21937   0.30620   0.00000  Uiso   1.00
C96    C     0.56227   0.22077   0.28359   0.00000  Uiso   1.00
C97    C     0.63277   0.24006   0.25667   0.00000  Uiso   1.00
C98    C     0.43299   0.15171   0.21091   0.00000  Uiso   1.00
C99    C     0.39857   0.16758   0.15137   0.00000  Uiso   1.00
C100   C     0.38750   0.14530   0.05796   0.00000  Uiso   1.00
C101   C     0.35683   0.12090   0.90049   0.00000  Uiso   1.00
C102   C     0.44890   0.13506   0.39950   0.00000  Uiso   1.00
C103   C     0.42786   0.13694   0.49854   0.00000  Uiso   1.00
C104   C     0.43017   0.10063   0.56390   0.00000  Uiso   1.00
C105   C     0.42421   0.05038   0.69925   0.00000  Uiso   1.00
C106   C     0.49206   0.10321   0.25550   0.00000  Uiso   1.00
C107   C     0.52070   0.14300   0.26242   0.00000  Uiso   1.00
C108   C     0.56445   0.14434   0.23979   0.00000  Uiso   1.00
C109   C     0.58487   0.18387   0.25094   0.00000  Uiso   1.00
C110   C     0.45555   0.11487   0.17830   0.00000  Uiso   1.00
C111   C     0.44452   0.09256   0.08496   0.00000  Uiso   1.00
C112   C     0.41009   0.10840   0.02530   0.00000  Uiso   1.00
C113   C     0.47146   0.09823   0.36691   0.00000  Uiso   1.00
C114   C     0.47381   0.06191   0.43213   0.00000  Uiso   1.00
C115   C     0.45277   0.06373   0.53124   0.00000  Uiso   1.00
H116   H     0.43296   0.19970   0.34091   0.00000  Uiso   1.00
H117   H     0.50103   0.24787   0.33143   0.00000  Uiso   1.00
H118   H     0.38112   0.19609   0.17663   0.00000  Uiso   1.00
H119   H     0.41040   0.16544   0.52374   0.00000  Uiso   1.00
H120   H     0.58645   0.28503   0.30650   0.00000  Uiso   1.00
H121   H     0.33359   0.17584   0.98012   0.00000  Uiso   1.00
H122   H     0.39534   0.11122   0.71207   0.00000  Uiso   1.00
H123   H     0.50962   0.07453   0.23012   0.00000  Uiso   1.00
H124   H     0.58190   0.11583   0.21456   0.00000  Uiso   1.00
H125   H     0.46198   0.06405   0.05976   0.00000  Uiso   1.00
H126   H     0.49127   0.03341   0.40687   0.00000  Uiso   1.00
H127   H     0.65208   0.17786   0.21165   0.00000  Uiso   1.00
H128   H     0.39922   0.06867   0.88527   0.00000  Uiso   1.00
H129   H     0.46097   0.00406   0.61721   0.00000  Uiso   1.00
O130   O     0.66543   0.26087   0.25080   0.00000  Uiso   1.00
O131   O     0.33368   0.11762   0.82262   0.00000  Uiso   1.00
O132   O     0.41470   0.03285   0.78291   0.00000  Uiso   1.00
N133   N     0.59198   0.25414   0.28633   0.00000  Uiso   1.00
N134   N     0.35557   0.15206   0.98118   0.00000  Uiso   1.00
N135   N     0.41330   0.09164   0.66547   0.00000  Uiso   1.00
N136   N     0.62729   0.19647   0.23529   0.00000  Uiso   1.00
N137   N     0.39089   0.09439   0.93014   0.00000  Uiso   1.00
N138   N     0.44861   0.03398   0.61443   0.00000  Uiso   1.00
C139   C     0.95053   0.67103   0.81553   0.00000  Uiso   1.00
C140   C     0.99814   0.67984   0.79503   0.00000  Uiso   1.00
C141   C     0.01850   0.71937   0.80620   0.00000  Uiso   1.00
C142   C     0.06227   0.72077   0.78359   0.00000  Uiso   1.00
C143   C     0.13277   0.74006   0.75667   0.00000  Uiso   1.00
C144   C     0.93299   0.65171   0.71091   0.00000  Uiso   1.00
C145   C     0.89857   0.66758   0.65137   0.00000  Uiso   1.00
C146   C     0.88750   0.64530   0.55796   0.00000  Uiso   1.00
C147   C     0.85683   0.62090   0.40049   0.00000  Uiso   1.00
C148   C     0.94890   0.63506   0.89950   0.00000  Uiso   1.00
C149   C     0.92786   0.63694   0.99854   0.00000  Uiso   1.00
C150   C     0.93017   0.60063   0.06390   0.00000  Uiso   1.00
C151   C     0.92421   0.55038   0.19925   0.00000  Uiso   1.00
C152   C     0.99206   0.60321   0.75550   0.00000  Uiso   1.00
C153   C     0.02070   0.64300   0.76242   0.00000  Uiso   1.00
C154   C     0.06445   0.64434   0.73979   0.00000  Uiso   1.00
C155   C     0.08487   0.68387   0.75094   0.00000  Uiso   1.00
C156   C     0.95555   0.61487   0.67830   0.00000  Uiso   1.00
C157   C     0.94452   0.59256   0.58496   0.00000  Uiso   1.00
C158   C     0.91009   0.60840   0.52530   0.00000  Uiso   1.00
C159   C     0.97146   0.59823   0.86691   0.00000  Uiso   1.00
C160   C     0.97381   0.56191   0.93213   0.00000  Uiso   1.00
C161   C     0.95277   0.56373   0.03124   0.00000  Uiso   1.00
H162   H     0.93296   0.69970   0.84091   0.00000  Uiso   1.00
H163   H     0.00103   0.74787   0.83143   0.00000  Uiso   1.00
H164   H     0.88112   0.69609   0.67663   0.00000  Uiso   1.00
H165   H     0.91040   0.66544   0.02374   0.00000  Uiso   1.00
H166   H     0.08645   0.78503   0.80650   0.00000  Uiso   1.00
H167   H     0.83359   0.67584   0.48012   0.00000  Uiso   1.00
H168   H     0.89534   0.61122   0.21207   0.00000  Uiso   1.00
H169   H     0.00962   0.57453   0.73012   0.00000  Uiso   1.00
H170   H     0.08190   0.61583   0.71456   0.00000  Uiso   1.00
H171   H     0.96198   0.56405   0.55976   0.00000  Uiso   1.00
H172   H     0.99127   0.53341   0.90687   0.00000  Uiso   1.00
H173   H     0.15208   0.67786   0.71165   0.00000  Uiso   1.00
H174   H     0.89922   0.56867   0.38527   0.00000  Uiso   1.00
H175   H     0.96097   0.50406   0.11721   0.00000  Uiso   1.00
O176   O     0.16543   0.76087   0.75080   0.00000  Uiso   1.00
O177   O     0.83368   0.61762   0.32262   0.00000  Uiso   1.00
O178   O     0.91470   0.53285   0.28291   0.00000  Uiso   1.00
N179   N     0.09198   0.75414   0.78633   0.00000  Uiso   1.00
N180   N     0.85557   0.65206   0.48118   0.00000  Uiso   1.00
N181   N     0.91330   0.59164   0.16547   0.00000  Uiso   1.00
N182   N     0.12729   0.69647   0.73529   0.00000  Uiso   1.00
N183   N     0.89089   0.59439   0.43014   0.00000  Uiso   1.00
N184   N     0.94861   0.53398   0.11443   0.00000  Uiso   1.00
C185   C     0.67103   0.54947   0.06553   0.00000  Uiso   1.00
C186   C     0.67984   0.50186   0.04503   0.00000  Uiso   1.00
C187   C     0.71937   0.48150   0.05620   0.00000  Uiso   1.00
C188   C     0.72077   0.43773   0.03359   0.00000  Uiso   1.00
C189   C     0.74006   0.36723   0.00667   0.00000  Uiso   1.00
C190   C     0.65171   0.56701   0.96091   0.00000  Uiso   1.00
C191   C     0.66758   0.60143   0.90137   0.00000  Uiso   1.00
C192   C     0.64530   0.61250   0.80796   0.00000  Uiso   1.00
C193   C     0.62090   0.64317   0.65049   0.00000  Uiso   1.00
C194   C     0.63506   0.55110   0.14950   0.00000  Uiso   1.00
C195   C     0.63694   0.57214   0.24854   0.00000  Uiso   1.00
C196   C     0.60063   0.56983   0.31390   0.00000  Uiso   1.00
C197   C     0.55038   0.57579   0.44925   0.00000  Uiso   1.00
C198   C     0.60321   0.50794   0.00550   0.00000  Uiso   1.00
C199   C     0.64300   0.47930   0.01242   0.00000  Uiso   1.00
C200   C     0.64434   0.43555   0.98979   0.00000  Uiso   1.00
C201   C     0.68387   0.41513   0.00094   0.00000  Uiso   1.00
C202   C     0.61487   0.54445   0.92830   0.00000  Uiso   1.00
C203   C     0.59256   0.55548   0.83496   0.00000  Uiso   1.00
C204   C     0.60840   0.58991   0.77530   0.00000  Uiso   1.00
C205   C     0.59823   0.52854   0.11691   0.00000  Uiso   1.00
C206   C     0.56191   0.52619   0.18213   0.00000  Uiso   1.00
C207   C     0.56373   0.54723   0.28124   0.00000  Uiso   1.00
H208   H     0.69970   0.56704   0.09091   0.00000  Uiso   1.00
H209   H     0.74787   0.49897   0.08143   0.00000  Uiso   1.00
H210   H     0.69609   0.61888   0.92663   0.00000  Uiso   1.00
H211   H     0.66544   0.58960   0.27374   0.00000  Uiso   1.00
H212   H     0.78503   0.41355   0.05650   0.00000  Uiso   1.00
H213   H     0.67584   0.66641   0.73012   0.00000  Uiso   1.00
H214   H     0.61122   0.60466   0.46207   0.00000  Uiso   1.00
H215   H     0.57453   0.49038   0.98012   0.00000  Uiso   1.00
H216   H     0.61583   0.41810   0.96456   0.00000  Uiso   1.00
H217   H     0.56405   0.53802   0.80976   0.00000  Uiso   1.00
H218   H     0.53341   0.50873   0.15687   0.00000  Uiso   1.00
H219   H     0.67786   0.34792   0.96165   0.00000  Uiso   1.00
H220   H     0.56867   0.60078   0.63527   0.00000  Uiso   1.00
H221   H     0.50406   0.53903   0.36721   0.00000  Uiso   1.00
O222   O     0.76087   0.33457   0.00080   0.00000  Uiso   1.00
O223   O     0.61762   0.66632   0.57262   0.00000  Uiso   1.00
O224   O     0.53285   0.58530   0.53291   0.00000  Uiso   1.00
N225   N     0.75414   0.40802   0.03633   0.00000  Uiso   1.00
N226   N     0.65206   0.64443   0.73118   0.00000  Uiso   1.00
N227   N     0.59164   0.58670   0.41547   0.00000  Uiso   1.00
N228   N     0.69647   0.37271   0.98529   0.00000  Uiso   1.00
N229   N     0.59439   0.60911   0.68014   0.00000  Uiso   1.00
N230   N     0.53398   0.55139   0.36443   0.00000  Uiso   1.00
C231   C     0.17103   0.04947   0.56553   0.00000  Uiso   1.00
C232   C     0.17984   0.00186   0.54503   0.00000  Uiso   1.00
C233   C     0.21937   0.98150   0.55620   0.00000  Uiso   1.00
C234   C     0.22077   0.93773   0.53359   0.00000  Uiso   1.00
C235   C     0.24006   0.86723   0.50667   0.00000  Uiso   1.00
C236   C     0.15171   0.06701   0.46091   0.00000  Uiso   1.00
C237   C     0.16758   0.10143   0.40137   0.00000  Uiso   1.00
C238   C     0.14530   0.11250   0.30796   0.00000  Uiso   1.00
C239   C     0.12090   0.14317   0.15049   0.00000  Uiso   1.00
C240   C     0.13506   0.05110   0.64950   0.00000  Uiso   1.00
C241   C     0.13694   0.07214   0.74854   0.00000  Uiso   1.00
C242   C     0.10063   0.06983   0.81390   0.00000  Uiso   1.00
C243   C     0.05038   0.07579   0.94925   0.00000  Uiso   1.00
C244   C     0.10321   0.00794   0.50550   0.00000  Uiso   1.00
C245   C     0.14300   0.97930   0.51242   0.00000  Uiso   1.00
C246   C     0.14434   0.93555   0.48979   0.00000  Uiso   1.00
C247   C     0.18387   0.91513   0.50094   0.00000  Uiso   1.00
C248   C     0.11487   0.04445   0.42830   0.00000  Uiso   1.00
C249   C     0.09256   0.05548   0.33496   0.00000  Uiso   1.00
C250   C     0.10840   0.08991   0.27530   0.00000  Uiso   1.00
C251   C     0.09823   0.02854   0.61691   0.00000  Uiso   1.00
C252   C     0.06191   0.02619   0.68213   0.00000  Uiso   1.00
C253   C     0.06373   0.04723   0.78124   0.00000  Uiso   1.00
H254   H     0.19970   0.06704   0.59091   0.00000  Uiso   1.00
H255   H     0.24787   0.99897   0.58143   0.00000  Uiso   1.00
H256   H     0.19609   0.11888   0.42663   0.00000  Uiso   1.00
H257   H     0.16544   0.08960   0.77374   0.00000  Uiso   1.00
H258   H     0.28503   0.91355   0.55650   0.00000  Uiso   1.00
H259   H     0.17584   0.16641   0.23012   0.00000  Uiso   1.00
H260   H     0.11122   0.10466   0.96207   0.00000  Uiso   1.00
H261   H     0.07453   0.99038   0.48012   0.00000  Uiso   1.00
H262   H     0.11583   0.91810   0.46456   0.00000  Uiso   1.00
H263   H     0.06405   0.03802   0.30976   0.00000  Uiso   1.00
H264   H     0.03341   0.00873   0.65687   0.00000  Uiso   1.00
H265   H     0.17786   0.84792   0.46165   0.00000  Uiso   1.00
H266   H     0.06867   0.10078   0.13527   0.00000  Uiso   1.00
H267   H     0.00406   0.03903   0.86721   0.00000  Uiso   1.00
O268   O     0.26087   0.83457   0.50080   0.00000  Uiso   1.00
O269   O     0.11762   0.16632   0.07262   0.00000  Uiso   1.00
O270   O     0.03285   0.08530   0.03291   0.00000  Uiso   1.00
N271   N     0.25414   0.90802   0.53633   0.00000  Uiso   1.00
N272   N     0.15206   0.14443   0.23118   0.00000  Uiso   1.00
N273   N     0.09164   0.08670   0.91547   0.00000  Uiso   1.00
N274   N     0.19647   0.87271   0.48529   0.00000  Uiso   1.00
N275   N     0.09439   0.10911   0.18014   0.00000  Uiso   1.00
N276   N     0.03398   0.05139   0.86443   0.00000  Uiso   1.00
C277   C     0.82897   0.95053   0.56553   0.00000  Uiso   1.00
C278   C     0.82016   0.99814   0.54503   0.00000  Uiso   1.00
C279   C     0.78063   0.01850   0.55620   0.00000  Uiso   1.00
C280   C     0.77923   0.06227   0.53359   0.00000  Uiso   1.00
C281   C     0.75994   0.13277   0.50667   0.00000  Uiso   1.00
C282   C     0.84829   0.93299   0.46091   0.00000  Uiso   1.00
C283   C     0.83242   0.89857   0.40137   0.00000  Uiso   1.00
C284   C     0.85470   0.88750   0.30796   0.00000  Uiso   1.00
C285   C     0.87910   0.85683   0.15049   0.00000  Uiso   1.00
C286   C     0.86494   0.94890   0.64950   0.00000  Uiso   1.00
C287   C     0.86306   0.92786   0.74854   0.00000  Uiso   1.00
C288   C     0.89937   0.93017   0.81390   0.00000  Uiso   1.00
C289   C     0.94962   0.92421   0.94925   0.00000  Uiso   1.00
C290   C     0.89679   0.99206   0.50550   0.00000  Uiso   1.00
C291   C     0.85700   0.02070   0.51242   0.00000  Uiso   1.00
C292   C     0.85566   0.06445   0.48979   0.00000  Uiso   1.00
C293   C     0.81613   0.08487   0.50094   0.00000  Uiso   1.00
C294   C     0.88513   0.95555   0.42830   0.00000  Uiso   1.00
C295   C     0.90744   0.94452   0.33496   0.00000  Uiso   1.00
C296   C     0.89160   0.91009   0.27530   0.00000  Uiso   1.00
C297   C     0.90177   0.97146   0.61691   0.00000  Uiso   1.00
C298   C     0.93809   0.97381   0.68213   0.00000  Uiso   1.00
C299   C     0.93627   0.95277   0.78124   0.00000  Uiso   1.00
H300   H     0.80030   0.93296   0.59091   0.00000  Uiso   1.00
H301   H     0.75213   0.00103   0.58143   0.00000  Uiso   1.00
H302   H     0.80391   0.88112   0.42663   0.00000  Uiso   1.00
H303   H     0.83456   0.91040   0.77374   0.00000  Uiso   1.00
H304   H     0.71497   0.08645   0.55650   0.00000  Uiso   1.00
H305   H     0.82416   0.83359   0.23012   0.00000  Uiso   1.00
H306   H     0.88878   0.89534   0.96207   0.00000  Uiso   1.00
H307   H     0.92547   0.00962   0.48012   0.00000  Uiso   1.00
H308   H     0.88417   0.08190   0.46456   0.00000  Uiso   1.00
H309   H     0.93595   0.96198   0.30976   0.00000  Uiso   1.00
H310   H     0.96659   0.99127   0.65687   0.00000  Uiso   1.00
H311   H     0.82214   0.15208   0.46165   0.00000  Uiso   1.00
H312   H     0.93133   0.89922   0.13527   0.00000  Uiso   1.00
H313   H     0.99594   0.96097   0.86721   0.00000  Uiso   1.00
O314   O     0.73913   0.16543   0.50080   0.00000  Uiso   1.00
O315   O     0.88238   0.83368   0.07262   0.00000  Uiso   1.00
O316   O     0.96715   0.91470   0.03291   0.00000  Uiso   1.00
N317   N     0.74586   0.09198   0.53633   0.00000  Uiso   1.00
N318   N     0.84794   0.85557   0.23118   0.00000  Uiso   1.00
N319   N     0.90836   0.91330   0.91547   0.00000  Uiso   1.00
N320   N     0.80353   0.12729   0.48529   0.00000  Uiso   1.00
N321   N     0.90561   0.89089   0.18014   0.00000  Uiso   1.00
N322   N     0.96602   0.94861   0.86443   0.00000  Uiso   1.00
C323   C     0.32897   0.45053   0.06553   0.00000  Uiso   1.00
C324   C     0.32016   0.49814   0.04503   0.00000  Uiso   1.00
C325   C     0.28063   0.51850   0.05620   0.00000  Uiso   1.00
C326   C     0.27923   0.56227   0.03359   0.00000  Uiso   1.00
C327   C     0.25994   0.63277   0.00667   0.00000  Uiso   1.00
C328   C     0.34829   0.43299   0.96091   0.00000  Uiso   1.00
C329   C     0.33242   0.39857   0.90137   0.00000  Uiso   1.00
C330   C     0.35470   0.38750   0.80796   0.00000  Uiso   1.00
C331   C     0.37910   0.35683   0.65049   0.00000  Uiso   1.00
C332   C     0.36494   0.44890   0.14950   0.00000  Uiso   1.00
C333   C     0.36306   0.42786   0.24854   0.00000  Uiso   1.00
C334   C     0.39937   0.43017   0.31390   0.00000  Uiso   1.00
C335   C     0.44962   0.42421   0.44925   0.00000  Uiso   1.00
C336   C     0.39679   0.49206   0.00550   0.00000  Uiso   1.00
C337   C     0.35700   0.52070   0.01242   0.00000  Uiso   1.00
C338   C     0.35566   0.56445   0.98979   0.00000  Uiso   1.00
C339   C     0.31613   0.58487   0.00094   0.00000  Uiso   1.00
C340   C     0.38513   0.45555   0.92830   0.00000  Uiso   1.00
C341   C     0.40744   0.44452   0.83496   0.00000  Uiso   1.00
C342   C     0.39160   0.41009   0.77530   0.00000  Uiso   1.00
C343   C     0.40177   0.47146   0.11691   0.00000  Uiso   1.00
C344   C     0.43809   0.47381   0.18213   0.00000  Uiso   1.00
C345   C     0.43627   0.45277   0.28124   0.00000  Uiso   1.00
H346   H     0.30030   0.43296   0.09091   0.00000  Uiso   1.00
H347   H     0.25213   0.50103   0.08143   0.00000  Uiso   1.00
H348   H     0.30391   0.38112   0.92663   0.00000  Uiso   1.00
H349   H     0.33456   0.41040   0.27374   0.00000  Uiso   1.00
H350   H     0.21497   0.58645   0.05650   0.00000  Uiso   1.00
H351   H     0.32416   0.33359   0.73012   0.00000  Uiso   1.00
H352   H     0.38878   0.39534   0.46207   0.00000  Uiso   1.00
H353   H     0.42547   0.50962   0.98012   0.00000  Uiso   1.00
H354   H     0.38417   0.58190   0.96456   0.00000  Uiso   1.00
H355   H     0.43595   0.46198   0.80976   0.00000  Uiso   1.00
H356   H     0.46659   0.49127   0.15687   0.00000  Uiso   1.00
H357   H     0.32214   0.65208   0.96165   0.00000  Uiso   1.00
H358   H     0.43133   0.39922   0.63527   0.00000  Uiso   1.00
H359   H     0.49594   0.46097   0.36721   0.00000  Uiso   1.00
O360   O     0.23913   0.66543   0.00080   0.00000  Uiso   1.00
O361   O     0.38238   0.33368   0.57262   0.00000  Uiso   1.00
O362   O     0.46715   0.41470   0.53291   0.00000  Uiso   1.00
N363   N     0.24586   0.59198   0.03633   0.00000  Uiso   1.00
N364   N     0.34794   0.35557   0.73118   0.00000  Uiso   1.00
N365   N     0.40836   0.41330   0.41547   0.00000  Uiso   1.00
N366   N     0.30353   0.62729   0.98529   0.00000  Uiso   1.00
N367   N     0.40561   0.39089   0.68014   0.00000  Uiso   1.00
N368   N     0.46602   0.44861   0.36443   0.00000  Uiso   1.00
C369   C     0.95053   0.17103   0.43447   0.00000  Uiso   1.00
C370   C     0.99814   0.17984   0.45497   0.00000  Uiso   1.00
C371   C     0.01850   0.21937   0.44380   0.00000  Uiso   1.00
C372   C     0.06227   0.22077   0.46641   0.00000  Uiso   1.00
C373   C     0.13277   0.24006   0.49333   0.00000  Uiso   1.00
C374   C     0.93299   0.15171   0.53909   0.00000  Uiso   1.00
C375   C     0.89857   0.16758   0.59863   0.00000  Uiso   1.00
C376   C     0.88750   0.14530   0.69204   0.00000  Uiso   1.00
C377   C     0.85683   0.12090   0.84951   0.00000  Uiso   1.00
C378   C     0.94890   0.13506   0.35050   0.00000  Uiso   1.00
C379   C     0.92786   0.13694   0.25146   0.00000  Uiso   1.00
C380   C     0.93017   0.10063   0.18610   0.00000  Uiso   1.00
C381   C     0.92421   0.05038   0.05075   0.00000  Uiso   1.00
C382   C     0.99206   0.10321   0.49450   0.00000  Uiso   1.00
C383   C     0.02070   0.14300   0.48758   0.00000  Uiso   1.00
C384   C     0.06445   0.14434   0.51021   0.00000  Uiso   1.00
C385   C     0.08487   0.18387   0.49906   0.00000  Uiso   1.00
C386   C     0.95555   0.11487   0.57170   0.00000  Uiso   1.00
C387   C     0.94452   0.09256   0.66504   0.00000  Uiso   1.00
C388   C     0.91009   0.10840   0.72470   0.00000  Uiso   1.00
C389   C     0.97146   0.09823   0.38309   0.00000  Uiso   1.00
C390   C     0.97381   0.06191   0.31787   0.00000  Uiso   1.00
C391   C     0.95277   0.06373   0.21876   0.00000  Uiso   1.00
H392   H     0.93296   0.19970   0.40909   0.00000  Uiso   1.00
H393   H     0.00103   0.24787   0.41857   0.00000  Uiso   1.00
H394   H     0.88112   0.19609   0.57337   0.00000  Uiso   1.00
H395   H     0.91040   0.16544   0.22626   0.00000  Uiso   1.00
H396   H     0.08645   0.28503   0.44350   0.00000  Uiso   1.00
H397   H     0.83359   0.17584   0.76988   0.00000  Uiso   1.00
H398   H     0.89534   0.11122   0.03793   0.00000  Uiso   1.00
H399   H     0.00962   0.07453   0.51988   0.00000  Uiso   1.00
H400   H     0.08190   0.11583   0.53544   0.00000  Uiso   1.00
H401   H     0.96198   0.06405   0.69024   0.00000  Uiso   1.00
H402   H     0.99127   0.03341   0.34313   0.00000  Uiso   1.00
H403   H     0.15208   0.17786   0.53835   0.00000  Uiso   1.00
H404   H     0.89922   0.06867   0.86473   0.00000  Uiso   1.00
H405   H     0.96097   0.00406   0.13279   0.00000  Uiso   1.00
O406   O     0.16543   0.26087   0.49920   0.00000  Uiso   1.00
O407   O     0.83368   0.11762   0.92738   0.00000  Uiso   1.00
O408   O     0.91470   0.03285   0.96709   0.00000  Uiso   1.00
N409   N     0.09198   0.25414   0.46367   0.00000  Uiso   1.00
N410   N     0.85557   0.15206   0.76882   0.00000  Uiso   1.00
N411   N     0.91330   0.09164   0.08453   0.00000  Uiso   1.00
N412   N     0.12729   0.19647   0.51471   0.00000  Uiso   1.00
N413   N     0.89089   0.09439   0.81986   0.00000  Uiso   1.00
N414   N     0.94861   0.03398   0.13557   0.00000  Uiso   1.00
C415   C     0.45053   0.67103   0.93447   0.00000  Uiso   1.00
C416   C     0.49814   0.67984   0.95497   0.00000  Uiso   1.00
C417   C     0.51850   0.71937   0.94380   0.00000  Uiso   1.00
C418   C     0.56227   0.72077   0.96641   0.00000  Uiso   1.00
C419   C     0.63277   0.74006   0.99333   0.00000  Uiso   1.00
C420   C     0.43299   0.65171   0.03909   0.00000  Uiso   1.00
C421   C     0.39857   0.66758   0.09863   0.00000  Uiso   1.00
C422   C     0.38750   0.64530   0.19204   0.00000  Uiso   1.00
C423   C     0.35683   0.62090   0.34951   0.00000  Uiso   1.00
C424   C     0.44890   0.63506   0.85050   0.00000  Uiso   1.00
C425   C     0.42786   0.63694   0.75146   0.00000  Uiso   1.00
C426   C     0.43017   0.60063   0.68610   0.00000  Uiso   1.00
C427   C     0.42421   0.55038   0.55075   0.00000  Uiso   1.00
C428   C     0.49206   0.60321   0.99450   0.00000  Uiso   1.00
C429   C     0.52070   0.64300   0.98758   0.00000  Uiso   1.00
C430   C     0.56445   0.64434   0.01021   0.00000  Uiso   1.00
C431   C     0.58487   0.68387   0.99906   0.00000  Uiso   1.00
C432   C     0.45555   0.61487   0.07170   0.00000  Uiso   1.00
C433   C     0.44452   0.59256   0.16504   0.00000  Uiso   1.00
C434   C     0.41009   0.60840   0.22470   0.00000  Uiso   1.00
C435   C     0.47146   0.59823   0.88309   0.00000  Uiso   1.00
C436   C     0.47381   0.56191   0.81787   0.00000  Uiso   1.00
C437   C     0.45277   0.56373   0.71876   0.00000  Uiso   1.00
H438   H     0.43296   0.69970   0.90909   0.00000  Uiso   1.00
H439   H     0.50103   0.74787   0.91857   0.00000  Uiso   1.00
H440   H     0.38112   0.69609   0.07337   0.00000  Uiso   1.00
H441   H     0.41040   0.66544   0.72626   0.00000  Uiso   1.00
H442   H     0.58645   0.78503   0.94350   0.00000  Uiso   1.00
H443   H     0.33359   0.67584   0.26988   0.00000  Uiso   1.00
H444   H     0.39534   0.61122   0.53793   0.00000  Uiso   1.00
H445   H     0.50962   0.57453   0.01988   0.00000  Uiso   1.00
H446   H     0.58190   0.61583   0.03544   0.00000  Uiso   1.00
H447   H     0.46198   0.56405   0.19024   0.00000  Uiso   1.00
H448   H     0.49127   0.53341   0.84313   0.00000  Uiso   1.00
H449   H     0.65208   0.67786   0.03835   0.00000  Uiso   1.00
H450   H     0.39922   0.56867   0.36473   0.00000  Uiso   1.00
H451   H     0.46097   0.50406   0.63279   0.00000  Uiso   1.00
O452   O     0.66543   0.76087   0.99920   0.00000  Uiso   1.00
O453   O     0.33368   0.61762   0.42738   0.00000  Uiso   1.00
O454   O     0.41470   0.53285   0.46709   0.00000  Uiso   1.00
N455   N     0.59198   0.75414   0.96367   0.00000  Uiso   1.00
N456   N     0.35557   0.65206   0.26882   0.00000  Uiso   1.00
N457   N     0.41330   0.59164   0.58453   0.00000  Uiso   1.00
N458   N     0.62729   0.69647   0.01471   0.00000  Uiso   1.00
N459   N     0.39089   0.59439   0.31986   0.00000  Uiso   1.00
N460   N     0.44861   0.53398   0.63557   0.00000  Uiso   1.00
C461   C     0.54947   0.32897   0.93447   0.00000  Uiso   1.00
C462   C     0.50186   0.32016   0.95497   0.00000  Uiso   1.00
C463   C     0.48150   0.28063   0.94380   0.00000  Uiso   1.00
C464   C     0.43773   0.27923   0.96641   0.00000  Uiso   1.00
C465   C     0.36723   0.25994   0.99333   0.00000  Uiso   1.00
C466   C     0.56701   0.34829   0.03909   0.00000  Uiso   1.00
C467   C     0.60143   0.33242   0.09863   0.00000  Uiso   1.00
C468   C     0.61250   0.35470   0.19204   0.00000  Uiso   1.00
C469   C     0.64317   0.37910   0.34951   0.00000  Uiso   1.00
C470   C     0.55110   0.36494   0.85050   0.00000  Uiso   1.00
C471   C     0.57214   0.36306   0.75146   0.00000  Uiso   1.00
C472   C     0.56983   0.39937   0.68610   0.00000  Uiso   1.00
C473   C     0.57579   0.44962   0.55075   0.00000  Uiso   1.00
C474   C     0.50794   0.39679   0.99450   0.00000  Uiso   1.00
C475   C     0.47930   0.35700   0.98758   0.00000  Uiso   1.00
C476   C     0.43555   0.35566   0.01021   0.00000  Uiso   1.00
C477   C     0.41513   0.31613   0.99906   0.00000  Uiso   1.00
C478   C     0.54445   0.38513   0.07170   0.00000  Uiso   1.00
C479   C     0.55548   0.40744   0.16504   0.00000  Uiso   1.00
C480   C     0.58991   0.39160   0.22470   0.00000  Uiso   1.00
C481   C     0.52854   0.40177   0.88309   0.00000  Uiso   1.00
C482   C     0.52619   0.43809   0.81787   0.00000  Uiso   1.00
C483   C     0.54723   0.43627   0.71876   0.00000  Uiso   1.00
H484   H     0.56704   0.30030   0.90909   0.00000  Uiso   1.00
H485   H     0.49897   0.25213   0.91857   0.00000  Uiso   1.00
H486   H     0.61888   0.30391   0.07337   0.00000  Uiso   1.00
H487   H     0.58960   0.33456   0.72626   0.00000  Uiso   1.00
H488   H     0.41355   0.21497   0.94350   0.00000  Uiso   1.00
H489   H     0.66641   0.32416   0.26988   0.00000  Uiso   1.00
H490   H     0.60466   0.38878   0.53793   0.00000  Uiso   1.00
H491   H     0.49038   0.42547   0.01988   0.00000  Uiso   1.00
H492   H     0.41810   0.38417   0.03544   0.00000  Uiso   1.00
H493   H     0.53802   0.43595   0.19024   0.00000  Uiso   1.00
H494   H     0.50873   0.46659   0.84313   0.00000  Uiso   1.00
H495   H     0.34792   0.32214   0.03835   0.00000  Uiso   1.00
H496   H     0.60078   0.43133   0.36473   0.00000  Uiso   1.00
H497   H     0.53903   0.49594   0.63279   0.00000  Uiso   1.00
O498   O     0.33457   0.23913   0.99920   0.00000  Uiso   1.00
O499   O     0.66632   0.38238   0.42738   0.00000  Uiso   1.00
O500   O     0.58530   0.46715   0.46709   0.00000  Uiso   1.00
N501   N     0.40802   0.24586   0.96367   0.00000  Uiso   1.00
N502   N     0.64443   0.34794   0.26882   0.00000  Uiso   1.00
N503   N     0.58670   0.40836   0.58453   0.00000  Uiso   1.00
N504   N     0.37271   0.30353   0.01471   0.00000  Uiso   1.00
N505   N     0.60911   0.40561   0.31986   0.00000  Uiso   1.00
N506   N     0.55139   0.46602   0.63557   0.00000  Uiso   1.00
C507   C     0.04947   0.82897   0.43447   0.00000  Uiso   1.00
C508   C     0.00186   0.82016   0.45497   0.00000  Uiso   1.00
C509   C     0.98150   0.78063   0.44380   0.00000  Uiso   1.00
C510   C     0.93773   0.77923   0.46641   0.00000  Uiso   1.00
C511   C     0.86723   0.75994   0.49333   0.00000  Uiso   1.00
C512   C     0.06701   0.84829   0.53909   0.00000  Uiso   1.00
C513   C     0.10143   0.83242   0.59863   0.00000  Uiso   1.00
C514   C     0.11250   0.85470   0.69204   0.00000  Uiso   1.00
C515   C     0.14317   0.87910   0.84951   0.00000  Uiso   1.00
C516   C     0.05110   0.86494   0.35050   0.00000  Uiso   1.00
C517   C     0.07214   0.86306   0.25146   0.00000  Uiso   1.00
C518   C     0.06983   0.89937   0.18610   0.00000  Uiso   1.00
C519   C     0.07579   0.94962   0.05075   0.00000  Uiso   1.00
C520   C     0.00794   0.89679   0.49450   0.00000  Uiso   1.00
C521   C     0.97930   0.85700   0.48758   0.00000  Uiso   1.00
C522   C     0.93555   0.85566   0.51021   0.00000  Uiso   1.00
C523   C     0.91513   0.81613   0.49906   0.00000  Uiso   1.00
C524   C     0.04445   0.88513   0.57170   0.00000  Uiso   1.00
C525   C     0.05548   0.90744   0.66504   0.00000  Uiso   1.00
C526   C     0.08991   0.89160   0.72470   0.00000  Uiso   1.00
C527   C     0.02854   0.90177   0.38309   0.00000  Uiso   1.00
C528   C     0.02619   0.93809   0.31787   0.00000  Uiso   1.00
C529   C     0.04723   0.93627   0.21876   0.00000  Uiso   1.00
H530   H     0.06704   0.80030   0.40909   0.00000  Uiso   1.00
H531   H     0.99897   0.75213   0.41857   0.00000  Uiso   1.00
H532   H     0.11888   0.80391   0.57337   0.00000  Uiso   1.00
H533   H     0.08960   0.83456   0.22626   0.00000  Uiso   1.00
H534   H     0.91355   0.71497   0.44350   0.00000  Uiso   1.00
H535   H     0.16641   0.82416   0.76988   0.00000  Uiso   1.00
H536   H     0.10466   0.88878   0.03793   0.00000  Uiso   1.00
H537   H     0.99038   0.92547   0.51988   0.00000  Uiso   1.00
H538   H     0.91810   0.88417   0.53544   0.00000  Uiso   1.00
H539   H     0.03802   0.93595   0.69024   0.00000  Uiso   1.00
H540   H     0.00873   0.96659   0.34313   0.00000  Uiso   1.00
H541   H     0.84792   0.82214   0.53835   0.00000  Uiso   1.00
H542   H     0.10078   0.93133   0.86473   0.00000  Uiso   1.00
H543   H     0.03903   0.99594   0.13279   0.00000  Uiso   1.00
O544   O     0.83457   0.73913   0.49920   0.00000  Uiso   1.00
O545   O     0.16632   0.88238   0.92738   0.00000  Uiso   1.00
O546   O     0.08530   0.96715   0.96709   0.00000  Uiso   1.00
N547   N     0.90802   0.74586   0.46367   0.00000  Uiso   1.00
N548   N     0.14443   0.84794   0.76882   0.00000  Uiso   1.00
N549   N     0.08670   0.90836   0.08453   0.00000  Uiso   1.00
N550   N     0.87271   0.80353   0.51471   0.00000  Uiso   1.00
N551   N     0.10911   0.90561   0.81986   0.00000  Uiso   1.00
N552   N     0.05139   0.96602   0.13557   0.00000  Uiso   1.00
C553   C     0.32897   0.95053   0.18447   0.00000  Uiso   1.00
C554   C     0.32016   0.99814   0.20497   0.00000  Uiso   1.00
C555   C     0.28063   0.01850   0.19380   0.00000  Uiso   1.00
C556   C     0.27923   0.06227   0.21641   0.00000  Uiso   1.00
C557   C     0.25994   0.13277   0.24333   0.00000  Uiso   1.00
C558   C     0.34829   0.93299   0.28909   0.00000  Uiso   1.00
C559   C     0.33242   0.89857   0.34863   0.00000  Uiso   1.00
C560   C     0.35470   0.88750   0.44204   0.00000  Uiso   1.00
C561   C     0.37910   0.85683   0.59951   0.00000  Uiso   1.00
C562   C     0.36494   0.94890   0.10050   0.00000  Uiso   1.00
C563   C     0.36306   0.92786   0.00146   0.00000  Uiso   1.00
C564   C     0.39937   0.93017   0.93610   0.00000  Uiso   1.00
C565   C     0.44962   0.92421   0.80075   0.00000  Uiso   1.00
C566   C     0.39679   0.99206   0.24450   0.00000  Uiso   1.00
C567   C     0.35700   0.02070   0.23758   0.00000  Uiso   1.00
C568   C     0.35566   0.06445   0.26021   0.00000  Uiso   1.00
C569   C     0.31613   0.08487   0.24906   0.00000  Uiso   1.00
C570   C     0.38513   0.95555   0.32170   0.00000  Uiso   1.00
C571   C     0.40744   0.94452   0.41504   0.00000  Uiso   1.00
C572   C     0.39160   0.91009   0.47470   0.00000  Uiso   1.00
C573   C     0.40177   0.97146   0.13309   0.00000  Uiso   1.00
C574   C     0.43809   0.97381   0.06787   0.00000  Uiso   1.00
C575   C     0.43627   0.95277   0.96876   0.00000  Uiso   1.00
H576   H     0.30030   0.93296   0.15909   0.00000  Uiso   1.00
H577   H     0.25213   0.00103   0.16857   0.00000  Uiso   1.00
H578   H     0.30391   0.88112   0.32337   0.00000  Uiso   1.00
H579   H     0.33456   0.91040   0.97626   0.00000  Uiso   1.00
H580   H     0.21497   0.08645   0.19350   0.00000  Uiso   1.00
H581   H     0.32416   0.83359   0.51988   0.00000  Uiso   1.00
H582   H     0.38878   0.89534   0.78793   0.00000  Uiso   1.00
H583   H     0.42547   0.00962   0.26988   0.00000  Uiso   1.00
H584   H     0.38417   0.08190   0.28544   0.00000  Uiso   1.00
H585   H     0.43595   0.96198   0.44024   0.00000  Uiso   1.00
H586   H     0.46659   0.99127   0.09313   0.00000  Uiso   1.00
H587   H     0.32214   0.15208   0.28835   0.00000  Uiso   1.00
H588   H     0.43133   0.89922   0.61473   0.00000  Uiso   1.00
H589   H     0.49594   0.96097   0.88279   0.00000  Uiso   1.00
O590   O     0.23913   0.16543   0.24920   0.00000  Uiso   1.00
O591   O     0.38238   0.83368   0.67738   0.00000  Uiso   1.00
O592   O     0.46715   0.91470   0.71709   0.00000  Uiso   1.00
N593   N     0.24586   0.09198   0.21367   0.00000  Uiso   1.00
N594   N     0.34794   0.85557   0.51882   0.00000  Uiso   1.00
N595   N     0.40836   0.91330   0.83453   0.00000  Uiso   1.00
N596   N     0.30353   0.12729   0.26471   0.00000  Uiso   1.00
N597   N     0.40561   0.89089   0.56986   0.00000  Uiso   1.00
N598   N     0.46602   0.94861   0.88557   0.00000  Uiso   1.00
C599   C     0.82897   0.45053   0.68447   0.00000  Uiso   1.00
C600   C     0.82016   0.49814   0.70497   0.00000  Uiso   1.00
C601   C     0.78063   0.51850   0.69380   0.00000  Uiso   1.00
C602   C     0.77923   0.56227   0.71641   0.00000  Uiso   1.00
C603   C     0.75994   0.63277   0.74333   0.00000  Uiso   1.00
C604   C     0.84829   0.43299   0.78909   0.00000  Uiso   1.00
C605   C     0.83242   0.39857   0.84863   0.00000  Uiso   1.00
C606   C     0.85470   0.38750   0.94204   0.00000  Uiso   1.00
C607   C     0.87910   0.35683   0.09951   0.00000  Uiso   1.00
C608   C     0.86494   0.44890   0.60050   0.00000  Uiso   1.00
C609   C     0.86306   0.42786   0.50146   0.00000  Uiso   1.00
C610   C     0.89937   0.43017   0.43610   0.00000  Uiso   1.00
C611   C     0.94962   0.42421   0.30075   0.00000  Uiso   1.00
C612   C     0.89679   0.49206   0.74450   0.00000  Uiso   1.00
C613   C     0.85700   0.52070   0.73758   0.00000  Uiso   1.00
C614   C     0.85566   0.56445   0.76021   0.00000  Uiso   1.00
C615   C     0.81613   0.58487   0.74906   0.00000  Uiso   1.00
C616   C     0.88513   0.45555   0.82170   0.00000  Uiso   1.00
C617   C     0.90744   0.44452   0.91504   0.00000  Uiso   1.00
C618   C     0.89160   0.41009   0.97470   0.00000  Uiso   1.00
C619   C     0.90177   0.47146   0.63309   0.00000  Uiso   1.00
C620   C     0.93809   0.47381   0.56787   0.00000  Uiso   1.00
C621   C     0.93627   0.45277   0.46876   0.00000  Uiso   1.00
H622   H     0.80030   0.43296   0.65909   0.00000  Uiso   1.00
H623   H     0.75213   0.50103   0.66857   0.00000  Uiso   1.00
H624   H     0.80391   0.38112   0.82337   0.00000  Uiso   1.00
H625   H     0.83456   0.41040   0.47626   0.00000  Uiso   1.00
H626   H     0.71497   0.58645   0.69350   0.00000  Uiso   1.00
H627   H     0.82416   0.33359   0.01988   0.00000  Uiso   1.00
H628   H     0.88878   0.39534   0.28793   0.00000  Uiso   1.00
H629   H     0.92547   0.50962   0.76988   0.00000  Uiso   1.00
H630   H     0.88417   0.58190   0.78544   0.00000  Uiso   1.00
H631   H     0.93595   0.46198   0.94024   0.00000  Uiso   1.00
H632   H     0.96659   0.49127   0.59313   0.00000  Uiso   1.00
H633   H     0.82214   0.65208   0.78835   0.00000  Uiso   1.00
H634   H     0.93133   0.39922   0.11473   0.00000  Uiso   1.00
H635   H     0.99594   0.46097   0.38279   0.00000  Uiso   1.00
O636   O     0.73913   0.66543   0.74920   0.00000  Uiso   1.00
O637   O     0.88238   0.33368   0.17738   0.00000  Uiso   1.00
O638   O     0.96715   0.41470   0.21709   0.00000  Uiso   1.00
N639   N     0.74586   0.59198   0.71367   0.00000  Uiso   1.00
N640   N     0.84794   0.35557   0.01882   0.00000  Uiso   1.00
N641   N     0.90836   0.41330   0.33453   0.00000  Uiso   1.00
N642   N     0.80353   0.62729   0.76471   0.00000  Uiso   1.00
N643   N     0.90561   0.39089   0.06986   0.00000  Uiso   1.00
N644   N     0.96602   0.44861   0.38557   0.00000  Uiso   1.00
C645   C     0.17103   0.54947   0.68447   0.00000  Uiso   1.00
C646   C     0.17984   0.50186   0.70497   0.00000  Uiso   1.00
C647   C     0.21937   0.48150   0.69380   0.00000  Uiso   1.00
C648   C     0.22077   0.43773   0.71641   0.00000  Uiso   1.00
C649   C     0.24006   0.36723   0.74333   0.00000  Uiso   1.00
C650   C     0.15171   0.56701   0.78909   0.00000  Uiso   1.00
C651   C     0.16758   0.60143   0.84863   0.00000  Uiso   1.00
C652   C     0.14530   0.61250   0.94204   0.00000  Uiso   1.00
C653   C     0.12090   0.64317   0.09951   0.00000  Uiso   1.00
C654   C     0.13506   0.55110   0.60050   0.00000  Uiso   1.00
C655   C     0.13694   0.57214   0.50146   0.00000  Uiso   1.00
C656   C     0.10063   0.56983   0.43610   0.00000  Uiso   1.00
C657   C     0.05038   0.57579   0.30075   0.00000  Uiso   1.00
C658   C     0.10321   0.50794   0.74450   0.00000  Uiso   1.00
C659   C     0.14300   0.47930   0.73758   0.00000  Uiso   1.00
C660   C     0.14434   0.43555   0.76021   0.00000  Uiso   1.00
C661   C     0.18387   0.41513   0.74906   0.00000  Uiso   1.00
C662   C     0.11487   0.54445   0.82170   0.00000  Uiso   1.00
C663   C     0.09256   0.55548   0.91504   0.00000  Uiso   1.00
C664   C     0.10840   0.58991   0.97470   0.00000  Uiso   1.00
C665   C     0.09823   0.52854   0.63309   0.00000  Uiso   1.00
C666   C     0.06191   0.52619   0.56787   0.00000  Uiso   1.00
C667   C     0.06373   0.54723   0.46876   0.00000  Uiso   1.00
H668   H     0.19970   0.56704   0.65909   0.00000  Uiso   1.00
H669   H     0.24787   0.49897   0.66857   0.00000  Uiso   1.00
H670   H     0.19609   0.61888   0.82337   0.00000  Uiso   1.00
H671   H     0.16544   0.58960   0.47626   0.00000  Uiso   1.00
H672   H     0.28503   0.41355   0.69350   0.00000  Uiso   1.00
H673   H     0.17584   0.66641   0.01988   0.00000  Uiso   1.00
H674   H     0.11122   0.60466   0.28793   0.00000  Uiso   1.00
H675   H     0.07453   0.49038   0.76988   0.00000  Uiso   1.00
H676   H     0.11583   0.41810   0.78544   0.00000  Uiso   1.00
H677   H     0.06405   0.53802   0.94024   0.00000  Uiso   1.00
H678   H     0.03341   0.50873   0.59313   0.00000  Uiso   1.00
H679   H     0.17786   0.34792   0.78835   0.00000  Uiso   1.00
H680   H     0.06867   0.60078   0.11473   0.00000  Uiso   1.00
H681   H     0.00406   0.53903   0.38279   0.00000  Uiso   1.00
O682   O     0.26087   0.33457   0.74920   0.00000  Uiso   1.00
O683   O     0.11762   0.66632   0.17738   0.00000  Uiso   1.00
O684   O     0.03285   0.58530   0.21709   0.00000  Uiso   1.00
N685   N     0.25414   0.40802   0.71367   0.00000  Uiso   1.00
N686   N     0.15206   0.64443   0.01882   0.00000  Uiso   1.00
N687   N     0.09164   0.58670   0.33453   0.00000  Uiso   1.00
N688   N     0.19647   0.37271   0.76471   0.00000  Uiso   1.00
N689   N     0.09439   0.60911   0.06986   0.00000  Uiso   1.00
N690   N     0.03398   0.55139   0.38557   0.00000  Uiso   1.00
C691   C     0.67103   0.04947   0.18447   0.00000  Uiso   1.00
C692   C     0.67984   0.00186   0.20497   0.00000  Uiso   1.00
C693   C     0.71937   0.98150   0.19380   0.00000  Uiso   1.00
C694   C     0.72077   0.93773   0.21641   0.00000  Uiso   1.00
C695   C     0.74006   0.86723   0.24333   0.00000  Uiso   1.00
C696   C     0.65171   0.06701   0.28909   0.00000  Uiso   1.00
C697   C     0.66758   0.10143   0.34863   0.00000  Uiso   1.00
C698   C     0.64530   0.11250   0.44204   0.00000  Uiso   1.00
C699   C     0.62090   0.14317   0.59951   0.00000  Uiso   1.00
C700   C     0.63506   0.05110   0.10050   0.00000  Uiso   1.00
C701   C     0.63694   0.07214   0.00146   0.00000  Uiso   1.00
C702   C     0.60063   0.06983   0.93610   0.00000  Uiso   1.00
C703   C     0.55038   0.07579   0.80075   0.00000  Uiso   1.00
C704   C     0.60321   0.00794   0.24450   0.00000  Uiso   1.00
C705   C     0.64300   0.97930   0.23758   0.00000  Uiso   1.00
C706   C     0.64434   0.93555   0.26021   0.00000  Uiso   1.00
C707   C     0.68387   0.91513   0.24906   0.00000  Uiso   1.00
C708   C     0.61487   0.04445   0.32170   0.00000  Uiso   1.00
C709   C     0.59256   0.05548   0.41504   0.00000  Uiso   1.00
C710   C     0.60840   0.08991   0.47470   0.00000  Uiso   1.00
C711   C     0.59823   0.02854   0.13309   0.00000  Uiso   1.00
C712   C     0.56191   0.02619   0.06787   0.00000  Uiso   1.00
C713   C     0.56373   0.04723   0.96876   0.00000  Uiso   1.00
H714   H     0.69970   0.06704   0.15909   0.00000  Uiso   1.00
H715   H     0.74787   0.99897   0.16857   0.00000  Uiso   1.00
H716   H     0.69609   0.11888   0.32337   0.00000  Uiso   1.00
H717   H     0.66544   0.08960   0.97626   0.00000  Uiso   1.00
H718   H     0.78503   0.91355   0.19350   0.00000  Uiso   1.00
H719   H     0.67584   0.16641   0.51988   0.00000  Uiso   1.00
H720   H     0.61122   0.10466   0.78793   0.00000  Uiso   1.00
H721   H     0.57453   0.99038   0.26988   0.00000  Uiso   1.00
H722   H     0.61583   0.91810   0.28544   0.00000  Uiso   1.00
H723   H     0.56405   0.03802   0.44024   0.00000  Uiso   1.00
H724   H     0.53341   0.00873   0.09313   0.00000  Uiso   1.00
H725   H     0.67786   0.84792   0.28835   0.00000  Uiso   1.00
H726   H     0.56867   0.10078   0.61473   0.00000  Uiso   1.00
H727   H     0.50406   0.03903   0.88279   0.00000  Uiso   1.00
O728   O     0.76087   0.83457   0.24920   0.00000  Uiso   1.00
O729   O     0.61762   0.16632   0.67738   0.00000  Uiso   1.00
O730   O     0.53285   0.08530   0.71709   0.00000  Uiso   1.00
N731   N     0.75414   0.90802   0.21367   0.00000  Uiso   1.00
N732   N     0.65206   0.14443   0.51882   0.00000  Uiso   1.00
N733   N     0.59164   0.08670   0.83453   0.00000  Uiso   1.00
N734   N     0.69647   0.87271   0.26471   0.00000  Uiso   1.00
N735   N     0.59439   0.10911   0.56986   0.00000  Uiso   1.00
N736   N     0.53398   0.05139   0.88557   0.00000  Uiso   1.00
