data_job_03654
_audit_creation_date              2018-12-19
_audit_creation_method            'Materials Studio'
_symmetry_space_group_name_H-M    'P1'
_symmetry_Int_Tables_number       1
_symmetry_cell_setting            triclinic
loop_
_symmetry_equiv_pos_as_xyz
  x,y,z
_cell_length_a                    20.9473
_cell_length_b                    20.9473
_cell_length_c                    22.8164
_cell_angle_alpha                 90.0000
_cell_angle_beta                  90.0000
_cell_angle_gamma                 90.0000
loop_
_atom_site_label
_atom_site_type_symbol
_atom_site_fract_x
_atom_site_fract_y
_atom_site_fract_z
_atom_site_U_iso_or_equiv
_atom_site_adp_type
_atom_site_occupancy
C1     C     0.46886   0.31797   0.33509   0.00000  Uiso   1.00
C2     C     0.42412   0.36653   0.36323   0.00000  Uiso   1.00
C3     C     0.43766   0.43058   0.37258   0.00000  Uiso   1.00
C4     C     0.39040   0.46712   0.39895   0.00000  Uiso   1.00
C5     C     0.32984   0.54658   0.44012   0.00000  Uiso   1.00
C6     C     0.43240   0.28983   0.28333   0.00000  Uiso   1.00
C7     C     0.45292   0.28939   0.22549   0.00000  Uiso   1.00
C8     C     0.41263   0.26135   0.18459   0.00000  Uiso   1.00
C9     C     0.36496   0.22169   0.10172   0.00000  Uiso   1.00
C10    C     0.47603   0.26395   0.37941   0.00000  Uiso   1.00
C11    C     0.53323   0.24173   0.40235   0.00000  Uiso   1.00
C12    C     0.52968   0.19189   0.44234   0.00000  Uiso   1.00
C13    C     0.54975   0.11206   0.50865   0.00000  Uiso   1.00
C14    C     0.36085   0.26896   0.36530   0.00000  Uiso   1.00
C15    C     0.36545   0.33991   0.37964   0.00000  Uiso   1.00
C16    C     0.31816   0.37636   0.40600   0.00000  Uiso   1.00
C17    C     0.33163   0.44045   0.41539   0.00000  Uiso   1.00
C18    C     0.37374   0.26321   0.29973   0.00000  Uiso   1.00
C19    C     0.33342   0.23516   0.25891   0.00000  Uiso   1.00
C20    C     0.35386   0.23468   0.20103   0.00000  Uiso   1.00
C21    C     0.41737   0.23733   0.39582   0.00000  Uiso   1.00
C22    C     0.41373   0.18751   0.43577   0.00000  Uiso   1.00
C23    C     0.47091   0.16522   0.45877   0.00000  Uiso   1.00
H24    H     0.51453   0.33869   0.32231   0.00000  Uiso   1.00
H25    H     0.48306   0.45116   0.35987   0.00000  Uiso   1.00
H26    H     0.49832   0.30998   0.21281   0.00000  Uiso   1.00
H27    H     0.57862   0.26234   0.38964   0.00000  Uiso   1.00
H28    H     0.42230   0.56413   0.40873   0.00000  Uiso   1.00
H29    H     0.45447   0.26643   0.09864   0.00000  Uiso   1.00
H30    H     0.62380   0.16596   0.47153   0.00000  Uiso   1.00
H31    H     0.31518   0.24823   0.37807   0.00000  Uiso   1.00
H32    H     0.27277   0.35574   0.41869   0.00000  Uiso   1.00
H33    H     0.28803   0.21457   0.27163   0.00000  Uiso   1.00
H34    H     0.36832   0.16692   0.44846   0.00000  Uiso   1.00
H35    H     0.25161   0.48668   0.45646   0.00000  Uiso   1.00
H36    H     0.28379   0.18898   0.14637   0.00000  Uiso   1.00
H37    H     0.45312   0.08852   0.51927   0.00000  Uiso   1.00
O38    O     0.31265   0.59777   0.45829   0.00000  Uiso   1.00
O39    O     0.35487   0.20718   0.05147   0.00000  Uiso   1.00
O40    O     0.57702   0.07538   0.54069   0.00000  Uiso   1.00
N41    N     0.38795   0.53114   0.41440   0.00000  Uiso   1.00
N42    N     0.41803   0.25282   0.12448   0.00000  Uiso   1.00
N43    N     0.57634   0.15888   0.47309   0.00000  Uiso   1.00
N44    N     0.29611   0.48947   0.44009   0.00000  Uiso   1.00
N45    N     0.32619   0.21115   0.15017   0.00000  Uiso   1.00
N46    N     0.48449   0.11721   0.49878   0.00000  Uiso   1.00
C47    C     0.96886   0.81797   0.83509   0.00000  Uiso   1.00
C48    C     0.92412   0.86653   0.86323   0.00000  Uiso   1.00
C49    C     0.93766   0.93058   0.87258   0.00000  Uiso   1.00
C50    C     0.89040   0.96712   0.89895   0.00000  Uiso   1.00
C51    C     0.82984   0.04658   0.94012   0.00000  Uiso   1.00
C52    C     0.93240   0.78983   0.78333   0.00000  Uiso   1.00
C53    C     0.95292   0.78939   0.72549   0.00000  Uiso   1.00
C54    C     0.91263   0.76135   0.68459   0.00000  Uiso   1.00
C55    C     0.86496   0.72169   0.60172   0.00000  Uiso   1.00
C56    C     0.97603   0.76395   0.87941   0.00000  Uiso   1.00
C57    C     0.03323   0.74173   0.90235   0.00000  Uiso   1.00
C58    C     0.02968   0.69189   0.94234   0.00000  Uiso   1.00
C59    C     0.04975   0.61206   0.00865   0.00000  Uiso   1.00
C60    C     0.86085   0.76896   0.86530   0.00000  Uiso   1.00
C61    C     0.86545   0.83991   0.87964   0.00000  Uiso   1.00
C62    C     0.81816   0.87636   0.90600   0.00000  Uiso   1.00
C63    C     0.83163   0.94045   0.91539   0.00000  Uiso   1.00
C64    C     0.87374   0.76321   0.79973   0.00000  Uiso   1.00
C65    C     0.83342   0.73516   0.75891   0.00000  Uiso   1.00
C66    C     0.85386   0.73468   0.70103   0.00000  Uiso   1.00
C67    C     0.91737   0.73733   0.89582   0.00000  Uiso   1.00
C68    C     0.91373   0.68751   0.93577   0.00000  Uiso   1.00
C69    C     0.97091   0.66522   0.95877   0.00000  Uiso   1.00
H70    H     0.01453   0.83869   0.82231   0.00000  Uiso   1.00
H71    H     0.98306   0.95116   0.85987   0.00000  Uiso   1.00
H72    H     0.99832   0.80998   0.71281   0.00000  Uiso   1.00
H73    H     0.07862   0.76234   0.88964   0.00000  Uiso   1.00
H74    H     0.92230   0.06413   0.90873   0.00000  Uiso   1.00
H75    H     0.95447   0.76643   0.59864   0.00000  Uiso   1.00
H76    H     0.12380   0.66596   0.97153   0.00000  Uiso   1.00
H77    H     0.81518   0.74823   0.87807   0.00000  Uiso   1.00
H78    H     0.77277   0.85574   0.91869   0.00000  Uiso   1.00
H79    H     0.78803   0.71457   0.77163   0.00000  Uiso   1.00
H80    H     0.86832   0.66692   0.94846   0.00000  Uiso   1.00
H81    H     0.75161   0.98668   0.95646   0.00000  Uiso   1.00
H82    H     0.78379   0.68898   0.64637   0.00000  Uiso   1.00
H83    H     0.95312   0.58852   0.01927   0.00000  Uiso   1.00
O84    O     0.81265   0.09777   0.95829   0.00000  Uiso   1.00
O85    O     0.85487   0.70718   0.55147   0.00000  Uiso   1.00
O86    O     0.07702   0.57538   0.04069   0.00000  Uiso   1.00
N87    N     0.88795   0.03114   0.91440   0.00000  Uiso   1.00
N88    N     0.91803   0.75282   0.62448   0.00000  Uiso   1.00
N89    N     0.07634   0.65888   0.97309   0.00000  Uiso   1.00
N90    N     0.79611   0.98947   0.94009   0.00000  Uiso   1.00
N91    N     0.82619   0.71115   0.65017   0.00000  Uiso   1.00
N92    N     0.98449   0.61721   0.99878   0.00000  Uiso   1.00
C93    C     0.03114   0.18203   0.83509   0.00000  Uiso   1.00
C94    C     0.07588   0.13347   0.86323   0.00000  Uiso   1.00
C95    C     0.06234   0.06942   0.87258   0.00000  Uiso   1.00
C96    C     0.10960   0.03288   0.89895   0.00000  Uiso   1.00
C97    C     0.17016   0.95342   0.94012   0.00000  Uiso   1.00
C98    C     0.06760   0.21017   0.78333   0.00000  Uiso   1.00
C99    C     0.04708   0.21061   0.72549   0.00000  Uiso   1.00
C100   C     0.08737   0.23865   0.68459   0.00000  Uiso   1.00
C101   C     0.13504   0.27831   0.60172   0.00000  Uiso   1.00
C102   C     0.02397   0.23605   0.87941   0.00000  Uiso   1.00
C103   C     0.96677   0.25827   0.90235   0.00000  Uiso   1.00
C104   C     0.97032   0.30811   0.94234   0.00000  Uiso   1.00
C105   C     0.95025   0.38794   0.00865   0.00000  Uiso   1.00
C106   C     0.13915   0.23104   0.86530   0.00000  Uiso   1.00
C107   C     0.13455   0.16009   0.87964   0.00000  Uiso   1.00
C108   C     0.18184   0.12364   0.90600   0.00000  Uiso   1.00
C109   C     0.16837   0.05955   0.91539   0.00000  Uiso   1.00
C110   C     0.12626   0.23679   0.79973   0.00000  Uiso   1.00
C111   C     0.16658   0.26484   0.75891   0.00000  Uiso   1.00
C112   C     0.14614   0.26532   0.70103   0.00000  Uiso   1.00
C113   C     0.08263   0.26267   0.89582   0.00000  Uiso   1.00
C114   C     0.08627   0.31249   0.93577   0.00000  Uiso   1.00
C115   C     0.02909   0.33478   0.95877   0.00000  Uiso   1.00
H116   H     0.98547   0.16131   0.82231   0.00000  Uiso   1.00
H117   H     0.01694   0.04884   0.85987   0.00000  Uiso   1.00
H118   H     0.00168   0.19002   0.71281   0.00000  Uiso   1.00
H119   H     0.92138   0.23766   0.88964   0.00000  Uiso   1.00
H120   H     0.07770   0.93587   0.90873   0.00000  Uiso   1.00
H121   H     0.04553   0.23357   0.59864   0.00000  Uiso   1.00
H122   H     0.87620   0.33404   0.97153   0.00000  Uiso   1.00
H123   H     0.18482   0.25177   0.87807   0.00000  Uiso   1.00
H124   H     0.22723   0.14426   0.91869   0.00000  Uiso   1.00
H125   H     0.21197   0.28543   0.77163   0.00000  Uiso   1.00
H126   H     0.13168   0.33308   0.94846   0.00000  Uiso   1.00
H127   H     0.24839   0.01332   0.95646   0.00000  Uiso   1.00
H128   H     0.21621   0.31102   0.64637   0.00000  Uiso   1.00
H129   H     0.04688   0.41148   0.01927   0.00000  Uiso   1.00
O130   O     0.18735   0.90223   0.95829   0.00000  Uiso   1.00
O131   O     0.14513   0.29282   0.55147   0.00000  Uiso   1.00
O132   O     0.92298   0.42462   0.04069   0.00000  Uiso   1.00
N133   N     0.11205   0.96886   0.91440   0.00000  Uiso   1.00
N134   N     0.08197   0.24718   0.62448   0.00000  Uiso   1.00
N135   N     0.92366   0.34112   0.97309   0.00000  Uiso   1.00
N136   N     0.20389   0.01053   0.94009   0.00000  Uiso   1.00
N137   N     0.17381   0.28885   0.65017   0.00000  Uiso   1.00
N138   N     0.01551   0.38279   0.99878   0.00000  Uiso   1.00
C139   C     0.53114   0.68203   0.33509   0.00000  Uiso   1.00
C140   C     0.57588   0.63347   0.36323   0.00000  Uiso   1.00
C141   C     0.56234   0.56942   0.37258   0.00000  Uiso   1.00
C142   C     0.60960   0.53288   0.39895   0.00000  Uiso   1.00
C143   C     0.67016   0.45342   0.44012   0.00000  Uiso   1.00
C144   C     0.56760   0.71017   0.28333   0.00000  Uiso   1.00
C145   C     0.54708   0.71061   0.22549   0.00000  Uiso   1.00
C146   C     0.58737   0.73865   0.18459   0.00000  Uiso   1.00
C147   C     0.63504   0.77831   0.10172   0.00000  Uiso   1.00
C148   C     0.52397   0.73605   0.37941   0.00000  Uiso   1.00
C149   C     0.46677   0.75827   0.40235   0.00000  Uiso   1.00
C150   C     0.47032   0.80811   0.44234   0.00000  Uiso   1.00
C151   C     0.45025   0.88794   0.50865   0.00000  Uiso   1.00
C152   C     0.63915   0.73104   0.36530   0.00000  Uiso   1.00
C153   C     0.63455   0.66009   0.37964   0.00000  Uiso   1.00
C154   C     0.68184   0.62364   0.40600   0.00000  Uiso   1.00
C155   C     0.66837   0.55955   0.41539   0.00000  Uiso   1.00
C156   C     0.62626   0.73679   0.29973   0.00000  Uiso   1.00
C157   C     0.66658   0.76484   0.25891   0.00000  Uiso   1.00
C158   C     0.64614   0.76532   0.20103   0.00000  Uiso   1.00
C159   C     0.58263   0.76267   0.39582   0.00000  Uiso   1.00
C160   C     0.58627   0.81249   0.43577   0.00000  Uiso   1.00
C161   C     0.52909   0.83478   0.45877   0.00000  Uiso   1.00
H162   H     0.48547   0.66131   0.32231   0.00000  Uiso   1.00
H163   H     0.51694   0.54884   0.35987   0.00000  Uiso   1.00
H164   H     0.50168   0.69002   0.21281   0.00000  Uiso   1.00
H165   H     0.42138   0.73766   0.38964   0.00000  Uiso   1.00
H166   H     0.57770   0.43587   0.40873   0.00000  Uiso   1.00
H167   H     0.54553   0.73357   0.09864   0.00000  Uiso   1.00
H168   H     0.37620   0.83404   0.47153   0.00000  Uiso   1.00
H169   H     0.68482   0.75177   0.37807   0.00000  Uiso   1.00
H170   H     0.72723   0.64426   0.41869   0.00000  Uiso   1.00
H171   H     0.71197   0.78543   0.27163   0.00000  Uiso   1.00
H172   H     0.63168   0.83308   0.44846   0.00000  Uiso   1.00
H173   H     0.74839   0.51332   0.45646   0.00000  Uiso   1.00
H174   H     0.71621   0.81102   0.14637   0.00000  Uiso   1.00
H175   H     0.54688   0.91148   0.51927   0.00000  Uiso   1.00
O176   O     0.68735   0.40223   0.45829   0.00000  Uiso   1.00
O177   O     0.64513   0.79282   0.05147   0.00000  Uiso   1.00
O178   O     0.42298   0.92462   0.54069   0.00000  Uiso   1.00
N179   N     0.61205   0.46886   0.41440   0.00000  Uiso   1.00
N180   N     0.58197   0.74718   0.12448   0.00000  Uiso   1.00
N181   N     0.42366   0.84112   0.47309   0.00000  Uiso   1.00
N182   N     0.70389   0.51053   0.44009   0.00000  Uiso   1.00
N183   N     0.67381   0.78885   0.15017   0.00000  Uiso   1.00
N184   N     0.51551   0.88279   0.49878   0.00000  Uiso   1.00
C185   C     0.68203   0.96886   0.58509   0.00000  Uiso   1.00
C186   C     0.63347   0.92412   0.61323   0.00000  Uiso   1.00
C187   C     0.56942   0.93766   0.62258   0.00000  Uiso   1.00
C188   C     0.53288   0.89040   0.64895   0.00000  Uiso   1.00
C189   C     0.45342   0.82984   0.69012   0.00000  Uiso   1.00
C190   C     0.71017   0.93240   0.53333   0.00000  Uiso   1.00
C191   C     0.71061   0.95292   0.47549   0.00000  Uiso   1.00
C192   C     0.73865   0.91263   0.43459   0.00000  Uiso   1.00
C193   C     0.77831   0.86496   0.35172   0.00000  Uiso   1.00
C194   C     0.73605   0.97603   0.62941   0.00000  Uiso   1.00
C195   C     0.75827   0.03323   0.65235   0.00000  Uiso   1.00
C196   C     0.80811   0.02968   0.69234   0.00000  Uiso   1.00
C197   C     0.88794   0.04975   0.75865   0.00000  Uiso   1.00
C198   C     0.73104   0.86085   0.61530   0.00000  Uiso   1.00
C199   C     0.66009   0.86545   0.62964   0.00000  Uiso   1.00
C200   C     0.62364   0.81816   0.65600   0.00000  Uiso   1.00
C201   C     0.55955   0.83163   0.66539   0.00000  Uiso   1.00
C202   C     0.73679   0.87374   0.54973   0.00000  Uiso   1.00
C203   C     0.76484   0.83342   0.50891   0.00000  Uiso   1.00
C204   C     0.76532   0.85386   0.45103   0.00000  Uiso   1.00
C205   C     0.76267   0.91737   0.64582   0.00000  Uiso   1.00
C206   C     0.81249   0.91373   0.68577   0.00000  Uiso   1.00
C207   C     0.83478   0.97091   0.70877   0.00000  Uiso   1.00
H208   H     0.66131   0.01453   0.57231   0.00000  Uiso   1.00
H209   H     0.54884   0.98306   0.60987   0.00000  Uiso   1.00
H210   H     0.69002   0.99832   0.46281   0.00000  Uiso   1.00
H211   H     0.73766   0.07862   0.63964   0.00000  Uiso   1.00
H212   H     0.43587   0.92230   0.65873   0.00000  Uiso   1.00
H213   H     0.73357   0.95447   0.34864   0.00000  Uiso   1.00
H214   H     0.83404   0.12380   0.72153   0.00000  Uiso   1.00
H215   H     0.75177   0.81518   0.62807   0.00000  Uiso   1.00
H216   H     0.64426   0.77277   0.66869   0.00000  Uiso   1.00
H217   H     0.78543   0.78803   0.52163   0.00000  Uiso   1.00
H218   H     0.83308   0.86832   0.69846   0.00000  Uiso   1.00
H219   H     0.51332   0.75161   0.70646   0.00000  Uiso   1.00
H220   H     0.81102   0.78379   0.39637   0.00000  Uiso   1.00
H221   H     0.91148   0.95312   0.76927   0.00000  Uiso   1.00
O222   O     0.40223   0.81265   0.70829   0.00000  Uiso   1.00
O223   O     0.79282   0.85487   0.30147   0.00000  Uiso   1.00
O224   O     0.92462   0.07702   0.79069   0.00000  Uiso   1.00
N225   N     0.46886   0.88795   0.66440   0.00000  Uiso   1.00
N226   N     0.74718   0.91803   0.37448   0.00000  Uiso   1.00
N227   N     0.84112   0.07634   0.72309   0.00000  Uiso   1.00
N228   N     0.51053   0.79611   0.69009   0.00000  Uiso   1.00
N229   N     0.78885   0.82619   0.40017   0.00000  Uiso   1.00
N230   N     0.88279   0.98449   0.74878   0.00000  Uiso   1.00
C231   C     0.18203   0.46886   0.08509   0.00000  Uiso   1.00
C232   C     0.13347   0.42412   0.11323   0.00000  Uiso   1.00
C233   C     0.06942   0.43766   0.12258   0.00000  Uiso   1.00
C234   C     0.03288   0.39040   0.14895   0.00000  Uiso   1.00
C235   C     0.95342   0.32984   0.19012   0.00000  Uiso   1.00
C236   C     0.21017   0.43240   0.03333   0.00000  Uiso   1.00
C237   C     0.21061   0.45292   0.97549   0.00000  Uiso   1.00
C238   C     0.23865   0.41263   0.93459   0.00000  Uiso   1.00
C239   C     0.27831   0.36496   0.85172   0.00000  Uiso   1.00
C240   C     0.23605   0.47603   0.12941   0.00000  Uiso   1.00
C241   C     0.25827   0.53323   0.15235   0.00000  Uiso   1.00
C242   C     0.30811   0.52968   0.19234   0.00000  Uiso   1.00
C243   C     0.38794   0.54975   0.25865   0.00000  Uiso   1.00
C244   C     0.23104   0.36085   0.11530   0.00000  Uiso   1.00
C245   C     0.16009   0.36545   0.12964   0.00000  Uiso   1.00
C246   C     0.12364   0.31816   0.15600   0.00000  Uiso   1.00
C247   C     0.05955   0.33163   0.16539   0.00000  Uiso   1.00
C248   C     0.23679   0.37374   0.04973   0.00000  Uiso   1.00
C249   C     0.26484   0.33342   0.00891   0.00000  Uiso   1.00
C250   C     0.26532   0.35386   0.95103   0.00000  Uiso   1.00
C251   C     0.26267   0.41737   0.14582   0.00000  Uiso   1.00
C252   C     0.31249   0.41373   0.18577   0.00000  Uiso   1.00
C253   C     0.33478   0.47091   0.20877   0.00000  Uiso   1.00
H254   H     0.16131   0.51453   0.07231   0.00000  Uiso   1.00
H255   H     0.04884   0.48306   0.10987   0.00000  Uiso   1.00
H256   H     0.19002   0.49832   0.96281   0.00000  Uiso   1.00
H257   H     0.23766   0.57862   0.13964   0.00000  Uiso   1.00
H258   H     0.93587   0.42230   0.15873   0.00000  Uiso   1.00
H259   H     0.23357   0.45447   0.84864   0.00000  Uiso   1.00
H260   H     0.33404   0.62380   0.22153   0.00000  Uiso   1.00
H261   H     0.25177   0.31518   0.12807   0.00000  Uiso   1.00
H262   H     0.14426   0.27277   0.16869   0.00000  Uiso   1.00
H263   H     0.28543   0.28803   0.02163   0.00000  Uiso   1.00
H264   H     0.33308   0.36832   0.19846   0.00000  Uiso   1.00
H265   H     0.01332   0.25161   0.20646   0.00000  Uiso   1.00
H266   H     0.31102   0.28379   0.89637   0.00000  Uiso   1.00
H267   H     0.41148   0.45312   0.26927   0.00000  Uiso   1.00
O268   O     0.90223   0.31265   0.20829   0.00000  Uiso   1.00
O269   O     0.29282   0.35487   0.80147   0.00000  Uiso   1.00
O270   O     0.42462   0.57702   0.29069   0.00000  Uiso   1.00
N271   N     0.96886   0.38795   0.16440   0.00000  Uiso   1.00
N272   N     0.24718   0.41803   0.87448   0.00000  Uiso   1.00
N273   N     0.34112   0.57634   0.22309   0.00000  Uiso   1.00
N274   N     0.01053   0.29611   0.19009   0.00000  Uiso   1.00
N275   N     0.28885   0.32619   0.90017   0.00000  Uiso   1.00
N276   N     0.38279   0.48449   0.24878   0.00000  Uiso   1.00
C277   C     0.81797   0.53114   0.08509   0.00000  Uiso   1.00
C278   C     0.86653   0.57588   0.11323   0.00000  Uiso   1.00
C279   C     0.93058   0.56234   0.12258   0.00000  Uiso   1.00
C280   C     0.96712   0.60960   0.14895   0.00000  Uiso   1.00
C281   C     0.04658   0.67016   0.19012   0.00000  Uiso   1.00
C282   C     0.78983   0.56760   0.03333   0.00000  Uiso   1.00
C283   C     0.78939   0.54708   0.97549   0.00000  Uiso   1.00
C284   C     0.76135   0.58737   0.93459   0.00000  Uiso   1.00
C285   C     0.72169   0.63504   0.85172   0.00000  Uiso   1.00
C286   C     0.76395   0.52397   0.12941   0.00000  Uiso   1.00
C287   C     0.74173   0.46677   0.15235   0.00000  Uiso   1.00
C288   C     0.69189   0.47032   0.19234   0.00000  Uiso   1.00
C289   C     0.61206   0.45025   0.25865   0.00000  Uiso   1.00
C290   C     0.76896   0.63915   0.11530   0.00000  Uiso   1.00
C291   C     0.83991   0.63455   0.12964   0.00000  Uiso   1.00
C292   C     0.87636   0.68184   0.15600   0.00000  Uiso   1.00
C293   C     0.94045   0.66837   0.16539   0.00000  Uiso   1.00
C294   C     0.76321   0.62626   0.04973   0.00000  Uiso   1.00
C295   C     0.73516   0.66658   0.00891   0.00000  Uiso   1.00
C296   C     0.73468   0.64614   0.95103   0.00000  Uiso   1.00
C297   C     0.73733   0.58263   0.14582   0.00000  Uiso   1.00
C298   C     0.68751   0.58627   0.18577   0.00000  Uiso   1.00
C299   C     0.66522   0.52909   0.20877   0.00000  Uiso   1.00
H300   H     0.83869   0.48547   0.07231   0.00000  Uiso   1.00
H301   H     0.95116   0.51694   0.10987   0.00000  Uiso   1.00
H302   H     0.80998   0.50168   0.96281   0.00000  Uiso   1.00
H303   H     0.76234   0.42138   0.13964   0.00000  Uiso   1.00
H304   H     0.06413   0.57770   0.15873   0.00000  Uiso   1.00
H305   H     0.76643   0.54553   0.84864   0.00000  Uiso   1.00
H306   H     0.66596   0.37620   0.22153   0.00000  Uiso   1.00
H307   H     0.74823   0.68482   0.12807   0.00000  Uiso   1.00
H308   H     0.85574   0.72723   0.16869   0.00000  Uiso   1.00
H309   H     0.71457   0.71197   0.02163   0.00000  Uiso   1.00
H310   H     0.66692   0.63168   0.19846   0.00000  Uiso   1.00
H311   H     0.98668   0.74839   0.20646   0.00000  Uiso   1.00
H312   H     0.68898   0.71621   0.89637   0.00000  Uiso   1.00
H313   H     0.58852   0.54688   0.26927   0.00000  Uiso   1.00
O314   O     0.09777   0.68735   0.20829   0.00000  Uiso   1.00
O315   O     0.70718   0.64513   0.80147   0.00000  Uiso   1.00
O316   O     0.57538   0.42298   0.29069   0.00000  Uiso   1.00
N317   N     0.03114   0.61205   0.16440   0.00000  Uiso   1.00
N318   N     0.75282   0.58197   0.87448   0.00000  Uiso   1.00
N319   N     0.65888   0.42366   0.22309   0.00000  Uiso   1.00
N320   N     0.98947   0.70389   0.19009   0.00000  Uiso   1.00
N321   N     0.71115   0.67381   0.90017   0.00000  Uiso   1.00
N322   N     0.61721   0.51551   0.24878   0.00000  Uiso   1.00
C323   C     0.31797   0.03114   0.58509   0.00000  Uiso   1.00
C324   C     0.36653   0.07588   0.61323   0.00000  Uiso   1.00
C325   C     0.43058   0.06234   0.62258   0.00000  Uiso   1.00
C326   C     0.46712   0.10960   0.64895   0.00000  Uiso   1.00
C327   C     0.54658   0.17016   0.69012   0.00000  Uiso   1.00
C328   C     0.28983   0.06760   0.53333   0.00000  Uiso   1.00
C329   C     0.28939   0.04708   0.47549   0.00000  Uiso   1.00
C330   C     0.26135   0.08737   0.43459   0.00000  Uiso   1.00
C331   C     0.22169   0.13504   0.35172   0.00000  Uiso   1.00
C332   C     0.26395   0.02397   0.62941   0.00000  Uiso   1.00
C333   C     0.24173   0.96677   0.65235   0.00000  Uiso   1.00
C334   C     0.19189   0.97032   0.69234   0.00000  Uiso   1.00
C335   C     0.11206   0.95025   0.75865   0.00000  Uiso   1.00
C336   C     0.26896   0.13915   0.61530   0.00000  Uiso   1.00
C337   C     0.33991   0.13455   0.62964   0.00000  Uiso   1.00
C338   C     0.37636   0.18184   0.65600   0.00000  Uiso   1.00
C339   C     0.44045   0.16837   0.66539   0.00000  Uiso   1.00
C340   C     0.26321   0.12626   0.54973   0.00000  Uiso   1.00
C341   C     0.23516   0.16658   0.50891   0.00000  Uiso   1.00
C342   C     0.23468   0.14614   0.45103   0.00000  Uiso   1.00
C343   C     0.23733   0.08263   0.64582   0.00000  Uiso   1.00
C344   C     0.18751   0.08627   0.68577   0.00000  Uiso   1.00
C345   C     0.16522   0.02909   0.70877   0.00000  Uiso   1.00
H346   H     0.33869   0.98547   0.57231   0.00000  Uiso   1.00
H347   H     0.45116   0.01694   0.60987   0.00000  Uiso   1.00
H348   H     0.30998   0.00168   0.46281   0.00000  Uiso   1.00
H349   H     0.26234   0.92138   0.63964   0.00000  Uiso   1.00
H350   H     0.56413   0.07770   0.65873   0.00000  Uiso   1.00
H351   H     0.26643   0.04553   0.34864   0.00000  Uiso   1.00
H352   H     0.16596   0.87620   0.72153   0.00000  Uiso   1.00
H353   H     0.24823   0.18482   0.62807   0.00000  Uiso   1.00
H354   H     0.35574   0.22723   0.66869   0.00000  Uiso   1.00
H355   H     0.21457   0.21197   0.52163   0.00000  Uiso   1.00
H356   H     0.16692   0.13168   0.69846   0.00000  Uiso   1.00
H357   H     0.48668   0.24839   0.70646   0.00000  Uiso   1.00
H358   H     0.18898   0.21621   0.39637   0.00000  Uiso   1.00
H359   H     0.08852   0.04688   0.76927   0.00000  Uiso   1.00
O360   O     0.59777   0.18735   0.70829   0.00000  Uiso   1.00
O361   O     0.20718   0.14513   0.30147   0.00000  Uiso   1.00
O362   O     0.07538   0.92298   0.79069   0.00000  Uiso   1.00
N363   N     0.53114   0.11205   0.66440   0.00000  Uiso   1.00
N364   N     0.25282   0.08197   0.37448   0.00000  Uiso   1.00
N365   N     0.15888   0.92366   0.72309   0.00000  Uiso   1.00
N366   N     0.48947   0.20389   0.69009   0.00000  Uiso   1.00
N367   N     0.21115   0.17381   0.40017   0.00000  Uiso   1.00
N368   N     0.11721   0.01551   0.74878   0.00000  Uiso   1.00
C369   C     0.53114   0.18203   0.91491   0.00000  Uiso   1.00
C370   C     0.57588   0.13347   0.88677   0.00000  Uiso   1.00
C371   C     0.56234   0.06942   0.87742   0.00000  Uiso   1.00
C372   C     0.60960   0.03288   0.85105   0.00000  Uiso   1.00
C373   C     0.67016   0.95342   0.80988   0.00000  Uiso   1.00
C374   C     0.56760   0.21017   0.96667   0.00000  Uiso   1.00
C375   C     0.54708   0.21061   0.02451   0.00000  Uiso   1.00
C376   C     0.58737   0.23865   0.06541   0.00000  Uiso   1.00
C377   C     0.63504   0.27831   0.14828   0.00000  Uiso   1.00
C378   C     0.52397   0.23605   0.87059   0.00000  Uiso   1.00
C379   C     0.46677   0.25827   0.84765   0.00000  Uiso   1.00
C380   C     0.47032   0.30811   0.80766   0.00000  Uiso   1.00
C381   C     0.45025   0.38794   0.74135   0.00000  Uiso   1.00
C382   C     0.63915   0.23104   0.88470   0.00000  Uiso   1.00
C383   C     0.63455   0.16009   0.87036   0.00000  Uiso   1.00
C384   C     0.68184   0.12364   0.84400   0.00000  Uiso   1.00
C385   C     0.66837   0.05955   0.83461   0.00000  Uiso   1.00
C386   C     0.62626   0.23679   0.95027   0.00000  Uiso   1.00
C387   C     0.66658   0.26484   0.99109   0.00000  Uiso   1.00
C388   C     0.64614   0.26532   0.04897   0.00000  Uiso   1.00
C389   C     0.58263   0.26267   0.85418   0.00000  Uiso   1.00
C390   C     0.58627   0.31249   0.81423   0.00000  Uiso   1.00
C391   C     0.52909   0.33478   0.79123   0.00000  Uiso   1.00
H392   H     0.48547   0.16131   0.92769   0.00000  Uiso   1.00
H393   H     0.51694   0.04884   0.89013   0.00000  Uiso   1.00
H394   H     0.50168   0.19002   0.03719   0.00000  Uiso   1.00
H395   H     0.42138   0.23766   0.86036   0.00000  Uiso   1.00
H396   H     0.57770   0.93587   0.84127   0.00000  Uiso   1.00
H397   H     0.54553   0.23357   0.15136   0.00000  Uiso   1.00
H398   H     0.37620   0.33404   0.77847   0.00000  Uiso   1.00
H399   H     0.68482   0.25177   0.87193   0.00000  Uiso   1.00
H400   H     0.72723   0.14426   0.83131   0.00000  Uiso   1.00
H401   H     0.71197   0.28543   0.97837   0.00000  Uiso   1.00
H402   H     0.63168   0.33308   0.80154   0.00000  Uiso   1.00
H403   H     0.74839   0.01332   0.79354   0.00000  Uiso   1.00
H404   H     0.71621   0.31102   0.10363   0.00000  Uiso   1.00
H405   H     0.54688   0.41148   0.73073   0.00000  Uiso   1.00
O406   O     0.68735   0.90223   0.79171   0.00000  Uiso   1.00
O407   O     0.64513   0.29282   0.19853   0.00000  Uiso   1.00
O408   O     0.42298   0.42462   0.70931   0.00000  Uiso   1.00
N409   N     0.61205   0.96886   0.83560   0.00000  Uiso   1.00
N410   N     0.58197   0.24718   0.12552   0.00000  Uiso   1.00
N411   N     0.42366   0.34112   0.77691   0.00000  Uiso   1.00
N412   N     0.70389   0.01053   0.80991   0.00000  Uiso   1.00
N413   N     0.67381   0.28885   0.09983   0.00000  Uiso   1.00
N414   N     0.51551   0.38279   0.75122   0.00000  Uiso   1.00
C415   C     0.03114   0.68203   0.41491   0.00000  Uiso   1.00
C416   C     0.07588   0.63347   0.38677   0.00000  Uiso   1.00
C417   C     0.06234   0.56942   0.37742   0.00000  Uiso   1.00
C418   C     0.10960   0.53288   0.35105   0.00000  Uiso   1.00
C419   C     0.17016   0.45342   0.30988   0.00000  Uiso   1.00
C420   C     0.06760   0.71017   0.46667   0.00000  Uiso   1.00
C421   C     0.04708   0.71061   0.52451   0.00000  Uiso   1.00
C422   C     0.08737   0.73865   0.56541   0.00000  Uiso   1.00
C423   C     0.13504   0.77831   0.64828   0.00000  Uiso   1.00
C424   C     0.02397   0.73605   0.37059   0.00000  Uiso   1.00
C425   C     0.96677   0.75827   0.34765   0.00000  Uiso   1.00
C426   C     0.97032   0.80811   0.30766   0.00000  Uiso   1.00
C427   C     0.95025   0.88794   0.24135   0.00000  Uiso   1.00
C428   C     0.13915   0.73104   0.38470   0.00000  Uiso   1.00
C429   C     0.13455   0.66009   0.37036   0.00000  Uiso   1.00
C430   C     0.18184   0.62364   0.34400   0.00000  Uiso   1.00
C431   C     0.16837   0.55955   0.33461   0.00000  Uiso   1.00
C432   C     0.12626   0.73679   0.45027   0.00000  Uiso   1.00
C433   C     0.16658   0.76484   0.49109   0.00000  Uiso   1.00
C434   C     0.14614   0.76532   0.54897   0.00000  Uiso   1.00
C435   C     0.08263   0.76267   0.35418   0.00000  Uiso   1.00
C436   C     0.08627   0.81249   0.31423   0.00000  Uiso   1.00
C437   C     0.02909   0.83478   0.29123   0.00000  Uiso   1.00
H438   H     0.98547   0.66131   0.42769   0.00000  Uiso   1.00
H439   H     0.01694   0.54884   0.39013   0.00000  Uiso   1.00
H440   H     0.00168   0.69002   0.53719   0.00000  Uiso   1.00
H441   H     0.92138   0.73766   0.36036   0.00000  Uiso   1.00
H442   H     0.07770   0.43587   0.34127   0.00000  Uiso   1.00
H443   H     0.04553   0.73357   0.65136   0.00000  Uiso   1.00
H444   H     0.87620   0.83404   0.27847   0.00000  Uiso   1.00
H445   H     0.18482   0.75177   0.37193   0.00000  Uiso   1.00
H446   H     0.22723   0.64426   0.33131   0.00000  Uiso   1.00
H447   H     0.21197   0.78543   0.47837   0.00000  Uiso   1.00
H448   H     0.13168   0.83308   0.30154   0.00000  Uiso   1.00
H449   H     0.24839   0.51332   0.29354   0.00000  Uiso   1.00
H450   H     0.21621   0.81102   0.60363   0.00000  Uiso   1.00
H451   H     0.04688   0.91148   0.23073   0.00000  Uiso   1.00
O452   O     0.18735   0.40223   0.29171   0.00000  Uiso   1.00
O453   O     0.14513   0.79282   0.69853   0.00000  Uiso   1.00
O454   O     0.92298   0.92462   0.20931   0.00000  Uiso   1.00
N455   N     0.11205   0.46886   0.33560   0.00000  Uiso   1.00
N456   N     0.08197   0.74718   0.62552   0.00000  Uiso   1.00
N457   N     0.92366   0.84112   0.27691   0.00000  Uiso   1.00
N458   N     0.20389   0.51053   0.30991   0.00000  Uiso   1.00
N459   N     0.17381   0.78885   0.59983   0.00000  Uiso   1.00
N460   N     0.01551   0.88279   0.25122   0.00000  Uiso   1.00
C461   C     0.96886   0.31797   0.41491   0.00000  Uiso   1.00
C462   C     0.92412   0.36653   0.38677   0.00000  Uiso   1.00
C463   C     0.93766   0.43058   0.37742   0.00000  Uiso   1.00
C464   C     0.89040   0.46712   0.35105   0.00000  Uiso   1.00
C465   C     0.82984   0.54658   0.30988   0.00000  Uiso   1.00
C466   C     0.93240   0.28983   0.46667   0.00000  Uiso   1.00
C467   C     0.95292   0.28939   0.52451   0.00000  Uiso   1.00
C468   C     0.91263   0.26135   0.56541   0.00000  Uiso   1.00
C469   C     0.86496   0.22169   0.64828   0.00000  Uiso   1.00
C470   C     0.97603   0.26395   0.37059   0.00000  Uiso   1.00
C471   C     0.03323   0.24173   0.34765   0.00000  Uiso   1.00
C472   C     0.02968   0.19189   0.30766   0.00000  Uiso   1.00
C473   C     0.04975   0.11206   0.24135   0.00000  Uiso   1.00
C474   C     0.86085   0.26896   0.38470   0.00000  Uiso   1.00
C475   C     0.86545   0.33991   0.37036   0.00000  Uiso   1.00
C476   C     0.81816   0.37636   0.34400   0.00000  Uiso   1.00
C477   C     0.83163   0.44045   0.33461   0.00000  Uiso   1.00
C478   C     0.87374   0.26321   0.45027   0.00000  Uiso   1.00
C479   C     0.83342   0.23516   0.49109   0.00000  Uiso   1.00
C480   C     0.85386   0.23468   0.54897   0.00000  Uiso   1.00
C481   C     0.91737   0.23733   0.35418   0.00000  Uiso   1.00
C482   C     0.91373   0.18751   0.31423   0.00000  Uiso   1.00
C483   C     0.97091   0.16522   0.29123   0.00000  Uiso   1.00
H484   H     0.01453   0.33869   0.42769   0.00000  Uiso   1.00
H485   H     0.98306   0.45116   0.39013   0.00000  Uiso   1.00
H486   H     0.99832   0.30998   0.53719   0.00000  Uiso   1.00
H487   H     0.07862   0.26234   0.36036   0.00000  Uiso   1.00
H488   H     0.92230   0.56413   0.34127   0.00000  Uiso   1.00
H489   H     0.95447   0.26643   0.65136   0.00000  Uiso   1.00
H490   H     0.12380   0.16596   0.27847   0.00000  Uiso   1.00
H491   H     0.81518   0.24823   0.37193   0.00000  Uiso   1.00
H492   H     0.77277   0.35574   0.33131   0.00000  Uiso   1.00
H493   H     0.78803   0.21457   0.47837   0.00000  Uiso   1.00
H494   H     0.86832   0.16692   0.30154   0.00000  Uiso   1.00
H495   H     0.75161   0.48668   0.29354   0.00000  Uiso   1.00
H496   H     0.78379   0.18898   0.60363   0.00000  Uiso   1.00
H497   H     0.95312   0.08852   0.23073   0.00000  Uiso   1.00
O498   O     0.81265   0.59777   0.29171   0.00000  Uiso   1.00
O499   O     0.85487   0.20718   0.69853   0.00000  Uiso   1.00
O500   O     0.07702   0.07538   0.20931   0.00000  Uiso   1.00
N501   N     0.88795   0.53114   0.33560   0.00000  Uiso   1.00
N502   N     0.91803   0.25282   0.62552   0.00000  Uiso   1.00
N503   N     0.07634   0.15888   0.27691   0.00000  Uiso   1.00
N504   N     0.79611   0.48947   0.30991   0.00000  Uiso   1.00
N505   N     0.82619   0.21115   0.59983   0.00000  Uiso   1.00
N506   N     0.98449   0.11721   0.25122   0.00000  Uiso   1.00
C507   C     0.46886   0.81797   0.91491   0.00000  Uiso   1.00
C508   C     0.42412   0.86653   0.88677   0.00000  Uiso   1.00
C509   C     0.43766   0.93058   0.87742   0.00000  Uiso   1.00
C510   C     0.39040   0.96712   0.85105   0.00000  Uiso   1.00
C511   C     0.32984   0.04658   0.80988   0.00000  Uiso   1.00
C512   C     0.43240   0.78983   0.96667   0.00000  Uiso   1.00
C513   C     0.45292   0.78939   0.02451   0.00000  Uiso   1.00
C514   C     0.41263   0.76135   0.06541   0.00000  Uiso   1.00
C515   C     0.36496   0.72169   0.14828   0.00000  Uiso   1.00
C516   C     0.47603   0.76395   0.87059   0.00000  Uiso   1.00
C517   C     0.53323   0.74173   0.84765   0.00000  Uiso   1.00
C518   C     0.52968   0.69189   0.80766   0.00000  Uiso   1.00
C519   C     0.54975   0.61206   0.74135   0.00000  Uiso   1.00
C520   C     0.36085   0.76896   0.88470   0.00000  Uiso   1.00
C521   C     0.36545   0.83991   0.87036   0.00000  Uiso   1.00
C522   C     0.31816   0.87636   0.84400   0.00000  Uiso   1.00
C523   C     0.33163   0.94045   0.83461   0.00000  Uiso   1.00
C524   C     0.37374   0.76321   0.95027   0.00000  Uiso   1.00
C525   C     0.33342   0.73516   0.99109   0.00000  Uiso   1.00
C526   C     0.35386   0.73468   0.04897   0.00000  Uiso   1.00
C527   C     0.41737   0.73733   0.85418   0.00000  Uiso   1.00
C528   C     0.41373   0.68751   0.81423   0.00000  Uiso   1.00
C529   C     0.47091   0.66522   0.79123   0.00000  Uiso   1.00
H530   H     0.51453   0.83869   0.92769   0.00000  Uiso   1.00
H531   H     0.48306   0.95116   0.89013   0.00000  Uiso   1.00
H532   H     0.49832   0.80998   0.03719   0.00000  Uiso   1.00
H533   H     0.57862   0.76234   0.86036   0.00000  Uiso   1.00
H534   H     0.42230   0.06413   0.84127   0.00000  Uiso   1.00
H535   H     0.45447   0.76643   0.15136   0.00000  Uiso   1.00
H536   H     0.62380   0.66596   0.77847   0.00000  Uiso   1.00
H537   H     0.31518   0.74823   0.87193   0.00000  Uiso   1.00
H538   H     0.27277   0.85574   0.83131   0.00000  Uiso   1.00
H539   H     0.28803   0.71457   0.97837   0.00000  Uiso   1.00
H540   H     0.36832   0.66692   0.80154   0.00000  Uiso   1.00
H541   H     0.25161   0.98668   0.79354   0.00000  Uiso   1.00
H542   H     0.28379   0.68898   0.10363   0.00000  Uiso   1.00
H543   H     0.45312   0.58852   0.73073   0.00000  Uiso   1.00
O544   O     0.31265   0.09777   0.79171   0.00000  Uiso   1.00
O545   O     0.35487   0.70718   0.19853   0.00000  Uiso   1.00
O546   O     0.57702   0.57538   0.70931   0.00000  Uiso   1.00
N547   N     0.38795   0.03114   0.83560   0.00000  Uiso   1.00
N548   N     0.41803   0.75282   0.12552   0.00000  Uiso   1.00
N549   N     0.57634   0.65888   0.77691   0.00000  Uiso   1.00
N550   N     0.29611   0.98947   0.80991   0.00000  Uiso   1.00
N551   N     0.32619   0.71115   0.09983   0.00000  Uiso   1.00
N552   N     0.48449   0.61721   0.75122   0.00000  Uiso   1.00
C553   C     0.31797   0.53114   0.66491   0.00000  Uiso   1.00
C554   C     0.36653   0.57588   0.63677   0.00000  Uiso   1.00
C555   C     0.43058   0.56234   0.62742   0.00000  Uiso   1.00
C556   C     0.46712   0.60960   0.60105   0.00000  Uiso   1.00
C557   C     0.54658   0.67016   0.55988   0.00000  Uiso   1.00
C558   C     0.28983   0.56760   0.71667   0.00000  Uiso   1.00
C559   C     0.28939   0.54708   0.77451   0.00000  Uiso   1.00
C560   C     0.26135   0.58737   0.81541   0.00000  Uiso   1.00
C561   C     0.22169   0.63504   0.89828   0.00000  Uiso   1.00
C562   C     0.26395   0.52397   0.62059   0.00000  Uiso   1.00
C563   C     0.24173   0.46677   0.59765   0.00000  Uiso   1.00
C564   C     0.19189   0.47032   0.55766   0.00000  Uiso   1.00
C565   C     0.11206   0.45025   0.49135   0.00000  Uiso   1.00
C566   C     0.26896   0.63915   0.63470   0.00000  Uiso   1.00
C567   C     0.33991   0.63455   0.62036   0.00000  Uiso   1.00
C568   C     0.37636   0.68184   0.59400   0.00000  Uiso   1.00
C569   C     0.44045   0.66837   0.58461   0.00000  Uiso   1.00
C570   C     0.26321   0.62626   0.70027   0.00000  Uiso   1.00
C571   C     0.23516   0.66658   0.74109   0.00000  Uiso   1.00
C572   C     0.23468   0.64614   0.79897   0.00000  Uiso   1.00
C573   C     0.23733   0.58263   0.60418   0.00000  Uiso   1.00
C574   C     0.18751   0.58627   0.56423   0.00000  Uiso   1.00
C575   C     0.16522   0.52909   0.54123   0.00000  Uiso   1.00
H576   H     0.33869   0.48547   0.67769   0.00000  Uiso   1.00
H577   H     0.45116   0.51694   0.64013   0.00000  Uiso   1.00
H578   H     0.30998   0.50168   0.78719   0.00000  Uiso   1.00
H579   H     0.26234   0.42138   0.61036   0.00000  Uiso   1.00
H580   H     0.56413   0.57770   0.59127   0.00000  Uiso   1.00
H581   H     0.26643   0.54553   0.90136   0.00000  Uiso   1.00
H582   H     0.16596   0.37620   0.52847   0.00000  Uiso   1.00
H583   H     0.24823   0.68482   0.62193   0.00000  Uiso   1.00
H584   H     0.35574   0.72723   0.58131   0.00000  Uiso   1.00
H585   H     0.21457   0.71197   0.72837   0.00000  Uiso   1.00
H586   H     0.16692   0.63168   0.55154   0.00000  Uiso   1.00
H587   H     0.48668   0.74839   0.54354   0.00000  Uiso   1.00
H588   H     0.18898   0.71621   0.85363   0.00000  Uiso   1.00
H589   H     0.08852   0.54688   0.48073   0.00000  Uiso   1.00
O590   O     0.59777   0.68735   0.54171   0.00000  Uiso   1.00
O591   O     0.20718   0.64513   0.94853   0.00000  Uiso   1.00
O592   O     0.07538   0.42298   0.45931   0.00000  Uiso   1.00
N593   N     0.53114   0.61205   0.58560   0.00000  Uiso   1.00
N594   N     0.25282   0.58197   0.87552   0.00000  Uiso   1.00
N595   N     0.15888   0.42366   0.52691   0.00000  Uiso   1.00
N596   N     0.48947   0.70389   0.55991   0.00000  Uiso   1.00
N597   N     0.21115   0.67381   0.84983   0.00000  Uiso   1.00
N598   N     0.11721   0.51551   0.50122   0.00000  Uiso   1.00
C599   C     0.81797   0.03114   0.16491   0.00000  Uiso   1.00
C600   C     0.86653   0.07588   0.13677   0.00000  Uiso   1.00
C601   C     0.93058   0.06234   0.12742   0.00000  Uiso   1.00
C602   C     0.96712   0.10960   0.10105   0.00000  Uiso   1.00
C603   C     0.04658   0.17016   0.05988   0.00000  Uiso   1.00
C604   C     0.78983   0.06760   0.21667   0.00000  Uiso   1.00
C605   C     0.78939   0.04708   0.27451   0.00000  Uiso   1.00
C606   C     0.76135   0.08737   0.31541   0.00000  Uiso   1.00
C607   C     0.72169   0.13504   0.39828   0.00000  Uiso   1.00
C608   C     0.76395   0.02397   0.12059   0.00000  Uiso   1.00
C609   C     0.74173   0.96677   0.09765   0.00000  Uiso   1.00
C610   C     0.69189   0.97032   0.05766   0.00000  Uiso   1.00
C611   C     0.61206   0.95025   0.99135   0.00000  Uiso   1.00
C612   C     0.76896   0.13915   0.13470   0.00000  Uiso   1.00
C613   C     0.83991   0.13455   0.12036   0.00000  Uiso   1.00
C614   C     0.87636   0.18184   0.09400   0.00000  Uiso   1.00
C615   C     0.94045   0.16837   0.08461   0.00000  Uiso   1.00
C616   C     0.76321   0.12626   0.20027   0.00000  Uiso   1.00
C617   C     0.73516   0.16658   0.24109   0.00000  Uiso   1.00
C618   C     0.73468   0.14614   0.29897   0.00000  Uiso   1.00
C619   C     0.73733   0.08263   0.10418   0.00000  Uiso   1.00
C620   C     0.68751   0.08627   0.06423   0.00000  Uiso   1.00
C621   C     0.66522   0.02909   0.04123   0.00000  Uiso   1.00
H622   H     0.83869   0.98547   0.17769   0.00000  Uiso   1.00
H623   H     0.95116   0.01694   0.14013   0.00000  Uiso   1.00
H624   H     0.80998   0.00168   0.28719   0.00000  Uiso   1.00
H625   H     0.76234   0.92138   0.11036   0.00000  Uiso   1.00
H626   H     0.06413   0.07770   0.09127   0.00000  Uiso   1.00
H627   H     0.76643   0.04553   0.40136   0.00000  Uiso   1.00
H628   H     0.66596   0.87620   0.02847   0.00000  Uiso   1.00
H629   H     0.74823   0.18482   0.12193   0.00000  Uiso   1.00
H630   H     0.85574   0.22723   0.08131   0.00000  Uiso   1.00
H631   H     0.71457   0.21197   0.22837   0.00000  Uiso   1.00
H632   H     0.66692   0.13168   0.05154   0.00000  Uiso   1.00
H633   H     0.98668   0.24839   0.04354   0.00000  Uiso   1.00
H634   H     0.68898   0.21621   0.35363   0.00000  Uiso   1.00
H635   H     0.58852   0.04688   0.98073   0.00000  Uiso   1.00
O636   O     0.09777   0.18735   0.04171   0.00000  Uiso   1.00
O637   O     0.70718   0.14513   0.44853   0.00000  Uiso   1.00
O638   O     0.57538   0.92298   0.95931   0.00000  Uiso   1.00
N639   N     0.03114   0.11205   0.08560   0.00000  Uiso   1.00
N640   N     0.75282   0.08197   0.37552   0.00000  Uiso   1.00
N641   N     0.65888   0.92366   0.02691   0.00000  Uiso   1.00
N642   N     0.98947   0.20389   0.05991   0.00000  Uiso   1.00
N643   N     0.71115   0.17381   0.34983   0.00000  Uiso   1.00
N644   N     0.61721   0.01551   0.00122   0.00000  Uiso   1.00
C645   C     0.18203   0.96886   0.16491   0.00000  Uiso   1.00
C646   C     0.13347   0.92412   0.13677   0.00000  Uiso   1.00
C647   C     0.06942   0.93766   0.12742   0.00000  Uiso   1.00
C648   C     0.03288   0.89040   0.10105   0.00000  Uiso   1.00
C649   C     0.95342   0.82984   0.05988   0.00000  Uiso   1.00
C650   C     0.21017   0.93240   0.21667   0.00000  Uiso   1.00
C651   C     0.21061   0.95292   0.27451   0.00000  Uiso   1.00
C652   C     0.23865   0.91263   0.31541   0.00000  Uiso   1.00
C653   C     0.27831   0.86496   0.39828   0.00000  Uiso   1.00
C654   C     0.23605   0.97603   0.12059   0.00000  Uiso   1.00
C655   C     0.25827   0.03323   0.09765   0.00000  Uiso   1.00
C656   C     0.30811   0.02968   0.05766   0.00000  Uiso   1.00
C657   C     0.38794   0.04975   0.99135   0.00000  Uiso   1.00
C658   C     0.23104   0.86085   0.13470   0.00000  Uiso   1.00
C659   C     0.16009   0.86545   0.12036   0.00000  Uiso   1.00
C660   C     0.12364   0.81816   0.09400   0.00000  Uiso   1.00
C661   C     0.05955   0.83163   0.08461   0.00000  Uiso   1.00
C662   C     0.23679   0.87374   0.20027   0.00000  Uiso   1.00
C663   C     0.26484   0.83342   0.24109   0.00000  Uiso   1.00
C664   C     0.26532   0.85386   0.29897   0.00000  Uiso   1.00
C665   C     0.26267   0.91737   0.10418   0.00000  Uiso   1.00
C666   C     0.31249   0.91373   0.06423   0.00000  Uiso   1.00
C667   C     0.33478   0.97091   0.04123   0.00000  Uiso   1.00
H668   H     0.16131   0.01453   0.17769   0.00000  Uiso   1.00
H669   H     0.04884   0.98306   0.14013   0.00000  Uiso   1.00
H670   H     0.19002   0.99832   0.28719   0.00000  Uiso   1.00
H671   H     0.23766   0.07862   0.11036   0.00000  Uiso   1.00
H672   H     0.93587   0.92230   0.09127   0.00000  Uiso   1.00
H673   H     0.23357   0.95447   0.40136   0.00000  Uiso   1.00
H674   H     0.33404   0.12380   0.02847   0.00000  Uiso   1.00
H675   H     0.25177   0.81518   0.12193   0.00000  Uiso   1.00
H676   H     0.14426   0.77277   0.08131   0.00000  Uiso   1.00
H677   H     0.28543   0.78803   0.22837   0.00000  Uiso   1.00
H678   H     0.33308   0.86832   0.05154   0.00000  Uiso   1.00
H679   H     0.01332   0.75161   0.04354   0.00000  Uiso   1.00
H680   H     0.31102   0.78379   0.35363   0.00000  Uiso   1.00
H681   H     0.41148   0.95312   0.98073   0.00000  Uiso   1.00
O682   O     0.90223   0.81265   0.04171   0.00000  Uiso   1.00
O683   O     0.29282   0.85487   0.44853   0.00000  Uiso   1.00
O684   O     0.42462   0.07702   0.95931   0.00000  Uiso   1.00
N685   N     0.96886   0.88795   0.08560   0.00000  Uiso   1.00
N686   N     0.24718   0.91803   0.37552   0.00000  Uiso   1.00
N687   N     0.34112   0.07634   0.02691   0.00000  Uiso   1.00
N688   N     0.01053   0.79611   0.05991   0.00000  Uiso   1.00
N689   N     0.28885   0.82619   0.34983   0.00000  Uiso   1.00
N690   N     0.38279   0.98449   0.00122   0.00000  Uiso   1.00
C691   C     0.68203   0.46886   0.66491   0.00000  Uiso   1.00
C692   C     0.63347   0.42412   0.63677   0.00000  Uiso   1.00
C693   C     0.56942   0.43766   0.62742   0.00000  Uiso   1.00
C694   C     0.53288   0.39040   0.60105   0.00000  Uiso   1.00
C695   C     0.45342   0.32984   0.55988   0.00000  Uiso   1.00
C696   C     0.71017   0.43240   0.71667   0.00000  Uiso   1.00
C697   C     0.71061   0.45292   0.77451   0.00000  Uiso   1.00
C698   C     0.73865   0.41263   0.81541   0.00000  Uiso   1.00
C699   C     0.77831   0.36496   0.89828   0.00000  Uiso   1.00
C700   C     0.73605   0.47603   0.62059   0.00000  Uiso   1.00
C701   C     0.75827   0.53323   0.59765   0.00000  Uiso   1.00
C702   C     0.80811   0.52968   0.55766   0.00000  Uiso   1.00
C703   C     0.88794   0.54975   0.49135   0.00000  Uiso   1.00
C704   C     0.73104   0.36085   0.63470   0.00000  Uiso   1.00
C705   C     0.66009   0.36545   0.62036   0.00000  Uiso   1.00
C706   C     0.62364   0.31816   0.59400   0.00000  Uiso   1.00
C707   C     0.55955   0.33163   0.58461   0.00000  Uiso   1.00
C708   C     0.73679   0.37374   0.70027   0.00000  Uiso   1.00
C709   C     0.76484   0.33342   0.74109   0.00000  Uiso   1.00
C710   C     0.76532   0.35386   0.79897   0.00000  Uiso   1.00
C711   C     0.76267   0.41737   0.60418   0.00000  Uiso   1.00
C712   C     0.81249   0.41373   0.56423   0.00000  Uiso   1.00
C713   C     0.83478   0.47091   0.54123   0.00000  Uiso   1.00
H714   H     0.66131   0.51453   0.67769   0.00000  Uiso   1.00
H715   H     0.54884   0.48306   0.64013   0.00000  Uiso   1.00
H716   H     0.69002   0.49832   0.78719   0.00000  Uiso   1.00
H717   H     0.73766   0.57862   0.61036   0.00000  Uiso   1.00
H718   H     0.43587   0.42230   0.59127   0.00000  Uiso   1.00
H719   H     0.73357   0.45447   0.90136   0.00000  Uiso   1.00
H720   H     0.83404   0.62380   0.52847   0.00000  Uiso   1.00
H721   H     0.75177   0.31518   0.62193   0.00000  Uiso   1.00
H722   H     0.64426   0.27277   0.58131   0.00000  Uiso   1.00
H723   H     0.78543   0.28803   0.72837   0.00000  Uiso   1.00
H724   H     0.83308   0.36832   0.55154   0.00000  Uiso   1.00
H725   H     0.51332   0.25161   0.54354   0.00000  Uiso   1.00
H726   H     0.81102   0.28379   0.85363   0.00000  Uiso   1.00
H727   H     0.91148   0.45312   0.48073   0.00000  Uiso   1.00
O728   O     0.40223   0.31265   0.54171   0.00000  Uiso   1.00
O729   O     0.79282   0.35487   0.94853   0.00000  Uiso   1.00
O730   O     0.92462   0.57702   0.45931   0.00000  Uiso   1.00
N731   N     0.46886   0.38795   0.58560   0.00000  Uiso   1.00
N732   N     0.74718   0.41803   0.87552   0.00000  Uiso   1.00
N733   N     0.84112   0.57634   0.52691   0.00000  Uiso   1.00
N734   N     0.51053   0.29611   0.55991   0.00000  Uiso   1.00
N735   N     0.78885   0.32619   0.84983   0.00000  Uiso   1.00
N736   N     0.88279   0.48449   0.50122   0.00000  Uiso   1.00
