data_job_04077
_audit_creation_date              2018-12-19
_audit_creation_method            'Materials Studio'
_symmetry_space_group_name_H-M    'P1'
_symmetry_Int_Tables_number       1
_symmetry_cell_setting            triclinic
loop_
_symmetry_equiv_pos_as_xyz
  x,y,z
_cell_length_a                    21.8831
_cell_length_b                    21.8831
_cell_length_c                    27.6038
_cell_angle_alpha                 90.0000
_cell_angle_beta                  90.0000
_cell_angle_gamma                 90.0000
loop_
_atom_site_label
_atom_site_type_symbol
_atom_site_fract_x
_atom_site_fract_y
_atom_site_fract_z
_atom_site_U_iso_or_equiv
_atom_site_adp_type
_atom_site_occupancy
C1     C     0.07164   0.40156   0.94084   0.00000  Uiso   1.00
C2     C     0.00358   0.38900   0.93441   0.00000  Uiso   1.00
C3     C     0.95636   0.42537   0.95159   0.00000  Uiso   1.00
C4     C     0.89719   0.40599   0.94195   0.00000  Uiso   1.00
C5     C     0.79325   0.39465   0.93593   0.00000  Uiso   1.00
C6     C     0.09807   0.34507   0.96548   0.00000  Uiso   1.00
C7     C     0.13031   0.34451   0.00878   0.00000  Uiso   1.00
C8     C     0.15069   0.28815   0.02529   0.00000  Uiso   1.00
C9     C     0.19349   0.20862   0.06749   0.00000  Uiso   1.00
C10    C     0.09879   0.40270   0.88998   0.00000  Uiso   1.00
C11    C     0.13165   0.45060   0.86979   0.00000  Uiso   1.00
C12    C     0.15265   0.44275   0.82273   0.00000  Uiso   1.00
C13    C     0.19657   0.45270   0.74768   0.00000  Uiso   1.00
C14    C     0.05051   0.30246   0.89318   0.00000  Uiso   1.00
C15    C     0.99210   0.33517   0.90853   0.00000  Uiso   1.00
C16    C     0.93298   0.31573   0.89886   0.00000  Uiso   1.00
C17    C     0.88569   0.35207   0.91602   0.00000  Uiso   1.00
C18    C     0.08660   0.29125   0.93960   0.00000  Uiso   1.00
C19    C     0.10693   0.23487   0.95605   0.00000  Uiso   1.00
C20    C     0.13919   0.23423   0.99936   0.00000  Uiso   1.00
C21    C     0.08731   0.34888   0.86409   0.00000  Uiso   1.00
C22    C     0.10827   0.34095   0.81705   0.00000  Uiso   1.00
C23    C     0.14115   0.38883   0.79679   0.00000  Uiso   1.00
H24    H     0.08058   0.44347   0.96100   0.00000  Uiso   1.00
H25    H     0.96526   0.46702   0.97163   0.00000  Uiso   1.00
H26    H     0.13919   0.38618   0.02880   0.00000  Uiso   1.00
H27    H     0.14052   0.49224   0.88983   0.00000  Uiso   1.00
H28    H     0.83235   0.46939   0.97201   0.00000  Uiso   1.00
H29    H     0.19910   0.29892   0.09256   0.00000  Uiso   1.00
H30    H     0.20192   0.52259   0.79951   0.00000  Uiso   1.00
H31    H     0.04158   0.26055   0.87303   0.00000  Uiso   1.00
H32    H     0.92412   0.27407   0.87882   0.00000  Uiso   1.00
H33    H     0.09805   0.19323   0.93600   0.00000  Uiso   1.00
H34    H     0.09938   0.29929   0.79703   0.00000  Uiso   1.00
H35    H     0.79896   0.31278   0.89669   0.00000  Uiso   1.00
H36    H     0.16571   0.14232   0.01724   0.00000  Uiso   1.00
H37    H     0.16853   0.36598   0.72419   0.00000  Uiso   1.00
O38    O     0.73909   0.40326   0.93976   0.00000  Uiso   1.00
O39    O     0.22027   0.17963   0.09791   0.00000  Uiso   1.00
O40    O     0.22395   0.47307   0.71344   0.00000  Uiso   1.00
N41    N     0.84061   0.43068   0.95348   0.00000  Uiso   1.00
N42    N     0.18350   0.27131   0.06619   0.00000  Uiso   1.00
N43    N     0.18614   0.48041   0.79222   0.00000  Uiso   1.00
N44    N     0.82264   0.34641   0.91295   0.00000  Uiso   1.00
N45    N     0.16553   0.18704   0.02566   0.00000  Uiso   1.00
N46    N     0.16817   0.39614   0.75169   0.00000  Uiso   1.00
C47    C     0.57164   0.90156   0.44084   0.00000  Uiso   1.00
C48    C     0.50358   0.88900   0.43441   0.00000  Uiso   1.00
C49    C     0.45636   0.92537   0.45159   0.00000  Uiso   1.00
C50    C     0.39719   0.90599   0.44195   0.00000  Uiso   1.00
C51    C     0.29325   0.89465   0.43593   0.00000  Uiso   1.00
C52    C     0.59807   0.84507   0.46548   0.00000  Uiso   1.00
C53    C     0.63031   0.84451   0.50878   0.00000  Uiso   1.00
C54    C     0.65069   0.78815   0.52529   0.00000  Uiso   1.00
C55    C     0.69349   0.70862   0.56749   0.00000  Uiso   1.00
C56    C     0.59879   0.90270   0.38998   0.00000  Uiso   1.00
C57    C     0.63165   0.95060   0.36979   0.00000  Uiso   1.00
C58    C     0.65265   0.94275   0.32273   0.00000  Uiso   1.00
C59    C     0.69657   0.95270   0.24768   0.00000  Uiso   1.00
C60    C     0.55051   0.80246   0.39318   0.00000  Uiso   1.00
C61    C     0.49210   0.83517   0.40853   0.00000  Uiso   1.00
C62    C     0.43298   0.81573   0.39886   0.00000  Uiso   1.00
C63    C     0.38569   0.85207   0.41602   0.00000  Uiso   1.00
C64    C     0.58660   0.79125   0.43960   0.00000  Uiso   1.00
C65    C     0.60693   0.73487   0.45605   0.00000  Uiso   1.00
C66    C     0.63919   0.73423   0.49936   0.00000  Uiso   1.00
C67    C     0.58731   0.84888   0.36409   0.00000  Uiso   1.00
C68    C     0.60827   0.84095   0.31705   0.00000  Uiso   1.00
C69    C     0.64115   0.88883   0.29679   0.00000  Uiso   1.00
H70    H     0.58058   0.94347   0.46100   0.00000  Uiso   1.00
H71    H     0.46526   0.96702   0.47163   0.00000  Uiso   1.00
H72    H     0.63919   0.88618   0.52880   0.00000  Uiso   1.00
H73    H     0.64052   0.99224   0.38983   0.00000  Uiso   1.00
H74    H     0.33235   0.96939   0.47201   0.00000  Uiso   1.00
H75    H     0.69910   0.79892   0.59256   0.00000  Uiso   1.00
H76    H     0.70192   0.02259   0.29951   0.00000  Uiso   1.00
H77    H     0.54158   0.76055   0.37303   0.00000  Uiso   1.00
H78    H     0.42412   0.77407   0.37882   0.00000  Uiso   1.00
H79    H     0.59805   0.69323   0.43600   0.00000  Uiso   1.00
H80    H     0.59938   0.79929   0.29703   0.00000  Uiso   1.00
H81    H     0.29896   0.81278   0.39669   0.00000  Uiso   1.00
H82    H     0.66571   0.64232   0.51724   0.00000  Uiso   1.00
H83    H     0.66853   0.86598   0.22419   0.00000  Uiso   1.00
O84    O     0.23909   0.90326   0.43976   0.00000  Uiso   1.00
O85    O     0.72027   0.67963   0.59791   0.00000  Uiso   1.00
O86    O     0.72395   0.97307   0.21344   0.00000  Uiso   1.00
N87    N     0.34061   0.93068   0.45348   0.00000  Uiso   1.00
N88    N     0.68350   0.77131   0.56619   0.00000  Uiso   1.00
N89    N     0.68614   0.98041   0.29222   0.00000  Uiso   1.00
N90    N     0.32264   0.84641   0.41295   0.00000  Uiso   1.00
N91    N     0.66553   0.68704   0.52566   0.00000  Uiso   1.00
N92    N     0.66817   0.89614   0.25169   0.00000  Uiso   1.00
C93    C     0.92836   0.59844   0.94084   0.00000  Uiso   1.00
C94    C     0.99642   0.61100   0.93441   0.00000  Uiso   1.00
C95    C     0.04364   0.57463   0.95159   0.00000  Uiso   1.00
C96    C     0.10281   0.59401   0.94195   0.00000  Uiso   1.00
C97    C     0.20675   0.60535   0.93593   0.00000  Uiso   1.00
C98    C     0.90193   0.65493   0.96548   0.00000  Uiso   1.00
C99    C     0.86969   0.65549   0.00878   0.00000  Uiso   1.00
C100   C     0.84931   0.71185   0.02529   0.00000  Uiso   1.00
C101   C     0.80651   0.79138   0.06749   0.00000  Uiso   1.00
C102   C     0.90121   0.59730   0.88998   0.00000  Uiso   1.00
C103   C     0.86835   0.54940   0.86979   0.00000  Uiso   1.00
C104   C     0.84735   0.55725   0.82273   0.00000  Uiso   1.00
C105   C     0.80343   0.54730   0.74768   0.00000  Uiso   1.00
C106   C     0.94949   0.69754   0.89318   0.00000  Uiso   1.00
C107   C     0.00790   0.66483   0.90853   0.00000  Uiso   1.00
C108   C     0.06702   0.68427   0.89886   0.00000  Uiso   1.00
C109   C     0.11431   0.64793   0.91602   0.00000  Uiso   1.00
C110   C     0.91340   0.70875   0.93960   0.00000  Uiso   1.00
C111   C     0.89307   0.76513   0.95605   0.00000  Uiso   1.00
C112   C     0.86081   0.76577   0.99936   0.00000  Uiso   1.00
C113   C     0.91269   0.65112   0.86409   0.00000  Uiso   1.00
C114   C     0.89173   0.65905   0.81705   0.00000  Uiso   1.00
C115   C     0.85885   0.61117   0.79679   0.00000  Uiso   1.00
H116   H     0.91942   0.55653   0.96100   0.00000  Uiso   1.00
H117   H     0.03474   0.53298   0.97163   0.00000  Uiso   1.00
H118   H     0.86081   0.61382   0.02880   0.00000  Uiso   1.00
H119   H     0.85948   0.50776   0.88983   0.00000  Uiso   1.00
H120   H     0.16765   0.53061   0.97201   0.00000  Uiso   1.00
H121   H     0.80090   0.70108   0.09256   0.00000  Uiso   1.00
H122   H     0.79808   0.47741   0.79951   0.00000  Uiso   1.00
H123   H     0.95842   0.73945   0.87303   0.00000  Uiso   1.00
H124   H     0.07588   0.72593   0.87882   0.00000  Uiso   1.00
H125   H     0.90195   0.80677   0.93600   0.00000  Uiso   1.00
H126   H     0.90062   0.70071   0.79703   0.00000  Uiso   1.00
H127   H     0.20104   0.68722   0.89669   0.00000  Uiso   1.00
H128   H     0.83429   0.85768   0.01724   0.00000  Uiso   1.00
H129   H     0.83147   0.63402   0.72419   0.00000  Uiso   1.00
O130   O     0.26091   0.59674   0.93976   0.00000  Uiso   1.00
O131   O     0.77973   0.82037   0.09791   0.00000  Uiso   1.00
O132   O     0.77605   0.52693   0.71344   0.00000  Uiso   1.00
N133   N     0.15939   0.56932   0.95348   0.00000  Uiso   1.00
N134   N     0.81650   0.72869   0.06619   0.00000  Uiso   1.00
N135   N     0.81386   0.51959   0.79222   0.00000  Uiso   1.00
N136   N     0.17736   0.65359   0.91295   0.00000  Uiso   1.00
N137   N     0.83447   0.81296   0.02566   0.00000  Uiso   1.00
N138   N     0.83183   0.60386   0.75169   0.00000  Uiso   1.00
C139   C     0.42836   0.09844   0.44084   0.00000  Uiso   1.00
C140   C     0.49642   0.11100   0.43441   0.00000  Uiso   1.00
C141   C     0.54364   0.07463   0.45159   0.00000  Uiso   1.00
C142   C     0.60281   0.09401   0.44195   0.00000  Uiso   1.00
C143   C     0.70675   0.10535   0.43593   0.00000  Uiso   1.00
C144   C     0.40193   0.15493   0.46548   0.00000  Uiso   1.00
C145   C     0.36969   0.15549   0.50878   0.00000  Uiso   1.00
C146   C     0.34931   0.21185   0.52529   0.00000  Uiso   1.00
C147   C     0.30651   0.29138   0.56749   0.00000  Uiso   1.00
C148   C     0.40121   0.09730   0.38998   0.00000  Uiso   1.00
C149   C     0.36835   0.04940   0.36979   0.00000  Uiso   1.00
C150   C     0.34735   0.05725   0.32273   0.00000  Uiso   1.00
C151   C     0.30343   0.04730   0.24768   0.00000  Uiso   1.00
C152   C     0.44949   0.19754   0.39318   0.00000  Uiso   1.00
C153   C     0.50790   0.16483   0.40853   0.00000  Uiso   1.00
C154   C     0.56702   0.18427   0.39886   0.00000  Uiso   1.00
C155   C     0.61431   0.14793   0.41602   0.00000  Uiso   1.00
C156   C     0.41340   0.20875   0.43960   0.00000  Uiso   1.00
C157   C     0.39307   0.26513   0.45605   0.00000  Uiso   1.00
C158   C     0.36081   0.26577   0.49936   0.00000  Uiso   1.00
C159   C     0.41269   0.15112   0.36409   0.00000  Uiso   1.00
C160   C     0.39173   0.15905   0.31705   0.00000  Uiso   1.00
C161   C     0.35885   0.11117   0.29679   0.00000  Uiso   1.00
H162   H     0.41942   0.05653   0.46100   0.00000  Uiso   1.00
H163   H     0.53474   0.03298   0.47163   0.00000  Uiso   1.00
H164   H     0.36081   0.11382   0.52880   0.00000  Uiso   1.00
H165   H     0.35948   0.00776   0.38983   0.00000  Uiso   1.00
H166   H     0.66765   0.03061   0.47201   0.00000  Uiso   1.00
H167   H     0.30090   0.20108   0.59256   0.00000  Uiso   1.00
H168   H     0.29808   0.97741   0.29951   0.00000  Uiso   1.00
H169   H     0.45842   0.23945   0.37303   0.00000  Uiso   1.00
H170   H     0.57588   0.22593   0.37882   0.00000  Uiso   1.00
H171   H     0.40195   0.30677   0.43600   0.00000  Uiso   1.00
H172   H     0.40062   0.20071   0.29703   0.00000  Uiso   1.00
H173   H     0.70104   0.18722   0.39669   0.00000  Uiso   1.00
H174   H     0.33429   0.35768   0.51724   0.00000  Uiso   1.00
H175   H     0.33147   0.13402   0.22419   0.00000  Uiso   1.00
O176   O     0.76091   0.09674   0.43976   0.00000  Uiso   1.00
O177   O     0.27973   0.32037   0.59791   0.00000  Uiso   1.00
O178   O     0.27605   0.02693   0.21344   0.00000  Uiso   1.00
N179   N     0.65939   0.06932   0.45348   0.00000  Uiso   1.00
N180   N     0.31650   0.22869   0.56619   0.00000  Uiso   1.00
N181   N     0.31386   0.01959   0.29222   0.00000  Uiso   1.00
N182   N     0.67736   0.15359   0.41295   0.00000  Uiso   1.00
N183   N     0.33447   0.31296   0.52566   0.00000  Uiso   1.00
N184   N     0.33183   0.10386   0.25169   0.00000  Uiso   1.00
C185   C     0.40156   0.92836   0.05916   0.00000  Uiso   1.00
C186   C     0.38900   0.99642   0.06559   0.00000  Uiso   1.00
C187   C     0.42537   0.04364   0.04841   0.00000  Uiso   1.00
C188   C     0.40599   0.10281   0.05805   0.00000  Uiso   1.00
C189   C     0.39465   0.20675   0.06407   0.00000  Uiso   1.00
C190   C     0.34507   0.90193   0.03452   0.00000  Uiso   1.00
C191   C     0.34451   0.86969   0.99122   0.00000  Uiso   1.00
C192   C     0.28815   0.84931   0.97471   0.00000  Uiso   1.00
C193   C     0.20862   0.80651   0.93251   0.00000  Uiso   1.00
C194   C     0.40270   0.90121   0.11002   0.00000  Uiso   1.00
C195   C     0.45060   0.86835   0.13021   0.00000  Uiso   1.00
C196   C     0.44275   0.84735   0.17727   0.00000  Uiso   1.00
C197   C     0.45270   0.80343   0.25232   0.00000  Uiso   1.00
C198   C     0.30246   0.94949   0.10682   0.00000  Uiso   1.00
C199   C     0.33517   0.00790   0.09147   0.00000  Uiso   1.00
C200   C     0.31573   0.06702   0.10114   0.00000  Uiso   1.00
C201   C     0.35207   0.11431   0.08398   0.00000  Uiso   1.00
C202   C     0.29125   0.91340   0.06040   0.00000  Uiso   1.00
C203   C     0.23487   0.89307   0.04395   0.00000  Uiso   1.00
C204   C     0.23423   0.86081   0.00064   0.00000  Uiso   1.00
C205   C     0.34888   0.91269   0.13591   0.00000  Uiso   1.00
C206   C     0.34095   0.89173   0.18295   0.00000  Uiso   1.00
C207   C     0.38883   0.85885   0.20321   0.00000  Uiso   1.00
H208   H     0.44347   0.91942   0.03900   0.00000  Uiso   1.00
H209   H     0.46702   0.03474   0.02837   0.00000  Uiso   1.00
H210   H     0.38618   0.86081   0.97120   0.00000  Uiso   1.00
H211   H     0.49224   0.85948   0.11017   0.00000  Uiso   1.00
H212   H     0.46939   0.16765   0.02799   0.00000  Uiso   1.00
H213   H     0.29892   0.80090   0.90744   0.00000  Uiso   1.00
H214   H     0.52259   0.79808   0.20049   0.00000  Uiso   1.00
H215   H     0.26055   0.95842   0.12697   0.00000  Uiso   1.00
H216   H     0.27407   0.07588   0.12118   0.00000  Uiso   1.00
H217   H     0.19323   0.90195   0.06400   0.00000  Uiso   1.00
H218   H     0.29929   0.90062   0.20297   0.00000  Uiso   1.00
H219   H     0.31278   0.20104   0.10331   0.00000  Uiso   1.00
H220   H     0.14232   0.83429   0.98276   0.00000  Uiso   1.00
H221   H     0.36598   0.83147   0.27581   0.00000  Uiso   1.00
O222   O     0.40326   0.26091   0.06024   0.00000  Uiso   1.00
O223   O     0.17963   0.77973   0.90209   0.00000  Uiso   1.00
O224   O     0.47307   0.77605   0.28656   0.00000  Uiso   1.00
N225   N     0.43068   0.15939   0.04652   0.00000  Uiso   1.00
N226   N     0.27131   0.81650   0.93381   0.00000  Uiso   1.00
N227   N     0.48041   0.81386   0.20778   0.00000  Uiso   1.00
N228   N     0.34641   0.17736   0.08705   0.00000  Uiso   1.00
N229   N     0.18704   0.83447   0.97434   0.00000  Uiso   1.00
N230   N     0.39614   0.83183   0.24831   0.00000  Uiso   1.00
C231   C     0.90156   0.42836   0.55916   0.00000  Uiso   1.00
C232   C     0.88900   0.49642   0.56559   0.00000  Uiso   1.00
C233   C     0.92537   0.54364   0.54841   0.00000  Uiso   1.00
C234   C     0.90599   0.60281   0.55805   0.00000  Uiso   1.00
C235   C     0.89465   0.70675   0.56407   0.00000  Uiso   1.00
C236   C     0.84507   0.40193   0.53452   0.00000  Uiso   1.00
C237   C     0.84451   0.36969   0.49122   0.00000  Uiso   1.00
C238   C     0.78815   0.34931   0.47471   0.00000  Uiso   1.00
C239   C     0.70862   0.30651   0.43251   0.00000  Uiso   1.00
C240   C     0.90270   0.40121   0.61002   0.00000  Uiso   1.00
C241   C     0.95060   0.36835   0.63021   0.00000  Uiso   1.00
C242   C     0.94275   0.34735   0.67727   0.00000  Uiso   1.00
C243   C     0.95270   0.30343   0.75232   0.00000  Uiso   1.00
C244   C     0.80246   0.44949   0.60682   0.00000  Uiso   1.00
C245   C     0.83517   0.50790   0.59147   0.00000  Uiso   1.00
C246   C     0.81573   0.56702   0.60114   0.00000  Uiso   1.00
C247   C     0.85207   0.61431   0.58398   0.00000  Uiso   1.00
C248   C     0.79125   0.41340   0.56040   0.00000  Uiso   1.00
C249   C     0.73487   0.39307   0.54395   0.00000  Uiso   1.00
C250   C     0.73423   0.36081   0.50064   0.00000  Uiso   1.00
C251   C     0.84888   0.41269   0.63591   0.00000  Uiso   1.00
C252   C     0.84095   0.39173   0.68295   0.00000  Uiso   1.00
C253   C     0.88883   0.35885   0.70321   0.00000  Uiso   1.00
H254   H     0.94347   0.41942   0.53900   0.00000  Uiso   1.00
H255   H     0.96702   0.53474   0.52837   0.00000  Uiso   1.00
H256   H     0.88618   0.36081   0.47120   0.00000  Uiso   1.00
H257   H     0.99224   0.35948   0.61017   0.00000  Uiso   1.00
H258   H     0.96939   0.66765   0.52799   0.00000  Uiso   1.00
H259   H     0.79892   0.30090   0.40744   0.00000  Uiso   1.00
H260   H     0.02259   0.29808   0.70049   0.00000  Uiso   1.00
H261   H     0.76055   0.45842   0.62697   0.00000  Uiso   1.00
H262   H     0.77407   0.57588   0.62118   0.00000  Uiso   1.00
H263   H     0.69323   0.40195   0.56400   0.00000  Uiso   1.00
H264   H     0.79929   0.40062   0.70297   0.00000  Uiso   1.00
H265   H     0.81278   0.70104   0.60331   0.00000  Uiso   1.00
H266   H     0.64232   0.33429   0.48276   0.00000  Uiso   1.00
H267   H     0.86598   0.33147   0.77581   0.00000  Uiso   1.00
O268   O     0.90326   0.76091   0.56024   0.00000  Uiso   1.00
O269   O     0.67963   0.27973   0.40209   0.00000  Uiso   1.00
O270   O     0.97307   0.27605   0.78656   0.00000  Uiso   1.00
N271   N     0.93068   0.65939   0.54652   0.00000  Uiso   1.00
N272   N     0.77131   0.31650   0.43381   0.00000  Uiso   1.00
N273   N     0.98041   0.31386   0.70778   0.00000  Uiso   1.00
N274   N     0.84641   0.67736   0.58705   0.00000  Uiso   1.00
N275   N     0.68704   0.33447   0.47434   0.00000  Uiso   1.00
N276   N     0.89614   0.33183   0.74831   0.00000  Uiso   1.00
C277   C     0.59844   0.07164   0.05916   0.00000  Uiso   1.00
C278   C     0.61100   0.00358   0.06559   0.00000  Uiso   1.00
C279   C     0.57463   0.95636   0.04841   0.00000  Uiso   1.00
C280   C     0.59401   0.89719   0.05805   0.00000  Uiso   1.00
C281   C     0.60535   0.79325   0.06407   0.00000  Uiso   1.00
C282   C     0.65493   0.09807   0.03452   0.00000  Uiso   1.00
C283   C     0.65549   0.13031   0.99122   0.00000  Uiso   1.00
C284   C     0.71185   0.15069   0.97471   0.00000  Uiso   1.00
C285   C     0.79138   0.19349   0.93251   0.00000  Uiso   1.00
C286   C     0.59730   0.09879   0.11002   0.00000  Uiso   1.00
C287   C     0.54940   0.13165   0.13021   0.00000  Uiso   1.00
C288   C     0.55725   0.15265   0.17727   0.00000  Uiso   1.00
C289   C     0.54730   0.19657   0.25232   0.00000  Uiso   1.00
C290   C     0.69754   0.05051   0.10682   0.00000  Uiso   1.00
C291   C     0.66483   0.99210   0.09147   0.00000  Uiso   1.00
C292   C     0.68427   0.93298   0.10114   0.00000  Uiso   1.00
C293   C     0.64793   0.88569   0.08398   0.00000  Uiso   1.00
C294   C     0.70875   0.08660   0.06040   0.00000  Uiso   1.00
C295   C     0.76513   0.10693   0.04395   0.00000  Uiso   1.00
C296   C     0.76577   0.13919   0.00064   0.00000  Uiso   1.00
C297   C     0.65112   0.08731   0.13591   0.00000  Uiso   1.00
C298   C     0.65905   0.10827   0.18295   0.00000  Uiso   1.00
C299   C     0.61117   0.14115   0.20321   0.00000  Uiso   1.00
H300   H     0.55653   0.08058   0.03900   0.00000  Uiso   1.00
H301   H     0.53298   0.96526   0.02837   0.00000  Uiso   1.00
H302   H     0.61382   0.13919   0.97120   0.00000  Uiso   1.00
H303   H     0.50776   0.14052   0.11017   0.00000  Uiso   1.00
H304   H     0.53061   0.83235   0.02799   0.00000  Uiso   1.00
H305   H     0.70108   0.19910   0.90744   0.00000  Uiso   1.00
H306   H     0.47741   0.20192   0.20049   0.00000  Uiso   1.00
H307   H     0.73945   0.04158   0.12697   0.00000  Uiso   1.00
H308   H     0.72593   0.92412   0.12118   0.00000  Uiso   1.00
H309   H     0.80677   0.09805   0.06400   0.00000  Uiso   1.00
H310   H     0.70071   0.09938   0.20297   0.00000  Uiso   1.00
H311   H     0.68722   0.79896   0.10331   0.00000  Uiso   1.00
H312   H     0.85768   0.16571   0.98276   0.00000  Uiso   1.00
H313   H     0.63402   0.16853   0.27581   0.00000  Uiso   1.00
O314   O     0.59674   0.73909   0.06024   0.00000  Uiso   1.00
O315   O     0.82037   0.22027   0.90209   0.00000  Uiso   1.00
O316   O     0.52693   0.22395   0.28656   0.00000  Uiso   1.00
N317   N     0.56932   0.84061   0.04652   0.00000  Uiso   1.00
N318   N     0.72869   0.18350   0.93381   0.00000  Uiso   1.00
N319   N     0.51959   0.18614   0.20778   0.00000  Uiso   1.00
N320   N     0.65359   0.82264   0.08705   0.00000  Uiso   1.00
N321   N     0.81296   0.16553   0.97434   0.00000  Uiso   1.00
N322   N     0.60386   0.16817   0.24831   0.00000  Uiso   1.00
C323   C     0.09844   0.57164   0.55916   0.00000  Uiso   1.00
C324   C     0.11100   0.50358   0.56559   0.00000  Uiso   1.00
C325   C     0.07463   0.45636   0.54841   0.00000  Uiso   1.00
C326   C     0.09401   0.39719   0.55805   0.00000  Uiso   1.00
C327   C     0.10535   0.29325   0.56407   0.00000  Uiso   1.00
C328   C     0.15493   0.59807   0.53452   0.00000  Uiso   1.00
C329   C     0.15549   0.63031   0.49122   0.00000  Uiso   1.00
C330   C     0.21185   0.65069   0.47471   0.00000  Uiso   1.00
C331   C     0.29138   0.69349   0.43251   0.00000  Uiso   1.00
C332   C     0.09730   0.59879   0.61002   0.00000  Uiso   1.00
C333   C     0.04940   0.63165   0.63021   0.00000  Uiso   1.00
C334   C     0.05725   0.65265   0.67727   0.00000  Uiso   1.00
C335   C     0.04730   0.69657   0.75232   0.00000  Uiso   1.00
C336   C     0.19754   0.55051   0.60682   0.00000  Uiso   1.00
C337   C     0.16483   0.49210   0.59147   0.00000  Uiso   1.00
C338   C     0.18427   0.43298   0.60114   0.00000  Uiso   1.00
C339   C     0.14793   0.38569   0.58398   0.00000  Uiso   1.00
C340   C     0.20875   0.58660   0.56040   0.00000  Uiso   1.00
C341   C     0.26513   0.60693   0.54395   0.00000  Uiso   1.00
C342   C     0.26577   0.63919   0.50064   0.00000  Uiso   1.00
C343   C     0.15112   0.58731   0.63591   0.00000  Uiso   1.00
C344   C     0.15905   0.60827   0.68295   0.00000  Uiso   1.00
C345   C     0.11117   0.64115   0.70321   0.00000  Uiso   1.00
H346   H     0.05653   0.58058   0.53900   0.00000  Uiso   1.00
H347   H     0.03298   0.46526   0.52837   0.00000  Uiso   1.00
H348   H     0.11382   0.63919   0.47120   0.00000  Uiso   1.00
H349   H     0.00776   0.64052   0.61017   0.00000  Uiso   1.00
H350   H     0.03061   0.33235   0.52799   0.00000  Uiso   1.00
H351   H     0.20108   0.69910   0.40744   0.00000  Uiso   1.00
H352   H     0.97741   0.70192   0.70049   0.00000  Uiso   1.00
H353   H     0.23945   0.54158   0.62697   0.00000  Uiso   1.00
H354   H     0.22593   0.42412   0.62118   0.00000  Uiso   1.00
H355   H     0.30677   0.59805   0.56400   0.00000  Uiso   1.00
H356   H     0.20071   0.59938   0.70297   0.00000  Uiso   1.00
H357   H     0.18722   0.29896   0.60331   0.00000  Uiso   1.00
H358   H     0.35768   0.66571   0.48276   0.00000  Uiso   1.00
H359   H     0.13402   0.66853   0.77581   0.00000  Uiso   1.00
O360   O     0.09674   0.23909   0.56024   0.00000  Uiso   1.00
O361   O     0.32037   0.72027   0.40209   0.00000  Uiso   1.00
O362   O     0.02693   0.72395   0.78656   0.00000  Uiso   1.00
N363   N     0.06932   0.34061   0.54652   0.00000  Uiso   1.00
N364   N     0.22869   0.68350   0.43381   0.00000  Uiso   1.00
N365   N     0.01959   0.68614   0.70778   0.00000  Uiso   1.00
N366   N     0.15359   0.32264   0.58705   0.00000  Uiso   1.00
N367   N     0.31296   0.66553   0.47434   0.00000  Uiso   1.00
N368   N     0.10386   0.66817   0.74831   0.00000  Uiso   1.00
C369   C     0.42836   0.40156   0.80916   0.00000  Uiso   1.00
C370   C     0.49642   0.38900   0.81559   0.00000  Uiso   1.00
C371   C     0.54364   0.42537   0.79841   0.00000  Uiso   1.00
C372   C     0.60281   0.40599   0.80805   0.00000  Uiso   1.00
C373   C     0.70675   0.39465   0.81407   0.00000  Uiso   1.00
C374   C     0.40193   0.34507   0.78452   0.00000  Uiso   1.00
C375   C     0.36969   0.34451   0.74122   0.00000  Uiso   1.00
C376   C     0.34931   0.28815   0.72471   0.00000  Uiso   1.00
C377   C     0.30651   0.20862   0.68251   0.00000  Uiso   1.00
C378   C     0.40121   0.40270   0.86002   0.00000  Uiso   1.00
C379   C     0.36835   0.45060   0.88021   0.00000  Uiso   1.00
C380   C     0.34735   0.44275   0.92727   0.00000  Uiso   1.00
C381   C     0.30343   0.45270   0.00232   0.00000  Uiso   1.00
C382   C     0.44949   0.30246   0.85682   0.00000  Uiso   1.00
C383   C     0.50790   0.33517   0.84147   0.00000  Uiso   1.00
C384   C     0.56702   0.31573   0.85114   0.00000  Uiso   1.00
C385   C     0.61431   0.35207   0.83398   0.00000  Uiso   1.00
C386   C     0.41340   0.29125   0.81040   0.00000  Uiso   1.00
C387   C     0.39307   0.23487   0.79395   0.00000  Uiso   1.00
C388   C     0.36081   0.23423   0.75064   0.00000  Uiso   1.00
C389   C     0.41269   0.34888   0.88591   0.00000  Uiso   1.00
C390   C     0.39173   0.34095   0.93295   0.00000  Uiso   1.00
C391   C     0.35885   0.38883   0.95321   0.00000  Uiso   1.00
H392   H     0.41942   0.44347   0.78900   0.00000  Uiso   1.00
H393   H     0.53474   0.46702   0.77837   0.00000  Uiso   1.00
H394   H     0.36081   0.38618   0.72120   0.00000  Uiso   1.00
H395   H     0.35948   0.49224   0.86017   0.00000  Uiso   1.00
H396   H     0.66765   0.46939   0.77799   0.00000  Uiso   1.00
H397   H     0.30090   0.29892   0.65744   0.00000  Uiso   1.00
H398   H     0.29808   0.52259   0.95049   0.00000  Uiso   1.00
H399   H     0.45842   0.26055   0.87697   0.00000  Uiso   1.00
H400   H     0.57588   0.27407   0.87118   0.00000  Uiso   1.00
H401   H     0.40195   0.19323   0.81400   0.00000  Uiso   1.00
H402   H     0.40062   0.29929   0.95297   0.00000  Uiso   1.00
H403   H     0.70104   0.31278   0.85331   0.00000  Uiso   1.00
H404   H     0.33429   0.14232   0.73276   0.00000  Uiso   1.00
H405   H     0.33147   0.36598   0.02581   0.00000  Uiso   1.00
O406   O     0.76091   0.40326   0.81024   0.00000  Uiso   1.00
O407   O     0.27973   0.17963   0.65209   0.00000  Uiso   1.00
O408   O     0.27605   0.47307   0.03656   0.00000  Uiso   1.00
N409   N     0.65939   0.43068   0.79652   0.00000  Uiso   1.00
N410   N     0.31650   0.27131   0.68381   0.00000  Uiso   1.00
N411   N     0.31386   0.48041   0.95778   0.00000  Uiso   1.00
N412   N     0.67736   0.34641   0.83705   0.00000  Uiso   1.00
N413   N     0.33447   0.18704   0.72434   0.00000  Uiso   1.00
N414   N     0.33183   0.39614   0.99831   0.00000  Uiso   1.00
C415   C     0.92836   0.90156   0.30916   0.00000  Uiso   1.00
C416   C     0.99642   0.88900   0.31559   0.00000  Uiso   1.00
C417   C     0.04364   0.92537   0.29841   0.00000  Uiso   1.00
C418   C     0.10281   0.90599   0.30805   0.00000  Uiso   1.00
C419   C     0.20675   0.89465   0.31407   0.00000  Uiso   1.00
C420   C     0.90193   0.84507   0.28452   0.00000  Uiso   1.00
C421   C     0.86969   0.84451   0.24122   0.00000  Uiso   1.00
C422   C     0.84931   0.78815   0.22471   0.00000  Uiso   1.00
C423   C     0.80651   0.70862   0.18251   0.00000  Uiso   1.00
C424   C     0.90121   0.90270   0.36002   0.00000  Uiso   1.00
C425   C     0.86835   0.95060   0.38021   0.00000  Uiso   1.00
C426   C     0.84735   0.94275   0.42727   0.00000  Uiso   1.00
C427   C     0.80343   0.95270   0.50232   0.00000  Uiso   1.00
C428   C     0.94949   0.80246   0.35682   0.00000  Uiso   1.00
C429   C     0.00790   0.83517   0.34147   0.00000  Uiso   1.00
C430   C     0.06702   0.81573   0.35114   0.00000  Uiso   1.00
C431   C     0.11431   0.85207   0.33398   0.00000  Uiso   1.00
C432   C     0.91340   0.79125   0.31040   0.00000  Uiso   1.00
C433   C     0.89307   0.73487   0.29395   0.00000  Uiso   1.00
C434   C     0.86081   0.73423   0.25064   0.00000  Uiso   1.00
C435   C     0.91269   0.84888   0.38591   0.00000  Uiso   1.00
C436   C     0.89173   0.84095   0.43295   0.00000  Uiso   1.00
C437   C     0.85885   0.88883   0.45321   0.00000  Uiso   1.00
H438   H     0.91942   0.94347   0.28900   0.00000  Uiso   1.00
H439   H     0.03474   0.96702   0.27837   0.00000  Uiso   1.00
H440   H     0.86081   0.88618   0.22120   0.00000  Uiso   1.00
H441   H     0.85948   0.99224   0.36017   0.00000  Uiso   1.00
H442   H     0.16765   0.96939   0.27799   0.00000  Uiso   1.00
H443   H     0.80090   0.79892   0.15744   0.00000  Uiso   1.00
H444   H     0.79808   0.02259   0.45049   0.00000  Uiso   1.00
H445   H     0.95842   0.76055   0.37697   0.00000  Uiso   1.00
H446   H     0.07588   0.77407   0.37118   0.00000  Uiso   1.00
H447   H     0.90195   0.69323   0.31400   0.00000  Uiso   1.00
H448   H     0.90062   0.79929   0.45297   0.00000  Uiso   1.00
H449   H     0.20104   0.81278   0.35331   0.00000  Uiso   1.00
H450   H     0.83429   0.64232   0.23276   0.00000  Uiso   1.00
H451   H     0.83147   0.86598   0.52581   0.00000  Uiso   1.00
O452   O     0.26091   0.90326   0.31024   0.00000  Uiso   1.00
O453   O     0.77973   0.67963   0.15209   0.00000  Uiso   1.00
O454   O     0.77605   0.97307   0.53656   0.00000  Uiso   1.00
N455   N     0.15939   0.93068   0.29652   0.00000  Uiso   1.00
N456   N     0.81650   0.77131   0.18381   0.00000  Uiso   1.00
N457   N     0.81386   0.98041   0.45778   0.00000  Uiso   1.00
N458   N     0.17736   0.84641   0.33705   0.00000  Uiso   1.00
N459   N     0.83447   0.68704   0.22434   0.00000  Uiso   1.00
N460   N     0.83183   0.89614   0.49831   0.00000  Uiso   1.00
C461   C     0.57164   0.59844   0.80916   0.00000  Uiso   1.00
C462   C     0.50358   0.61100   0.81559   0.00000  Uiso   1.00
C463   C     0.45636   0.57463   0.79841   0.00000  Uiso   1.00
C464   C     0.39719   0.59401   0.80805   0.00000  Uiso   1.00
C465   C     0.29325   0.60535   0.81407   0.00000  Uiso   1.00
C466   C     0.59807   0.65493   0.78452   0.00000  Uiso   1.00
C467   C     0.63031   0.65549   0.74122   0.00000  Uiso   1.00
C468   C     0.65069   0.71185   0.72471   0.00000  Uiso   1.00
C469   C     0.69349   0.79138   0.68251   0.00000  Uiso   1.00
C470   C     0.59879   0.59730   0.86002   0.00000  Uiso   1.00
C471   C     0.63165   0.54940   0.88021   0.00000  Uiso   1.00
C472   C     0.65265   0.55725   0.92727   0.00000  Uiso   1.00
C473   C     0.69657   0.54730   0.00232   0.00000  Uiso   1.00
C474   C     0.55051   0.69754   0.85682   0.00000  Uiso   1.00
C475   C     0.49210   0.66483   0.84147   0.00000  Uiso   1.00
C476   C     0.43298   0.68427   0.85114   0.00000  Uiso   1.00
C477   C     0.38569   0.64793   0.83398   0.00000  Uiso   1.00
C478   C     0.58660   0.70875   0.81040   0.00000  Uiso   1.00
C479   C     0.60693   0.76513   0.79395   0.00000  Uiso   1.00
C480   C     0.63919   0.76577   0.75064   0.00000  Uiso   1.00
C481   C     0.58731   0.65112   0.88591   0.00000  Uiso   1.00
C482   C     0.60827   0.65905   0.93295   0.00000  Uiso   1.00
C483   C     0.64115   0.61117   0.95321   0.00000  Uiso   1.00
H484   H     0.58058   0.55653   0.78900   0.00000  Uiso   1.00
H485   H     0.46526   0.53298   0.77837   0.00000  Uiso   1.00
H486   H     0.63919   0.61382   0.72120   0.00000  Uiso   1.00
H487   H     0.64052   0.50776   0.86017   0.00000  Uiso   1.00
H488   H     0.33235   0.53061   0.77799   0.00000  Uiso   1.00
H489   H     0.69910   0.70108   0.65744   0.00000  Uiso   1.00
H490   H     0.70192   0.47741   0.95049   0.00000  Uiso   1.00
H491   H     0.54158   0.73945   0.87697   0.00000  Uiso   1.00
H492   H     0.42412   0.72593   0.87118   0.00000  Uiso   1.00
H493   H     0.59805   0.80677   0.81400   0.00000  Uiso   1.00
H494   H     0.59938   0.70071   0.95297   0.00000  Uiso   1.00
H495   H     0.29896   0.68722   0.85331   0.00000  Uiso   1.00
H496   H     0.66571   0.85768   0.73276   0.00000  Uiso   1.00
H497   H     0.66853   0.63402   0.02581   0.00000  Uiso   1.00
O498   O     0.23909   0.59674   0.81024   0.00000  Uiso   1.00
O499   O     0.72027   0.82037   0.65209   0.00000  Uiso   1.00
O500   O     0.72395   0.52693   0.03656   0.00000  Uiso   1.00
N501   N     0.34061   0.56932   0.79652   0.00000  Uiso   1.00
N502   N     0.68350   0.72869   0.68381   0.00000  Uiso   1.00
N503   N     0.68614   0.51959   0.95778   0.00000  Uiso   1.00
N504   N     0.32264   0.65359   0.83705   0.00000  Uiso   1.00
N505   N     0.66553   0.81296   0.72434   0.00000  Uiso   1.00
N506   N     0.66817   0.60386   0.99831   0.00000  Uiso   1.00
C507   C     0.07164   0.09844   0.30916   0.00000  Uiso   1.00
C508   C     0.00358   0.11100   0.31559   0.00000  Uiso   1.00
C509   C     0.95636   0.07463   0.29841   0.00000  Uiso   1.00
C510   C     0.89719   0.09401   0.30805   0.00000  Uiso   1.00
C511   C     0.79325   0.10535   0.31407   0.00000  Uiso   1.00
C512   C     0.09807   0.15493   0.28452   0.00000  Uiso   1.00
C513   C     0.13031   0.15549   0.24122   0.00000  Uiso   1.00
C514   C     0.15069   0.21185   0.22471   0.00000  Uiso   1.00
C515   C     0.19349   0.29138   0.18251   0.00000  Uiso   1.00
C516   C     0.09879   0.09730   0.36002   0.00000  Uiso   1.00
C517   C     0.13165   0.04940   0.38021   0.00000  Uiso   1.00
C518   C     0.15265   0.05725   0.42727   0.00000  Uiso   1.00
C519   C     0.19657   0.04730   0.50232   0.00000  Uiso   1.00
C520   C     0.05051   0.19754   0.35682   0.00000  Uiso   1.00
C521   C     0.99210   0.16483   0.34147   0.00000  Uiso   1.00
C522   C     0.93298   0.18427   0.35114   0.00000  Uiso   1.00
C523   C     0.88569   0.14793   0.33398   0.00000  Uiso   1.00
C524   C     0.08660   0.20875   0.31040   0.00000  Uiso   1.00
C525   C     0.10693   0.26513   0.29395   0.00000  Uiso   1.00
C526   C     0.13919   0.26577   0.25064   0.00000  Uiso   1.00
C527   C     0.08731   0.15112   0.38591   0.00000  Uiso   1.00
C528   C     0.10827   0.15905   0.43295   0.00000  Uiso   1.00
C529   C     0.14115   0.11117   0.45321   0.00000  Uiso   1.00
H530   H     0.08058   0.05653   0.28900   0.00000  Uiso   1.00
H531   H     0.96526   0.03298   0.27837   0.00000  Uiso   1.00
H532   H     0.13919   0.11382   0.22120   0.00000  Uiso   1.00
H533   H     0.14052   0.00776   0.36017   0.00000  Uiso   1.00
H534   H     0.83235   0.03061   0.27799   0.00000  Uiso   1.00
H535   H     0.19910   0.20108   0.15744   0.00000  Uiso   1.00
H536   H     0.20192   0.97741   0.45049   0.00000  Uiso   1.00
H537   H     0.04158   0.23945   0.37697   0.00000  Uiso   1.00
H538   H     0.92412   0.22593   0.37118   0.00000  Uiso   1.00
H539   H     0.09805   0.30677   0.31400   0.00000  Uiso   1.00
H540   H     0.09938   0.20071   0.45297   0.00000  Uiso   1.00
H541   H     0.79896   0.18722   0.35331   0.00000  Uiso   1.00
H542   H     0.16571   0.35768   0.23276   0.00000  Uiso   1.00
H543   H     0.16853   0.13402   0.52581   0.00000  Uiso   1.00
O544   O     0.73909   0.09674   0.31024   0.00000  Uiso   1.00
O545   O     0.22027   0.32037   0.15209   0.00000  Uiso   1.00
O546   O     0.22395   0.02693   0.53656   0.00000  Uiso   1.00
N547   N     0.84061   0.06932   0.29652   0.00000  Uiso   1.00
N548   N     0.18350   0.22869   0.18381   0.00000  Uiso   1.00
N549   N     0.18614   0.01959   0.45778   0.00000  Uiso   1.00
N550   N     0.82264   0.15359   0.33705   0.00000  Uiso   1.00
N551   N     0.16553   0.31296   0.22434   0.00000  Uiso   1.00
N552   N     0.16817   0.10386   0.49831   0.00000  Uiso   1.00
C553   C     0.09844   0.92836   0.69084   0.00000  Uiso   1.00
C554   C     0.11100   0.99642   0.68441   0.00000  Uiso   1.00
C555   C     0.07463   0.04364   0.70159   0.00000  Uiso   1.00
C556   C     0.09401   0.10281   0.69195   0.00000  Uiso   1.00
C557   C     0.10535   0.20675   0.68593   0.00000  Uiso   1.00
C558   C     0.15493   0.90193   0.71548   0.00000  Uiso   1.00
C559   C     0.15549   0.86969   0.75878   0.00000  Uiso   1.00
C560   C     0.21185   0.84931   0.77529   0.00000  Uiso   1.00
C561   C     0.29138   0.80651   0.81749   0.00000  Uiso   1.00
C562   C     0.09730   0.90121   0.63998   0.00000  Uiso   1.00
C563   C     0.04940   0.86835   0.61979   0.00000  Uiso   1.00
C564   C     0.05725   0.84735   0.57273   0.00000  Uiso   1.00
C565   C     0.04730   0.80343   0.49768   0.00000  Uiso   1.00
C566   C     0.19754   0.94949   0.64318   0.00000  Uiso   1.00
C567   C     0.16483   0.00790   0.65853   0.00000  Uiso   1.00
C568   C     0.18427   0.06702   0.64886   0.00000  Uiso   1.00
C569   C     0.14793   0.11431   0.66602   0.00000  Uiso   1.00
C570   C     0.20875   0.91340   0.68960   0.00000  Uiso   1.00
C571   C     0.26513   0.89307   0.70605   0.00000  Uiso   1.00
C572   C     0.26577   0.86081   0.74936   0.00000  Uiso   1.00
C573   C     0.15112   0.91269   0.61409   0.00000  Uiso   1.00
C574   C     0.15905   0.89173   0.56705   0.00000  Uiso   1.00
C575   C     0.11117   0.85885   0.54679   0.00000  Uiso   1.00
H576   H     0.05653   0.91942   0.71100   0.00000  Uiso   1.00
H577   H     0.03298   0.03474   0.72163   0.00000  Uiso   1.00
H578   H     0.11382   0.86081   0.77880   0.00000  Uiso   1.00
H579   H     0.00776   0.85948   0.63983   0.00000  Uiso   1.00
H580   H     0.03061   0.16765   0.72201   0.00000  Uiso   1.00
H581   H     0.20108   0.80090   0.84256   0.00000  Uiso   1.00
H582   H     0.97741   0.79808   0.54951   0.00000  Uiso   1.00
H583   H     0.23945   0.95842   0.62303   0.00000  Uiso   1.00
H584   H     0.22593   0.07588   0.62882   0.00000  Uiso   1.00
H585   H     0.30677   0.90195   0.68600   0.00000  Uiso   1.00
H586   H     0.20071   0.90062   0.54703   0.00000  Uiso   1.00
H587   H     0.18722   0.20104   0.64669   0.00000  Uiso   1.00
H588   H     0.35768   0.83429   0.76724   0.00000  Uiso   1.00
H589   H     0.13402   0.83147   0.47419   0.00000  Uiso   1.00
O590   O     0.09674   0.26091   0.68976   0.00000  Uiso   1.00
O591   O     0.32037   0.77973   0.84791   0.00000  Uiso   1.00
O592   O     0.02693   0.77605   0.46344   0.00000  Uiso   1.00
N593   N     0.06932   0.15939   0.70348   0.00000  Uiso   1.00
N594   N     0.22869   0.81650   0.81619   0.00000  Uiso   1.00
N595   N     0.01959   0.81386   0.54222   0.00000  Uiso   1.00
N596   N     0.15359   0.17736   0.66295   0.00000  Uiso   1.00
N597   N     0.31296   0.83447   0.77566   0.00000  Uiso   1.00
N598   N     0.10386   0.83183   0.50169   0.00000  Uiso   1.00
C599   C     0.59844   0.42836   0.19084   0.00000  Uiso   1.00
C600   C     0.61100   0.49642   0.18441   0.00000  Uiso   1.00
C601   C     0.57463   0.54364   0.20159   0.00000  Uiso   1.00
C602   C     0.59401   0.60281   0.19195   0.00000  Uiso   1.00
C603   C     0.60535   0.70675   0.18593   0.00000  Uiso   1.00
C604   C     0.65493   0.40193   0.21548   0.00000  Uiso   1.00
C605   C     0.65549   0.36969   0.25878   0.00000  Uiso   1.00
C606   C     0.71185   0.34931   0.27529   0.00000  Uiso   1.00
C607   C     0.79138   0.30651   0.31749   0.00000  Uiso   1.00
C608   C     0.59730   0.40121   0.13998   0.00000  Uiso   1.00
C609   C     0.54940   0.36835   0.11979   0.00000  Uiso   1.00
C610   C     0.55725   0.34735   0.07273   0.00000  Uiso   1.00
C611   C     0.54730   0.30343   0.99768   0.00000  Uiso   1.00
C612   C     0.69754   0.44949   0.14318   0.00000  Uiso   1.00
C613   C     0.66483   0.50790   0.15853   0.00000  Uiso   1.00
C614   C     0.68427   0.56702   0.14886   0.00000  Uiso   1.00
C615   C     0.64793   0.61431   0.16602   0.00000  Uiso   1.00
C616   C     0.70875   0.41340   0.18960   0.00000  Uiso   1.00
C617   C     0.76513   0.39307   0.20605   0.00000  Uiso   1.00
C618   C     0.76577   0.36081   0.24936   0.00000  Uiso   1.00
C619   C     0.65112   0.41269   0.11409   0.00000  Uiso   1.00
C620   C     0.65905   0.39173   0.06705   0.00000  Uiso   1.00
C621   C     0.61117   0.35885   0.04679   0.00000  Uiso   1.00
H622   H     0.55653   0.41942   0.21100   0.00000  Uiso   1.00
H623   H     0.53298   0.53474   0.22163   0.00000  Uiso   1.00
H624   H     0.61382   0.36081   0.27880   0.00000  Uiso   1.00
H625   H     0.50776   0.35948   0.13983   0.00000  Uiso   1.00
H626   H     0.53061   0.66765   0.22201   0.00000  Uiso   1.00
H627   H     0.70108   0.30090   0.34256   0.00000  Uiso   1.00
H628   H     0.47741   0.29808   0.04951   0.00000  Uiso   1.00
H629   H     0.73945   0.45842   0.12303   0.00000  Uiso   1.00
H630   H     0.72593   0.57588   0.12882   0.00000  Uiso   1.00
H631   H     0.80677   0.40195   0.18600   0.00000  Uiso   1.00
H632   H     0.70071   0.40062   0.04703   0.00000  Uiso   1.00
H633   H     0.68722   0.70104   0.14669   0.00000  Uiso   1.00
H634   H     0.85768   0.33429   0.26724   0.00000  Uiso   1.00
H635   H     0.63402   0.33147   0.97419   0.00000  Uiso   1.00
O636   O     0.59674   0.76091   0.18976   0.00000  Uiso   1.00
O637   O     0.82037   0.27973   0.34791   0.00000  Uiso   1.00
O638   O     0.52693   0.27605   0.96344   0.00000  Uiso   1.00
N639   N     0.56932   0.65939   0.20348   0.00000  Uiso   1.00
N640   N     0.72869   0.31650   0.31619   0.00000  Uiso   1.00
N641   N     0.51959   0.31386   0.04222   0.00000  Uiso   1.00
N642   N     0.65359   0.67736   0.16295   0.00000  Uiso   1.00
N643   N     0.81296   0.33447   0.27566   0.00000  Uiso   1.00
N644   N     0.60386   0.33183   0.00169   0.00000  Uiso   1.00
C645   C     0.90156   0.07164   0.69084   0.00000  Uiso   1.00
C646   C     0.88900   0.00358   0.68441   0.00000  Uiso   1.00
C647   C     0.92537   0.95636   0.70159   0.00000  Uiso   1.00
C648   C     0.90599   0.89719   0.69195   0.00000  Uiso   1.00
C649   C     0.89465   0.79325   0.68593   0.00000  Uiso   1.00
C650   C     0.84507   0.09807   0.71548   0.00000  Uiso   1.00
C651   C     0.84451   0.13031   0.75878   0.00000  Uiso   1.00
C652   C     0.78815   0.15069   0.77529   0.00000  Uiso   1.00
C653   C     0.70862   0.19349   0.81749   0.00000  Uiso   1.00
C654   C     0.90270   0.09879   0.63998   0.00000  Uiso   1.00
C655   C     0.95060   0.13165   0.61979   0.00000  Uiso   1.00
C656   C     0.94275   0.15265   0.57273   0.00000  Uiso   1.00
C657   C     0.95270   0.19657   0.49768   0.00000  Uiso   1.00
C658   C     0.80246   0.05051   0.64318   0.00000  Uiso   1.00
C659   C     0.83517   0.99210   0.65853   0.00000  Uiso   1.00
C660   C     0.81573   0.93298   0.64886   0.00000  Uiso   1.00
C661   C     0.85207   0.88569   0.66602   0.00000  Uiso   1.00
C662   C     0.79125   0.08660   0.68960   0.00000  Uiso   1.00
C663   C     0.73487   0.10693   0.70605   0.00000  Uiso   1.00
C664   C     0.73423   0.13919   0.74936   0.00000  Uiso   1.00
C665   C     0.84888   0.08731   0.61409   0.00000  Uiso   1.00
C666   C     0.84095   0.10827   0.56705   0.00000  Uiso   1.00
C667   C     0.88883   0.14115   0.54679   0.00000  Uiso   1.00
H668   H     0.94347   0.08058   0.71100   0.00000  Uiso   1.00
H669   H     0.96702   0.96526   0.72163   0.00000  Uiso   1.00
H670   H     0.88618   0.13919   0.77880   0.00000  Uiso   1.00
H671   H     0.99224   0.14052   0.63983   0.00000  Uiso   1.00
H672   H     0.96939   0.83235   0.72201   0.00000  Uiso   1.00
H673   H     0.79892   0.19910   0.84256   0.00000  Uiso   1.00
H674   H     0.02259   0.20192   0.54951   0.00000  Uiso   1.00
H675   H     0.76055   0.04158   0.62303   0.00000  Uiso   1.00
H676   H     0.77407   0.92412   0.62882   0.00000  Uiso   1.00
H677   H     0.69323   0.09805   0.68600   0.00000  Uiso   1.00
H678   H     0.79929   0.09938   0.54703   0.00000  Uiso   1.00
H679   H     0.81278   0.79896   0.64669   0.00000  Uiso   1.00
H680   H     0.64232   0.16571   0.76724   0.00000  Uiso   1.00
H681   H     0.86598   0.16853   0.47419   0.00000  Uiso   1.00
O682   O     0.90326   0.73909   0.68976   0.00000  Uiso   1.00
O683   O     0.67963   0.22027   0.84791   0.00000  Uiso   1.00
O684   O     0.97307   0.22395   0.46344   0.00000  Uiso   1.00
N685   N     0.93068   0.84061   0.70348   0.00000  Uiso   1.00
N686   N     0.77131   0.18350   0.81619   0.00000  Uiso   1.00
N687   N     0.98041   0.18614   0.54222   0.00000  Uiso   1.00
N688   N     0.84641   0.82264   0.66295   0.00000  Uiso   1.00
N689   N     0.68704   0.16553   0.77566   0.00000  Uiso   1.00
N690   N     0.89614   0.16817   0.50169   0.00000  Uiso   1.00
C691   C     0.40156   0.57164   0.19084   0.00000  Uiso   1.00
C692   C     0.38900   0.50358   0.18441   0.00000  Uiso   1.00
C693   C     0.42537   0.45636   0.20159   0.00000  Uiso   1.00
C694   C     0.40599   0.39719   0.19195   0.00000  Uiso   1.00
C695   C     0.39465   0.29325   0.18593   0.00000  Uiso   1.00
C696   C     0.34507   0.59807   0.21548   0.00000  Uiso   1.00
C697   C     0.34451   0.63031   0.25878   0.00000  Uiso   1.00
C698   C     0.28815   0.65069   0.27529   0.00000  Uiso   1.00
C699   C     0.20862   0.69349   0.31749   0.00000  Uiso   1.00
C700   C     0.40270   0.59879   0.13998   0.00000  Uiso   1.00
C701   C     0.45060   0.63165   0.11979   0.00000  Uiso   1.00
C702   C     0.44275   0.65265   0.07273   0.00000  Uiso   1.00
C703   C     0.45270   0.69657   0.99768   0.00000  Uiso   1.00
C704   C     0.30246   0.55051   0.14318   0.00000  Uiso   1.00
C705   C     0.33517   0.49210   0.15853   0.00000  Uiso   1.00
C706   C     0.31573   0.43298   0.14886   0.00000  Uiso   1.00
C707   C     0.35207   0.38569   0.16602   0.00000  Uiso   1.00
C708   C     0.29125   0.58660   0.18960   0.00000  Uiso   1.00
C709   C     0.23487   0.60693   0.20605   0.00000  Uiso   1.00
C710   C     0.23423   0.63919   0.24936   0.00000  Uiso   1.00
C711   C     0.34888   0.58731   0.11409   0.00000  Uiso   1.00
C712   C     0.34095   0.60827   0.06705   0.00000  Uiso   1.00
C713   C     0.38883   0.64115   0.04679   0.00000  Uiso   1.00
H714   H     0.44347   0.58058   0.21100   0.00000  Uiso   1.00
H715   H     0.46702   0.46526   0.22163   0.00000  Uiso   1.00
H716   H     0.38618   0.63919   0.27880   0.00000  Uiso   1.00
H717   H     0.49224   0.64052   0.13983   0.00000  Uiso   1.00
H718   H     0.46939   0.33235   0.22201   0.00000  Uiso   1.00
H719   H     0.29892   0.69910   0.34256   0.00000  Uiso   1.00
H720   H     0.52259   0.70192   0.04951   0.00000  Uiso   1.00
H721   H     0.26055   0.54158   0.12303   0.00000  Uiso   1.00
H722   H     0.27407   0.42412   0.12882   0.00000  Uiso   1.00
H723   H     0.19323   0.59805   0.18600   0.00000  Uiso   1.00
H724   H     0.29929   0.59938   0.04703   0.00000  Uiso   1.00
H725   H     0.31278   0.29896   0.14669   0.00000  Uiso   1.00
H726   H     0.14232   0.66571   0.26724   0.00000  Uiso   1.00
H727   H     0.36598   0.66853   0.97419   0.00000  Uiso   1.00
O728   O     0.40326   0.23909   0.18976   0.00000  Uiso   1.00
O729   O     0.17963   0.72027   0.34791   0.00000  Uiso   1.00
O730   O     0.47307   0.72395   0.96344   0.00000  Uiso   1.00
N731   N     0.43068   0.34061   0.20348   0.00000  Uiso   1.00
N732   N     0.27131   0.68350   0.31619   0.00000  Uiso   1.00
N733   N     0.48041   0.68614   0.04222   0.00000  Uiso   1.00
N734   N     0.34641   0.32264   0.16295   0.00000  Uiso   1.00
N735   N     0.18704   0.66553   0.27566   0.00000  Uiso   1.00
N736   N     0.39614   0.66817   0.00169   0.00000  Uiso   1.00
