data_job_01123
_audit_creation_date              2018-12-19
_audit_creation_method            'Materials Studio'
_symmetry_space_group_name_H-M    'P1'
_symmetry_Int_Tables_number       1
_symmetry_cell_setting            triclinic
loop_
_symmetry_equiv_pos_as_xyz
  x,y,z
_cell_length_a                    31.5684
_cell_length_b                    9.9520
_cell_length_c                    37.7589
_cell_angle_alpha                 90.0000
_cell_angle_beta                  90.0000
_cell_angle_gamma                 90.0000
loop_
_atom_site_label
_atom_site_type_symbol
_atom_site_fract_x
_atom_site_fract_y
_atom_site_fract_z
_atom_site_U_iso_or_equiv
_atom_site_adp_type
_atom_site_occupancy
C1     C     0.16955   0.55900   0.17434   0.00000  Uiso   1.00
C2     C     0.17097   0.71216   0.17452   0.00000  Uiso   1.00
C3     C     0.19202   0.79124   0.19915   0.00000  Uiso   1.00
C4     C     0.18949   0.92950   0.19473   0.00000  Uiso   1.00
C5     C     0.19514   0.15865   0.19929   0.00000  Uiso   1.00
C6     C     0.12276   0.52102   0.17491   0.00000  Uiso   1.00
C7     C     0.10327   0.43938   0.19986   0.00000  Uiso   1.00
C8     C     0.06015   0.41672   0.19574   0.00000  Uiso   1.00
C9     C     0.99096   0.34904   0.20089   0.00000  Uiso   1.00
C10    C     0.18619   0.51572   0.13818   0.00000  Uiso   1.00
C11    C     0.22002   0.42959   0.13225   0.00000  Uiso   1.00
C12    C     0.23030   0.40244   0.09722   0.00000  Uiso   1.00
C13    C     0.25959   0.32653   0.04535   0.00000  Uiso   1.00
C14    C     0.12762   0.66392   0.12267   0.00000  Uiso   1.00
C15    C     0.14820   0.76914   0.14646   0.00000  Uiso   1.00
C16    C     0.14563   0.90732   0.14199   0.00000  Uiso   1.00
C17    C     0.16668   0.98659   0.16661   0.00000  Uiso   1.00
C18    C     0.09998   0.57800   0.14684   0.00000  Uiso   1.00
C19    C     0.05688   0.55546   0.14269   0.00000  Uiso   1.00
C20    C     0.03734   0.47381   0.16763   0.00000  Uiso   1.00
C21    C     0.16341   0.57271   0.11012   0.00000  Uiso   1.00
C22    C     0.17364   0.54567   0.07509   0.00000  Uiso   1.00
C23    C     0.20749   0.45953   0.06911   0.00000  Uiso   1.00
H24    H     0.18727   0.51463   0.19619   0.00000  Uiso   1.00
H25    H     0.20964   0.74710   0.22087   0.00000  Uiso   1.00
H26    H     0.12090   0.39528   0.22157   0.00000  Uiso   1.00
H27    H     0.23764   0.38551   0.15398   0.00000  Uiso   1.00
H28    H     0.22437   0.02997   0.23587   0.00000  Uiso   1.00
H29    H     0.03727   0.28811   0.23733   0.00000  Uiso   1.00
H30    H     0.28344   0.26748   0.09480   0.00000  Uiso   1.00
H31    H     0.10989   0.70828   0.10082   0.00000  Uiso   1.00
H32    H     0.12801   0.95139   0.12027   0.00000  Uiso   1.00
H33    H     0.03927   0.59957   0.12097   0.00000  Uiso   1.00
H34    H     0.15601   0.58979   0.05338   0.00000  Uiso   1.00
H35    H     0.15812   0.19578   0.15422   0.00000  Uiso   1.00
H36    H     0.97102   0.45390   0.15569   0.00000  Uiso   1.00
H37    H     0.21718   0.43329   0.01315   0.00000  Uiso   1.00
O38    O     0.20455   0.26930   0.20957   0.00000  Uiso   1.00
O39    O     0.95908   0.29598   0.21148   0.00000  Uiso   1.00
O40    O     0.28204   0.26893   0.02449   0.00000  Uiso   1.00
N41    N     0.20630   0.03563   0.21398   0.00000  Uiso   1.00
N42    N     0.03137   0.34205   0.21535   0.00000  Uiso   1.00
N43    N     0.26151   0.32274   0.08210   0.00000  Uiso   1.00
N44    N     0.17065   0.12485   0.17005   0.00000  Uiso   1.00
N45    N     0.99572   0.43127   0.17142   0.00000  Uiso   1.00
N46    N     0.22586   0.41195   0.03816   0.00000  Uiso   1.00
C47    C     0.82980   0.75652   0.17728   0.00000  Uiso   1.00
C48    C     0.82901   0.60331   0.17741   0.00000  Uiso   1.00
C49    C     0.80892   0.52320   0.20237   0.00000  Uiso   1.00
C50    C     0.81191   0.38509   0.19782   0.00000  Uiso   1.00
C51    C     0.80732   0.15569   0.20236   0.00000  Uiso   1.00
C52    C     0.87644   0.79644   0.17704   0.00000  Uiso   1.00
C53    C     0.89621   0.87873   0.20168   0.00000  Uiso   1.00
C54    C     0.93912   0.90320   0.19682   0.00000  Uiso   1.00
C55    C     0.00814   0.97372   0.20078   0.00000  Uiso   1.00
C56    C     0.81207   0.79935   0.14145   0.00000  Uiso   1.00
C57    C     0.77774   0.88410   0.13617   0.00000  Uiso   1.00
C58    C     0.76646   0.91105   0.10134   0.00000  Uiso   1.00
C59    C     0.73555   0.98608   0.05004   0.00000  Uiso   1.00
C60    C     0.87083   0.65371   0.12483   0.00000  Uiso   1.00
C61    C     0.85130   0.54747   0.14892   0.00000  Uiso   1.00
C62    C     0.85432   0.40945   0.14433   0.00000  Uiso   1.00
C63    C     0.83424   0.32914   0.16928   0.00000  Uiso   1.00
C64    C     0.89872   0.74060   0.14855   0.00000  Uiso   1.00
C65    C     0.94161   0.76497   0.14365   0.00000  Uiso   1.00
C66    C     0.96145   0.84726   0.16828   0.00000  Uiso   1.00
C67    C     0.83436   0.74350   0.11296   0.00000  Uiso   1.00
C68    C     0.82313   0.77034   0.07814   0.00000  Uiso   1.00
C69    C     0.78879   0.85511   0.07280   0.00000  Uiso   1.00
H70    H     0.81245   0.80000   0.19946   0.00000  Uiso   1.00
H71    H     0.79168   0.56645   0.22441   0.00000  Uiso   1.00
H72    H     0.87896   0.92194   0.22373   0.00000  Uiso   1.00
H73    H     0.76050   0.92730   0.15822   0.00000  Uiso   1.00
H74    H     0.77850   0.28290   0.23952   0.00000  Uiso   1.00
H75    H     0.96252   0.03248   0.23806   0.00000  Uiso   1.00
H76    H     0.71272   0.04380   0.09994   0.00000  Uiso   1.00
H77    H     0.88819   0.61023   0.10265   0.00000  Uiso   1.00
H78    H     0.87157   0.36626   0.12228   0.00000  Uiso   1.00
H79    H     0.95885   0.72174   0.12160   0.00000  Uiso   1.00
H80    H     0.84039   0.72711   0.05610   0.00000  Uiso   1.00
H81    H     0.84334   0.12041   0.15663   0.00000  Uiso   1.00
H82    H     0.02736   0.87001   0.15517   0.00000  Uiso   1.00
H83    H     0.77757   0.88132   0.01705   0.00000  Uiso   1.00
O84    O     0.79864   0.04459   0.21274   0.00000  Uiso   1.00
O85    O     0.04006   0.02804   0.21083   0.00000  Uiso   1.00
O86    O     0.71234   0.04288   0.02962   0.00000  Uiso   1.00
N87    N     0.79603   0.27814   0.21731   0.00000  Uiso   1.00
N88    N     0.96808   0.97894   0.21596   0.00000  Uiso   1.00
N89    N     0.73455   0.98955   0.08682   0.00000  Uiso   1.00
N90    N     0.83093   0.19070   0.17271   0.00000  Uiso   1.00
N91    N     0.00297   0.89151   0.17135   0.00000  Uiso   1.00
N92    N     0.76944   0.90212   0.04222   0.00000  Uiso   1.00
C93    C     0.33045   0.94100   0.67434   0.00000  Uiso   1.00
C94    C     0.32903   0.78784   0.67452   0.00000  Uiso   1.00
C95    C     0.30798   0.70876   0.69915   0.00000  Uiso   1.00
C96    C     0.31051   0.57050   0.69473   0.00000  Uiso   1.00
C97    C     0.30486   0.34135   0.69929   0.00000  Uiso   1.00
C98    C     0.37724   0.97898   0.67491   0.00000  Uiso   1.00
C99    C     0.39673   0.06062   0.69986   0.00000  Uiso   1.00
C100   C     0.43985   0.08328   0.69574   0.00000  Uiso   1.00
C101   C     0.50904   0.15096   0.70089   0.00000  Uiso   1.00
C102   C     0.31381   0.98428   0.63818   0.00000  Uiso   1.00
C103   C     0.27998   0.07041   0.63225   0.00000  Uiso   1.00
C104   C     0.26970   0.09756   0.59722   0.00000  Uiso   1.00
C105   C     0.24041   0.17347   0.54535   0.00000  Uiso   1.00
C106   C     0.37238   0.83608   0.62267   0.00000  Uiso   1.00
C107   C     0.35180   0.73086   0.64646   0.00000  Uiso   1.00
C108   C     0.35437   0.59268   0.64199   0.00000  Uiso   1.00
C109   C     0.33332   0.51341   0.66661   0.00000  Uiso   1.00
C110   C     0.40002   0.92200   0.64684   0.00000  Uiso   1.00
C111   C     0.44312   0.94454   0.64269   0.00000  Uiso   1.00
C112   C     0.46266   0.02619   0.66763   0.00000  Uiso   1.00
C113   C     0.33659   0.92729   0.61012   0.00000  Uiso   1.00
C114   C     0.32636   0.95433   0.57509   0.00000  Uiso   1.00
C115   C     0.29251   0.04047   0.56911   0.00000  Uiso   1.00
H116   H     0.31273   0.98537   0.69619   0.00000  Uiso   1.00
H117   H     0.29036   0.75290   0.72087   0.00000  Uiso   1.00
H118   H     0.37910   0.10472   0.72157   0.00000  Uiso   1.00
H119   H     0.26236   0.11449   0.65398   0.00000  Uiso   1.00
H120   H     0.27563   0.47003   0.73587   0.00000  Uiso   1.00
H121   H     0.46273   0.21189   0.73733   0.00000  Uiso   1.00
H122   H     0.21656   0.23252   0.59480   0.00000  Uiso   1.00
H123   H     0.39011   0.79172   0.60082   0.00000  Uiso   1.00
H124   H     0.37199   0.54861   0.62027   0.00000  Uiso   1.00
H125   H     0.46073   0.90043   0.62097   0.00000  Uiso   1.00
H126   H     0.34399   0.91021   0.55338   0.00000  Uiso   1.00
H127   H     0.34188   0.30422   0.65422   0.00000  Uiso   1.00
H128   H     0.52898   0.04610   0.65569   0.00000  Uiso   1.00
H129   H     0.28282   0.06671   0.51315   0.00000  Uiso   1.00
O130   O     0.29545   0.23070   0.70957   0.00000  Uiso   1.00
O131   O     0.54092   0.20402   0.71148   0.00000  Uiso   1.00
O132   O     0.21796   0.23107   0.52449   0.00000  Uiso   1.00
N133   N     0.29370   0.46437   0.71398   0.00000  Uiso   1.00
N134   N     0.46863   0.15795   0.71535   0.00000  Uiso   1.00
N135   N     0.23849   0.17726   0.58210   0.00000  Uiso   1.00
N136   N     0.32935   0.37515   0.67005   0.00000  Uiso   1.00
N137   N     0.50428   0.06873   0.67142   0.00000  Uiso   1.00
N138   N     0.27414   0.08805   0.53816   0.00000  Uiso   1.00
C139   C     0.67020   0.74348   0.67728   0.00000  Uiso   1.00
C140   C     0.67099   0.89669   0.67741   0.00000  Uiso   1.00
C141   C     0.69108   0.97680   0.70237   0.00000  Uiso   1.00
C142   C     0.68809   0.11491   0.69782   0.00000  Uiso   1.00
C143   C     0.69268   0.34431   0.70236   0.00000  Uiso   1.00
C144   C     0.62356   0.70356   0.67704   0.00000  Uiso   1.00
C145   C     0.60379   0.62127   0.70168   0.00000  Uiso   1.00
C146   C     0.56088   0.59680   0.69682   0.00000  Uiso   1.00
C147   C     0.49186   0.52628   0.70078   0.00000  Uiso   1.00
C148   C     0.68793   0.70065   0.64145   0.00000  Uiso   1.00
C149   C     0.72226   0.61590   0.63617   0.00000  Uiso   1.00
C150   C     0.73354   0.58895   0.60134   0.00000  Uiso   1.00
C151   C     0.76445   0.51392   0.55004   0.00000  Uiso   1.00
C152   C     0.62917   0.84629   0.62483   0.00000  Uiso   1.00
C153   C     0.64870   0.95253   0.64892   0.00000  Uiso   1.00
C154   C     0.64568   0.09055   0.64433   0.00000  Uiso   1.00
C155   C     0.66576   0.17086   0.66928   0.00000  Uiso   1.00
C156   C     0.60128   0.75940   0.64855   0.00000  Uiso   1.00
C157   C     0.55839   0.73503   0.64365   0.00000  Uiso   1.00
C158   C     0.53855   0.65274   0.66828   0.00000  Uiso   1.00
C159   C     0.66564   0.75650   0.61296   0.00000  Uiso   1.00
C160   C     0.67687   0.72966   0.57814   0.00000  Uiso   1.00
C161   C     0.71121   0.64489   0.57280   0.00000  Uiso   1.00
H162   H     0.68755   0.70000   0.69946   0.00000  Uiso   1.00
H163   H     0.70832   0.93355   0.72441   0.00000  Uiso   1.00
H164   H     0.62104   0.57806   0.72373   0.00000  Uiso   1.00
H165   H     0.73950   0.57270   0.65822   0.00000  Uiso   1.00
H166   H     0.72150   0.21710   0.73952   0.00000  Uiso   1.00
H167   H     0.53748   0.46752   0.73806   0.00000  Uiso   1.00
H168   H     0.78728   0.45620   0.59994   0.00000  Uiso   1.00
H169   H     0.61181   0.88977   0.60265   0.00000  Uiso   1.00
H170   H     0.62843   0.13374   0.62228   0.00000  Uiso   1.00
H171   H     0.54115   0.77826   0.62160   0.00000  Uiso   1.00
H172   H     0.65961   0.77289   0.55610   0.00000  Uiso   1.00
H173   H     0.65666   0.37959   0.65663   0.00000  Uiso   1.00
H174   H     0.47264   0.62999   0.65517   0.00000  Uiso   1.00
H175   H     0.72243   0.61868   0.51705   0.00000  Uiso   1.00
O176   O     0.70136   0.45541   0.71274   0.00000  Uiso   1.00
O177   O     0.45994   0.47196   0.71083   0.00000  Uiso   1.00
O178   O     0.78766   0.45712   0.52962   0.00000  Uiso   1.00
N179   N     0.70397   0.22186   0.71731   0.00000  Uiso   1.00
N180   N     0.53192   0.52106   0.71596   0.00000  Uiso   1.00
N181   N     0.76545   0.51045   0.58682   0.00000  Uiso   1.00
N182   N     0.66907   0.30930   0.67271   0.00000  Uiso   1.00
N183   N     0.49703   0.60849   0.67135   0.00000  Uiso   1.00
N184   N     0.73056   0.59788   0.54222   0.00000  Uiso   1.00
C185   C     0.83045   0.55900   0.32566   0.00000  Uiso   1.00
C186   C     0.82903   0.71216   0.32548   0.00000  Uiso   1.00
C187   C     0.80798   0.79124   0.30085   0.00000  Uiso   1.00
C188   C     0.81051   0.92950   0.30527   0.00000  Uiso   1.00
C189   C     0.80486   0.15865   0.30071   0.00000  Uiso   1.00
C190   C     0.87724   0.52102   0.32509   0.00000  Uiso   1.00
C191   C     0.89673   0.43938   0.30014   0.00000  Uiso   1.00
C192   C     0.93985   0.41672   0.30426   0.00000  Uiso   1.00
C193   C     0.00904   0.34904   0.29911   0.00000  Uiso   1.00
C194   C     0.81381   0.51572   0.36182   0.00000  Uiso   1.00
C195   C     0.77998   0.42959   0.36775   0.00000  Uiso   1.00
C196   C     0.76970   0.40244   0.40278   0.00000  Uiso   1.00
C197   C     0.74041   0.32653   0.45465   0.00000  Uiso   1.00
C198   C     0.87238   0.66392   0.37733   0.00000  Uiso   1.00
C199   C     0.85180   0.76914   0.35354   0.00000  Uiso   1.00
C200   C     0.85437   0.90732   0.35801   0.00000  Uiso   1.00
C201   C     0.83332   0.98659   0.33339   0.00000  Uiso   1.00
C202   C     0.90002   0.57800   0.35316   0.00000  Uiso   1.00
C203   C     0.94312   0.55546   0.35731   0.00000  Uiso   1.00
C204   C     0.96266   0.47381   0.33237   0.00000  Uiso   1.00
C205   C     0.83659   0.57271   0.38988   0.00000  Uiso   1.00
C206   C     0.82636   0.54567   0.42491   0.00000  Uiso   1.00
C207   C     0.79251   0.45953   0.43089   0.00000  Uiso   1.00
H208   H     0.81273   0.51463   0.30381   0.00000  Uiso   1.00
H209   H     0.79036   0.74710   0.27913   0.00000  Uiso   1.00
H210   H     0.87910   0.39528   0.27843   0.00000  Uiso   1.00
H211   H     0.76236   0.38551   0.34602   0.00000  Uiso   1.00
H212   H     0.77563   0.02997   0.26413   0.00000  Uiso   1.00
H213   H     0.96273   0.28811   0.26267   0.00000  Uiso   1.00
H214   H     0.71656   0.26748   0.40520   0.00000  Uiso   1.00
H215   H     0.89011   0.70828   0.39918   0.00000  Uiso   1.00
H216   H     0.87199   0.95139   0.37973   0.00000  Uiso   1.00
H217   H     0.96073   0.59957   0.37903   0.00000  Uiso   1.00
H218   H     0.84399   0.58979   0.44662   0.00000  Uiso   1.00
H219   H     0.84188   0.19578   0.34578   0.00000  Uiso   1.00
H220   H     0.02898   0.45390   0.34431   0.00000  Uiso   1.00
H221   H     0.78282   0.43329   0.48685   0.00000  Uiso   1.00
O222   O     0.79545   0.26930   0.29043   0.00000  Uiso   1.00
O223   O     0.04092   0.29598   0.28852   0.00000  Uiso   1.00
O224   O     0.71796   0.26893   0.47551   0.00000  Uiso   1.00
N225   N     0.79370   0.03563   0.28602   0.00000  Uiso   1.00
N226   N     0.96863   0.34205   0.28465   0.00000  Uiso   1.00
N227   N     0.73849   0.32274   0.41790   0.00000  Uiso   1.00
N228   N     0.82935   0.12485   0.32995   0.00000  Uiso   1.00
N229   N     0.00428   0.43127   0.32858   0.00000  Uiso   1.00
N230   N     0.77414   0.41195   0.46184   0.00000  Uiso   1.00
C231   C     0.17020   0.75652   0.32272   0.00000  Uiso   1.00
C232   C     0.17099   0.60331   0.32259   0.00000  Uiso   1.00
C233   C     0.19108   0.52320   0.29763   0.00000  Uiso   1.00
C234   C     0.18809   0.38509   0.30218   0.00000  Uiso   1.00
C235   C     0.19268   0.15569   0.29764   0.00000  Uiso   1.00
C236   C     0.12356   0.79644   0.32296   0.00000  Uiso   1.00
C237   C     0.10379   0.87873   0.29832   0.00000  Uiso   1.00
C238   C     0.06088   0.90320   0.30318   0.00000  Uiso   1.00
C239   C     0.99186   0.97372   0.29922   0.00000  Uiso   1.00
C240   C     0.18793   0.79935   0.35855   0.00000  Uiso   1.00
C241   C     0.22226   0.88410   0.36383   0.00000  Uiso   1.00
C242   C     0.23354   0.91105   0.39866   0.00000  Uiso   1.00
C243   C     0.26445   0.98608   0.44996   0.00000  Uiso   1.00
C244   C     0.12917   0.65371   0.37517   0.00000  Uiso   1.00
C245   C     0.14870   0.54747   0.35108   0.00000  Uiso   1.00
C246   C     0.14568   0.40945   0.35567   0.00000  Uiso   1.00
C247   C     0.16576   0.32914   0.33072   0.00000  Uiso   1.00
C248   C     0.10128   0.74060   0.35145   0.00000  Uiso   1.00
C249   C     0.05839   0.76497   0.35635   0.00000  Uiso   1.00
C250   C     0.03855   0.84726   0.33172   0.00000  Uiso   1.00
C251   C     0.16564   0.74350   0.38704   0.00000  Uiso   1.00
C252   C     0.17687   0.77034   0.42186   0.00000  Uiso   1.00
C253   C     0.21121   0.85511   0.42720   0.00000  Uiso   1.00
H254   H     0.18755   0.80000   0.30054   0.00000  Uiso   1.00
H255   H     0.20832   0.56645   0.27559   0.00000  Uiso   1.00
H256   H     0.12104   0.92194   0.27627   0.00000  Uiso   1.00
H257   H     0.23950   0.92730   0.34178   0.00000  Uiso   1.00
H258   H     0.22150   0.28290   0.26048   0.00000  Uiso   1.00
H259   H     0.03748   0.03248   0.26194   0.00000  Uiso   1.00
H260   H     0.28728   0.04380   0.40006   0.00000  Uiso   1.00
H261   H     0.11181   0.61023   0.39735   0.00000  Uiso   1.00
H262   H     0.12843   0.36626   0.37772   0.00000  Uiso   1.00
H263   H     0.04115   0.72174   0.37840   0.00000  Uiso   1.00
H264   H     0.15961   0.72711   0.44390   0.00000  Uiso   1.00
H265   H     0.15666   0.12041   0.34337   0.00000  Uiso   1.00
H266   H     0.97264   0.87001   0.34483   0.00000  Uiso   1.00
H267   H     0.22243   0.88132   0.48295   0.00000  Uiso   1.00
O268   O     0.20136   0.04459   0.28726   0.00000  Uiso   1.00
O269   O     0.95994   0.02804   0.28917   0.00000  Uiso   1.00
O270   O     0.28766   0.04288   0.47038   0.00000  Uiso   1.00
N271   N     0.20397   0.27814   0.28269   0.00000  Uiso   1.00
N272   N     0.03192   0.97894   0.28404   0.00000  Uiso   1.00
N273   N     0.26545   0.98955   0.41318   0.00000  Uiso   1.00
N274   N     0.16907   0.19070   0.32729   0.00000  Uiso   1.00
N275   N     0.99703   0.89151   0.32865   0.00000  Uiso   1.00
N276   N     0.23056   0.90212   0.45778   0.00000  Uiso   1.00
C277   C     0.66955   0.94100   0.82566   0.00000  Uiso   1.00
C278   C     0.67097   0.78784   0.82548   0.00000  Uiso   1.00
C279   C     0.69202   0.70876   0.80085   0.00000  Uiso   1.00
C280   C     0.68949   0.57050   0.80527   0.00000  Uiso   1.00
C281   C     0.69514   0.34135   0.80071   0.00000  Uiso   1.00
C282   C     0.62276   0.97898   0.82509   0.00000  Uiso   1.00
C283   C     0.60327   0.06062   0.80014   0.00000  Uiso   1.00
C284   C     0.56015   0.08328   0.80426   0.00000  Uiso   1.00
C285   C     0.49096   0.15096   0.79911   0.00000  Uiso   1.00
C286   C     0.68619   0.98428   0.86182   0.00000  Uiso   1.00
C287   C     0.72002   0.07041   0.86775   0.00000  Uiso   1.00
C288   C     0.73030   0.09756   0.90278   0.00000  Uiso   1.00
C289   C     0.75959   0.17347   0.95465   0.00000  Uiso   1.00
C290   C     0.62762   0.83608   0.87733   0.00000  Uiso   1.00
C291   C     0.64820   0.73086   0.85354   0.00000  Uiso   1.00
C292   C     0.64563   0.59268   0.85801   0.00000  Uiso   1.00
C293   C     0.66668   0.51341   0.83339   0.00000  Uiso   1.00
C294   C     0.59998   0.92200   0.85316   0.00000  Uiso   1.00
C295   C     0.55688   0.94454   0.85731   0.00000  Uiso   1.00
C296   C     0.53734   0.02619   0.83237   0.00000  Uiso   1.00
C297   C     0.66341   0.92729   0.88988   0.00000  Uiso   1.00
C298   C     0.67364   0.95433   0.92491   0.00000  Uiso   1.00
C299   C     0.70749   0.04047   0.93089   0.00000  Uiso   1.00
H300   H     0.68727   0.98537   0.80381   0.00000  Uiso   1.00
H301   H     0.70964   0.75290   0.77913   0.00000  Uiso   1.00
H302   H     0.62090   0.10472   0.77843   0.00000  Uiso   1.00
H303   H     0.73764   0.11449   0.84602   0.00000  Uiso   1.00
H304   H     0.72437   0.47003   0.76413   0.00000  Uiso   1.00
H305   H     0.53727   0.21189   0.76267   0.00000  Uiso   1.00
H306   H     0.78344   0.23252   0.90520   0.00000  Uiso   1.00
H307   H     0.60989   0.79172   0.89918   0.00000  Uiso   1.00
H308   H     0.62801   0.54861   0.87973   0.00000  Uiso   1.00
H309   H     0.53927   0.90043   0.87903   0.00000  Uiso   1.00
H310   H     0.65601   0.91021   0.94662   0.00000  Uiso   1.00
H311   H     0.65812   0.30422   0.84578   0.00000  Uiso   1.00
H312   H     0.47102   0.04610   0.84431   0.00000  Uiso   1.00
H313   H     0.71718   0.06671   0.98685   0.00000  Uiso   1.00
O314   O     0.70455   0.23070   0.79043   0.00000  Uiso   1.00
O315   O     0.45908   0.20402   0.78852   0.00000  Uiso   1.00
O316   O     0.78204   0.23107   0.97551   0.00000  Uiso   1.00
N317   N     0.70630   0.46437   0.78602   0.00000  Uiso   1.00
N318   N     0.53137   0.15795   0.78465   0.00000  Uiso   1.00
N319   N     0.76151   0.17726   0.91790   0.00000  Uiso   1.00
N320   N     0.67065   0.37515   0.82995   0.00000  Uiso   1.00
N321   N     0.49572   0.06873   0.82858   0.00000  Uiso   1.00
N322   N     0.72586   0.08805   0.96184   0.00000  Uiso   1.00
C323   C     0.32980   0.74348   0.82272   0.00000  Uiso   1.00
C324   C     0.32901   0.89669   0.82259   0.00000  Uiso   1.00
C325   C     0.30892   0.97680   0.79763   0.00000  Uiso   1.00
C326   C     0.31191   0.11491   0.80218   0.00000  Uiso   1.00
C327   C     0.30732   0.34431   0.79764   0.00000  Uiso   1.00
C328   C     0.37644   0.70356   0.82296   0.00000  Uiso   1.00
C329   C     0.39621   0.62127   0.79832   0.00000  Uiso   1.00
C330   C     0.43912   0.59680   0.80318   0.00000  Uiso   1.00
C331   C     0.50814   0.52628   0.79922   0.00000  Uiso   1.00
C332   C     0.31207   0.70065   0.85855   0.00000  Uiso   1.00
C333   C     0.27774   0.61590   0.86383   0.00000  Uiso   1.00
C334   C     0.26646   0.58895   0.89866   0.00000  Uiso   1.00
C335   C     0.23555   0.51392   0.94996   0.00000  Uiso   1.00
C336   C     0.37083   0.84629   0.87517   0.00000  Uiso   1.00
C337   C     0.35130   0.95253   0.85108   0.00000  Uiso   1.00
C338   C     0.35432   0.09055   0.85567   0.00000  Uiso   1.00
C339   C     0.33424   0.17086   0.83072   0.00000  Uiso   1.00
C340   C     0.39872   0.75940   0.85145   0.00000  Uiso   1.00
C341   C     0.44161   0.73503   0.85635   0.00000  Uiso   1.00
C342   C     0.46145   0.65274   0.83172   0.00000  Uiso   1.00
C343   C     0.33436   0.75650   0.88704   0.00000  Uiso   1.00
C344   C     0.32313   0.72966   0.92186   0.00000  Uiso   1.00
C345   C     0.28879   0.64489   0.92720   0.00000  Uiso   1.00
H346   H     0.31245   0.70000   0.80054   0.00000  Uiso   1.00
H347   H     0.29168   0.93355   0.77559   0.00000  Uiso   1.00
H348   H     0.37896   0.57806   0.77627   0.00000  Uiso   1.00
H349   H     0.26050   0.57270   0.84178   0.00000  Uiso   1.00
H350   H     0.27850   0.21710   0.76048   0.00000  Uiso   1.00
H351   H     0.46252   0.46752   0.76194   0.00000  Uiso   1.00
H352   H     0.21272   0.45620   0.90006   0.00000  Uiso   1.00
H353   H     0.38819   0.88977   0.89735   0.00000  Uiso   1.00
H354   H     0.37157   0.13374   0.87772   0.00000  Uiso   1.00
H355   H     0.45885   0.77826   0.87840   0.00000  Uiso   1.00
H356   H     0.34039   0.77289   0.94390   0.00000  Uiso   1.00
H357   H     0.34334   0.37959   0.84337   0.00000  Uiso   1.00
H358   H     0.52736   0.62999   0.84483   0.00000  Uiso   1.00
H359   H     0.27757   0.61868   0.98295   0.00000  Uiso   1.00
O360   O     0.29864   0.45541   0.78726   0.00000  Uiso   1.00
O361   O     0.54006   0.47196   0.78917   0.00000  Uiso   1.00
O362   O     0.21234   0.45712   0.97038   0.00000  Uiso   1.00
N363   N     0.29603   0.22186   0.78269   0.00000  Uiso   1.00
N364   N     0.46808   0.52106   0.78404   0.00000  Uiso   1.00
N365   N     0.23455   0.51045   0.91318   0.00000  Uiso   1.00
N366   N     0.33093   0.30930   0.82729   0.00000  Uiso   1.00
N367   N     0.50297   0.60849   0.82865   0.00000  Uiso   1.00
N368   N     0.26944   0.59788   0.95778   0.00000  Uiso   1.00
C369   C     0.83045   0.44100   0.82566   0.00000  Uiso   1.00
C370   C     0.82903   0.28784   0.82548   0.00000  Uiso   1.00
C371   C     0.80798   0.20876   0.80085   0.00000  Uiso   1.00
C372   C     0.81051   0.07050   0.80527   0.00000  Uiso   1.00
C373   C     0.80486   0.84135   0.80071   0.00000  Uiso   1.00
C374   C     0.87724   0.47898   0.82509   0.00000  Uiso   1.00
C375   C     0.89673   0.56062   0.80014   0.00000  Uiso   1.00
C376   C     0.93985   0.58328   0.80426   0.00000  Uiso   1.00
C377   C     0.00904   0.65096   0.79911   0.00000  Uiso   1.00
C378   C     0.81381   0.48428   0.86182   0.00000  Uiso   1.00
C379   C     0.77998   0.57041   0.86775   0.00000  Uiso   1.00
C380   C     0.76970   0.59756   0.90278   0.00000  Uiso   1.00
C381   C     0.74041   0.67347   0.95465   0.00000  Uiso   1.00
C382   C     0.87238   0.33608   0.87733   0.00000  Uiso   1.00
C383   C     0.85180   0.23086   0.85354   0.00000  Uiso   1.00
C384   C     0.85437   0.09268   0.85801   0.00000  Uiso   1.00
C385   C     0.83332   0.01341   0.83339   0.00000  Uiso   1.00
C386   C     0.90002   0.42200   0.85316   0.00000  Uiso   1.00
C387   C     0.94312   0.44454   0.85731   0.00000  Uiso   1.00
C388   C     0.96266   0.52619   0.83237   0.00000  Uiso   1.00
C389   C     0.83659   0.42729   0.88988   0.00000  Uiso   1.00
C390   C     0.82636   0.45433   0.92491   0.00000  Uiso   1.00
C391   C     0.79251   0.54047   0.93089   0.00000  Uiso   1.00
H392   H     0.81273   0.48537   0.80381   0.00000  Uiso   1.00
H393   H     0.79036   0.25290   0.77913   0.00000  Uiso   1.00
H394   H     0.87910   0.60472   0.77843   0.00000  Uiso   1.00
H395   H     0.76236   0.61449   0.84602   0.00000  Uiso   1.00
H396   H     0.77563   0.97003   0.76413   0.00000  Uiso   1.00
H397   H     0.96273   0.71189   0.76267   0.00000  Uiso   1.00
H398   H     0.71656   0.73252   0.90520   0.00000  Uiso   1.00
H399   H     0.89011   0.29172   0.89918   0.00000  Uiso   1.00
H400   H     0.87199   0.04861   0.87973   0.00000  Uiso   1.00
H401   H     0.96073   0.40043   0.87903   0.00000  Uiso   1.00
H402   H     0.84399   0.41021   0.94662   0.00000  Uiso   1.00
H403   H     0.84188   0.80422   0.84578   0.00000  Uiso   1.00
H404   H     0.02898   0.54610   0.84431   0.00000  Uiso   1.00
H405   H     0.78282   0.56671   0.98685   0.00000  Uiso   1.00
O406   O     0.79545   0.73070   0.79043   0.00000  Uiso   1.00
O407   O     0.04092   0.70402   0.78852   0.00000  Uiso   1.00
O408   O     0.71796   0.73107   0.97551   0.00000  Uiso   1.00
N409   N     0.79370   0.96437   0.78602   0.00000  Uiso   1.00
N410   N     0.96863   0.65795   0.78465   0.00000  Uiso   1.00
N411   N     0.73849   0.67726   0.91790   0.00000  Uiso   1.00
N412   N     0.82935   0.87515   0.82995   0.00000  Uiso   1.00
N413   N     0.00428   0.56873   0.82858   0.00000  Uiso   1.00
N414   N     0.77414   0.58805   0.96184   0.00000  Uiso   1.00
C415   C     0.17020   0.24348   0.82272   0.00000  Uiso   1.00
C416   C     0.17099   0.39669   0.82259   0.00000  Uiso   1.00
C417   C     0.19108   0.47680   0.79763   0.00000  Uiso   1.00
C418   C     0.18809   0.61491   0.80218   0.00000  Uiso   1.00
C419   C     0.19268   0.84431   0.79764   0.00000  Uiso   1.00
C420   C     0.12356   0.20356   0.82296   0.00000  Uiso   1.00
C421   C     0.10379   0.12127   0.79832   0.00000  Uiso   1.00
C422   C     0.06088   0.09680   0.80318   0.00000  Uiso   1.00
C423   C     0.99186   0.02628   0.79922   0.00000  Uiso   1.00
C424   C     0.18793   0.20065   0.85855   0.00000  Uiso   1.00
C425   C     0.22226   0.11590   0.86383   0.00000  Uiso   1.00
C426   C     0.23354   0.08895   0.89866   0.00000  Uiso   1.00
C427   C     0.26445   0.01392   0.94996   0.00000  Uiso   1.00
C428   C     0.12917   0.34629   0.87517   0.00000  Uiso   1.00
C429   C     0.14870   0.45253   0.85108   0.00000  Uiso   1.00
C430   C     0.14568   0.59055   0.85567   0.00000  Uiso   1.00
C431   C     0.16576   0.67086   0.83072   0.00000  Uiso   1.00
C432   C     0.10128   0.25940   0.85145   0.00000  Uiso   1.00
C433   C     0.05839   0.23503   0.85635   0.00000  Uiso   1.00
C434   C     0.03855   0.15274   0.83172   0.00000  Uiso   1.00
C435   C     0.16564   0.25650   0.88704   0.00000  Uiso   1.00
C436   C     0.17687   0.22966   0.92186   0.00000  Uiso   1.00
C437   C     0.21121   0.14489   0.92720   0.00000  Uiso   1.00
H438   H     0.18755   0.20000   0.80054   0.00000  Uiso   1.00
H439   H     0.20832   0.43355   0.77559   0.00000  Uiso   1.00
H440   H     0.12104   0.07806   0.77627   0.00000  Uiso   1.00
H441   H     0.23950   0.07270   0.84178   0.00000  Uiso   1.00
H442   H     0.22150   0.71710   0.76048   0.00000  Uiso   1.00
H443   H     0.03748   0.96752   0.76194   0.00000  Uiso   1.00
H444   H     0.28728   0.95620   0.90006   0.00000  Uiso   1.00
H445   H     0.11181   0.38977   0.89735   0.00000  Uiso   1.00
H446   H     0.12843   0.63374   0.87772   0.00000  Uiso   1.00
H447   H     0.04115   0.27826   0.87840   0.00000  Uiso   1.00
H448   H     0.15961   0.27289   0.94390   0.00000  Uiso   1.00
H449   H     0.15666   0.87959   0.84337   0.00000  Uiso   1.00
H450   H     0.97264   0.12999   0.84483   0.00000  Uiso   1.00
H451   H     0.22243   0.11868   0.98295   0.00000  Uiso   1.00
O452   O     0.20136   0.95541   0.78726   0.00000  Uiso   1.00
O453   O     0.95994   0.97196   0.78917   0.00000  Uiso   1.00
O454   O     0.28766   0.95712   0.97038   0.00000  Uiso   1.00
N455   N     0.20397   0.72186   0.78269   0.00000  Uiso   1.00
N456   N     0.03192   0.02106   0.78404   0.00000  Uiso   1.00
N457   N     0.26545   0.01045   0.91318   0.00000  Uiso   1.00
N458   N     0.16907   0.80930   0.82729   0.00000  Uiso   1.00
N459   N     0.99703   0.10849   0.82865   0.00000  Uiso   1.00
N460   N     0.23056   0.09788   0.95778   0.00000  Uiso   1.00
C461   C     0.66955   0.05900   0.32566   0.00000  Uiso   1.00
C462   C     0.67097   0.21216   0.32548   0.00000  Uiso   1.00
C463   C     0.69202   0.29124   0.30085   0.00000  Uiso   1.00
C464   C     0.68949   0.42950   0.30527   0.00000  Uiso   1.00
C465   C     0.69514   0.65865   0.30071   0.00000  Uiso   1.00
C466   C     0.62276   0.02102   0.32509   0.00000  Uiso   1.00
C467   C     0.60327   0.93938   0.30014   0.00000  Uiso   1.00
C468   C     0.56015   0.91672   0.30426   0.00000  Uiso   1.00
C469   C     0.49096   0.84904   0.29911   0.00000  Uiso   1.00
C470   C     0.68619   0.01572   0.36182   0.00000  Uiso   1.00
C471   C     0.72002   0.92959   0.36775   0.00000  Uiso   1.00
C472   C     0.73030   0.90244   0.40278   0.00000  Uiso   1.00
C473   C     0.75959   0.82653   0.45465   0.00000  Uiso   1.00
C474   C     0.62762   0.16392   0.37733   0.00000  Uiso   1.00
C475   C     0.64820   0.26914   0.35354   0.00000  Uiso   1.00
C476   C     0.64563   0.40732   0.35801   0.00000  Uiso   1.00
C477   C     0.66668   0.48659   0.33339   0.00000  Uiso   1.00
C478   C     0.59998   0.07800   0.35316   0.00000  Uiso   1.00
C479   C     0.55688   0.05546   0.35731   0.00000  Uiso   1.00
C480   C     0.53734   0.97381   0.33237   0.00000  Uiso   1.00
C481   C     0.66341   0.07271   0.38988   0.00000  Uiso   1.00
C482   C     0.67364   0.04567   0.42491   0.00000  Uiso   1.00
C483   C     0.70749   0.95953   0.43089   0.00000  Uiso   1.00
H484   H     0.68727   0.01463   0.30381   0.00000  Uiso   1.00
H485   H     0.70964   0.24710   0.27913   0.00000  Uiso   1.00
H486   H     0.62090   0.89528   0.27843   0.00000  Uiso   1.00
H487   H     0.73764   0.88551   0.34602   0.00000  Uiso   1.00
H488   H     0.72437   0.52997   0.26413   0.00000  Uiso   1.00
H489   H     0.53727   0.78811   0.26267   0.00000  Uiso   1.00
H490   H     0.78344   0.76748   0.40520   0.00000  Uiso   1.00
H491   H     0.60989   0.20828   0.39918   0.00000  Uiso   1.00
H492   H     0.62801   0.45139   0.37973   0.00000  Uiso   1.00
H493   H     0.53927   0.09957   0.37903   0.00000  Uiso   1.00
H494   H     0.65601   0.08979   0.44662   0.00000  Uiso   1.00
H495   H     0.65812   0.69578   0.34578   0.00000  Uiso   1.00
H496   H     0.47102   0.95390   0.34431   0.00000  Uiso   1.00
H497   H     0.71718   0.93329   0.48685   0.00000  Uiso   1.00
O498   O     0.70455   0.76930   0.29043   0.00000  Uiso   1.00
O499   O     0.45908   0.79598   0.28852   0.00000  Uiso   1.00
O500   O     0.78204   0.76893   0.47551   0.00000  Uiso   1.00
N501   N     0.70630   0.53563   0.28602   0.00000  Uiso   1.00
N502   N     0.53137   0.84205   0.28465   0.00000  Uiso   1.00
N503   N     0.76151   0.82274   0.41790   0.00000  Uiso   1.00
N504   N     0.67065   0.62485   0.32995   0.00000  Uiso   1.00
N505   N     0.49572   0.93127   0.32858   0.00000  Uiso   1.00
N506   N     0.72586   0.91195   0.46184   0.00000  Uiso   1.00
C507   C     0.32980   0.25652   0.32272   0.00000  Uiso   1.00
C508   C     0.32901   0.10331   0.32259   0.00000  Uiso   1.00
C509   C     0.30892   0.02320   0.29763   0.00000  Uiso   1.00
C510   C     0.31191   0.88509   0.30218   0.00000  Uiso   1.00
C511   C     0.30732   0.65569   0.29764   0.00000  Uiso   1.00
C512   C     0.37644   0.29644   0.32296   0.00000  Uiso   1.00
C513   C     0.39621   0.37873   0.29832   0.00000  Uiso   1.00
C514   C     0.43912   0.40320   0.30318   0.00000  Uiso   1.00
C515   C     0.50814   0.47372   0.29922   0.00000  Uiso   1.00
C516   C     0.31207   0.29935   0.35855   0.00000  Uiso   1.00
C517   C     0.27774   0.38410   0.36383   0.00000  Uiso   1.00
C518   C     0.26646   0.41105   0.39866   0.00000  Uiso   1.00
C519   C     0.23555   0.48608   0.44996   0.00000  Uiso   1.00
C520   C     0.37083   0.15371   0.37517   0.00000  Uiso   1.00
C521   C     0.35130   0.04747   0.35108   0.00000  Uiso   1.00
C522   C     0.35432   0.90945   0.35567   0.00000  Uiso   1.00
C523   C     0.33424   0.82914   0.33072   0.00000  Uiso   1.00
C524   C     0.39872   0.24060   0.35145   0.00000  Uiso   1.00
C525   C     0.44161   0.26497   0.35635   0.00000  Uiso   1.00
C526   C     0.46145   0.34726   0.33172   0.00000  Uiso   1.00
C527   C     0.33436   0.24350   0.38704   0.00000  Uiso   1.00
C528   C     0.32313   0.27034   0.42186   0.00000  Uiso   1.00
C529   C     0.28879   0.35511   0.42720   0.00000  Uiso   1.00
H530   H     0.31245   0.30000   0.30054   0.00000  Uiso   1.00
H531   H     0.29168   0.06645   0.27559   0.00000  Uiso   1.00
H532   H     0.37896   0.42194   0.27627   0.00000  Uiso   1.00
H533   H     0.26050   0.42730   0.34178   0.00000  Uiso   1.00
H534   H     0.27850   0.78290   0.26048   0.00000  Uiso   1.00
H535   H     0.46252   0.53248   0.26194   0.00000  Uiso   1.00
H536   H     0.21272   0.54380   0.40006   0.00000  Uiso   1.00
H537   H     0.38819   0.11023   0.39735   0.00000  Uiso   1.00
H538   H     0.37157   0.86626   0.37772   0.00000  Uiso   1.00
H539   H     0.45885   0.22174   0.37840   0.00000  Uiso   1.00
H540   H     0.34039   0.22711   0.44390   0.00000  Uiso   1.00
H541   H     0.34334   0.62041   0.34337   0.00000  Uiso   1.00
H542   H     0.52736   0.37001   0.34483   0.00000  Uiso   1.00
H543   H     0.27757   0.38132   0.48295   0.00000  Uiso   1.00
O544   O     0.29864   0.54459   0.28726   0.00000  Uiso   1.00
O545   O     0.54006   0.52804   0.28917   0.00000  Uiso   1.00
O546   O     0.21234   0.54288   0.47038   0.00000  Uiso   1.00
N547   N     0.29603   0.77814   0.28269   0.00000  Uiso   1.00
N548   N     0.46808   0.47894   0.28404   0.00000  Uiso   1.00
N549   N     0.23455   0.48955   0.41318   0.00000  Uiso   1.00
N550   N     0.33093   0.69070   0.32729   0.00000  Uiso   1.00
N551   N     0.50297   0.39151   0.32865   0.00000  Uiso   1.00
N552   N     0.26944   0.40212   0.45778   0.00000  Uiso   1.00
C553   C     0.16955   0.44100   0.67434   0.00000  Uiso   1.00
C554   C     0.17097   0.28784   0.67452   0.00000  Uiso   1.00
C555   C     0.19202   0.20876   0.69915   0.00000  Uiso   1.00
C556   C     0.18949   0.07050   0.69473   0.00000  Uiso   1.00
C557   C     0.19514   0.84135   0.69929   0.00000  Uiso   1.00
C558   C     0.12276   0.47898   0.67491   0.00000  Uiso   1.00
C559   C     0.10327   0.56062   0.69986   0.00000  Uiso   1.00
C560   C     0.06015   0.58328   0.69574   0.00000  Uiso   1.00
C561   C     0.99096   0.65096   0.70089   0.00000  Uiso   1.00
C562   C     0.18619   0.48428   0.63818   0.00000  Uiso   1.00
C563   C     0.22002   0.57041   0.63225   0.00000  Uiso   1.00
C564   C     0.23030   0.59756   0.59722   0.00000  Uiso   1.00
C565   C     0.25959   0.67347   0.54535   0.00000  Uiso   1.00
C566   C     0.12762   0.33608   0.62267   0.00000  Uiso   1.00
C567   C     0.14820   0.23086   0.64646   0.00000  Uiso   1.00
C568   C     0.14563   0.09268   0.64199   0.00000  Uiso   1.00
C569   C     0.16668   0.01341   0.66661   0.00000  Uiso   1.00
C570   C     0.09998   0.42200   0.64684   0.00000  Uiso   1.00
C571   C     0.05688   0.44454   0.64269   0.00000  Uiso   1.00
C572   C     0.03734   0.52619   0.66763   0.00000  Uiso   1.00
C573   C     0.16341   0.42729   0.61012   0.00000  Uiso   1.00
C574   C     0.17364   0.45433   0.57509   0.00000  Uiso   1.00
C575   C     0.20749   0.54047   0.56911   0.00000  Uiso   1.00
H576   H     0.18727   0.48537   0.69619   0.00000  Uiso   1.00
H577   H     0.20964   0.25290   0.72087   0.00000  Uiso   1.00
H578   H     0.12090   0.60472   0.72157   0.00000  Uiso   1.00
H579   H     0.23764   0.61449   0.65398   0.00000  Uiso   1.00
H580   H     0.22437   0.97003   0.73587   0.00000  Uiso   1.00
H581   H     0.03727   0.71189   0.73733   0.00000  Uiso   1.00
H582   H     0.28344   0.73252   0.59480   0.00000  Uiso   1.00
H583   H     0.10989   0.29172   0.60082   0.00000  Uiso   1.00
H584   H     0.12801   0.04861   0.62027   0.00000  Uiso   1.00
H585   H     0.03927   0.40043   0.62097   0.00000  Uiso   1.00
H586   H     0.15601   0.41021   0.55338   0.00000  Uiso   1.00
H587   H     0.15812   0.80422   0.65422   0.00000  Uiso   1.00
H588   H     0.97102   0.54610   0.65569   0.00000  Uiso   1.00
H589   H     0.21718   0.56671   0.51315   0.00000  Uiso   1.00
O590   O     0.20455   0.73070   0.70957   0.00000  Uiso   1.00
O591   O     0.95908   0.70402   0.71148   0.00000  Uiso   1.00
O592   O     0.28204   0.73107   0.52449   0.00000  Uiso   1.00
N593   N     0.20630   0.96437   0.71398   0.00000  Uiso   1.00
N594   N     0.03137   0.65795   0.71535   0.00000  Uiso   1.00
N595   N     0.26151   0.67726   0.58210   0.00000  Uiso   1.00
N596   N     0.17065   0.87515   0.67005   0.00000  Uiso   1.00
N597   N     0.99572   0.56873   0.67142   0.00000  Uiso   1.00
N598   N     0.22586   0.58805   0.53816   0.00000  Uiso   1.00
C599   C     0.82980   0.24348   0.67728   0.00000  Uiso   1.00
C600   C     0.82901   0.39669   0.67741   0.00000  Uiso   1.00
C601   C     0.80892   0.47680   0.70237   0.00000  Uiso   1.00
C602   C     0.81191   0.61491   0.69782   0.00000  Uiso   1.00
C603   C     0.80732   0.84431   0.70236   0.00000  Uiso   1.00
C604   C     0.87644   0.20356   0.67704   0.00000  Uiso   1.00
C605   C     0.89621   0.12127   0.70168   0.00000  Uiso   1.00
C606   C     0.93912   0.09680   0.69682   0.00000  Uiso   1.00
C607   C     0.00814   0.02628   0.70078   0.00000  Uiso   1.00
C608   C     0.81207   0.20065   0.64145   0.00000  Uiso   1.00
C609   C     0.77774   0.11590   0.63617   0.00000  Uiso   1.00
C610   C     0.76646   0.08895   0.60134   0.00000  Uiso   1.00
C611   C     0.73555   0.01392   0.55004   0.00000  Uiso   1.00
C612   C     0.87083   0.34629   0.62483   0.00000  Uiso   1.00
C613   C     0.85130   0.45253   0.64892   0.00000  Uiso   1.00
C614   C     0.85432   0.59055   0.64433   0.00000  Uiso   1.00
C615   C     0.83424   0.67086   0.66928   0.00000  Uiso   1.00
C616   C     0.89872   0.25940   0.64855   0.00000  Uiso   1.00
C617   C     0.94161   0.23503   0.64365   0.00000  Uiso   1.00
C618   C     0.96145   0.15274   0.66828   0.00000  Uiso   1.00
C619   C     0.83436   0.25650   0.61296   0.00000  Uiso   1.00
C620   C     0.82313   0.22966   0.57814   0.00000  Uiso   1.00
C621   C     0.78879   0.14489   0.57280   0.00000  Uiso   1.00
H622   H     0.81245   0.20000   0.69946   0.00000  Uiso   1.00
H623   H     0.79168   0.43355   0.72441   0.00000  Uiso   1.00
H624   H     0.87896   0.07806   0.72373   0.00000  Uiso   1.00
H625   H     0.76050   0.07270   0.65822   0.00000  Uiso   1.00
H626   H     0.77850   0.71710   0.73952   0.00000  Uiso   1.00
H627   H     0.96252   0.96752   0.73806   0.00000  Uiso   1.00
H628   H     0.71272   0.95620   0.59994   0.00000  Uiso   1.00
H629   H     0.88819   0.38977   0.60265   0.00000  Uiso   1.00
H630   H     0.87157   0.63374   0.62228   0.00000  Uiso   1.00
H631   H     0.95885   0.27826   0.62160   0.00000  Uiso   1.00
H632   H     0.84039   0.27289   0.55610   0.00000  Uiso   1.00
H633   H     0.84334   0.87959   0.65663   0.00000  Uiso   1.00
H634   H     0.02736   0.12999   0.65517   0.00000  Uiso   1.00
H635   H     0.77757   0.11868   0.51705   0.00000  Uiso   1.00
O636   O     0.79864   0.95541   0.71274   0.00000  Uiso   1.00
O637   O     0.04006   0.97196   0.71083   0.00000  Uiso   1.00
O638   O     0.71234   0.95712   0.52962   0.00000  Uiso   1.00
N639   N     0.79603   0.72186   0.71731   0.00000  Uiso   1.00
N640   N     0.96808   0.02106   0.71596   0.00000  Uiso   1.00
N641   N     0.73455   0.01045   0.58682   0.00000  Uiso   1.00
N642   N     0.83093   0.80930   0.67271   0.00000  Uiso   1.00
N643   N     0.00297   0.10849   0.67135   0.00000  Uiso   1.00
N644   N     0.76944   0.09788   0.54222   0.00000  Uiso   1.00
C645   C     0.33045   0.05900   0.17434   0.00000  Uiso   1.00
C646   C     0.32903   0.21216   0.17452   0.00000  Uiso   1.00
C647   C     0.30798   0.29124   0.19915   0.00000  Uiso   1.00
C648   C     0.31051   0.42950   0.19473   0.00000  Uiso   1.00
C649   C     0.30486   0.65865   0.19929   0.00000  Uiso   1.00
C650   C     0.37724   0.02102   0.17491   0.00000  Uiso   1.00
C651   C     0.39673   0.93938   0.19986   0.00000  Uiso   1.00
C652   C     0.43985   0.91672   0.19574   0.00000  Uiso   1.00
C653   C     0.50904   0.84904   0.20089   0.00000  Uiso   1.00
C654   C     0.31381   0.01572   0.13818   0.00000  Uiso   1.00
C655   C     0.27998   0.92959   0.13225   0.00000  Uiso   1.00
C656   C     0.26970   0.90244   0.09722   0.00000  Uiso   1.00
C657   C     0.24041   0.82653   0.04535   0.00000  Uiso   1.00
C658   C     0.37238   0.16392   0.12267   0.00000  Uiso   1.00
C659   C     0.35180   0.26914   0.14646   0.00000  Uiso   1.00
C660   C     0.35437   0.40732   0.14199   0.00000  Uiso   1.00
C661   C     0.33332   0.48659   0.16661   0.00000  Uiso   1.00
C662   C     0.40002   0.07800   0.14684   0.00000  Uiso   1.00
C663   C     0.44312   0.05546   0.14269   0.00000  Uiso   1.00
C664   C     0.46266   0.97381   0.16763   0.00000  Uiso   1.00
C665   C     0.33659   0.07271   0.11012   0.00000  Uiso   1.00
C666   C     0.32636   0.04567   0.07509   0.00000  Uiso   1.00
C667   C     0.29251   0.95953   0.06911   0.00000  Uiso   1.00
H668   H     0.31273   0.01463   0.19619   0.00000  Uiso   1.00
H669   H     0.29036   0.24710   0.22087   0.00000  Uiso   1.00
H670   H     0.37910   0.89528   0.22157   0.00000  Uiso   1.00
H671   H     0.26236   0.88551   0.15398   0.00000  Uiso   1.00
H672   H     0.27563   0.52997   0.23587   0.00000  Uiso   1.00
H673   H     0.46273   0.78811   0.23733   0.00000  Uiso   1.00
H674   H     0.21656   0.76748   0.09480   0.00000  Uiso   1.00
H675   H     0.39011   0.20828   0.10082   0.00000  Uiso   1.00
H676   H     0.37199   0.45139   0.12027   0.00000  Uiso   1.00
H677   H     0.46073   0.09957   0.12097   0.00000  Uiso   1.00
H678   H     0.34399   0.08979   0.05338   0.00000  Uiso   1.00
H679   H     0.34188   0.69578   0.15422   0.00000  Uiso   1.00
H680   H     0.52898   0.95390   0.15569   0.00000  Uiso   1.00
H681   H     0.28282   0.93329   0.01315   0.00000  Uiso   1.00
O682   O     0.29545   0.76930   0.20957   0.00000  Uiso   1.00
O683   O     0.54092   0.79598   0.21148   0.00000  Uiso   1.00
O684   O     0.21796   0.76893   0.02449   0.00000  Uiso   1.00
N685   N     0.29370   0.53563   0.21398   0.00000  Uiso   1.00
N686   N     0.46863   0.84205   0.21535   0.00000  Uiso   1.00
N687   N     0.23849   0.82274   0.08210   0.00000  Uiso   1.00
N688   N     0.32935   0.62485   0.17005   0.00000  Uiso   1.00
N689   N     0.50428   0.93127   0.17142   0.00000  Uiso   1.00
N690   N     0.27414   0.91195   0.03816   0.00000  Uiso   1.00
C691   C     0.67020   0.25652   0.17728   0.00000  Uiso   1.00
C692   C     0.67099   0.10331   0.17741   0.00000  Uiso   1.00
C693   C     0.69108   0.02320   0.20237   0.00000  Uiso   1.00
C694   C     0.68809   0.88509   0.19782   0.00000  Uiso   1.00
C695   C     0.69268   0.65569   0.20236   0.00000  Uiso   1.00
C696   C     0.62356   0.29644   0.17704   0.00000  Uiso   1.00
C697   C     0.60379   0.37873   0.20168   0.00000  Uiso   1.00
C698   C     0.56088   0.40320   0.19682   0.00000  Uiso   1.00
C699   C     0.49186   0.47372   0.20078   0.00000  Uiso   1.00
C700   C     0.68793   0.29935   0.14145   0.00000  Uiso   1.00
C701   C     0.72226   0.38410   0.13617   0.00000  Uiso   1.00
C702   C     0.73354   0.41105   0.10134   0.00000  Uiso   1.00
C703   C     0.76445   0.48608   0.05004   0.00000  Uiso   1.00
C704   C     0.62917   0.15371   0.12483   0.00000  Uiso   1.00
C705   C     0.64870   0.04747   0.14892   0.00000  Uiso   1.00
C706   C     0.64568   0.90945   0.14433   0.00000  Uiso   1.00
C707   C     0.66576   0.82914   0.16928   0.00000  Uiso   1.00
C708   C     0.60128   0.24060   0.14855   0.00000  Uiso   1.00
C709   C     0.55839   0.26497   0.14365   0.00000  Uiso   1.00
C710   C     0.53855   0.34726   0.16828   0.00000  Uiso   1.00
C711   C     0.66564   0.24350   0.11296   0.00000  Uiso   1.00
C712   C     0.67687   0.27034   0.07814   0.00000  Uiso   1.00
C713   C     0.71121   0.35511   0.07280   0.00000  Uiso   1.00
H714   H     0.68755   0.30000   0.19946   0.00000  Uiso   1.00
H715   H     0.70832   0.06645   0.22441   0.00000  Uiso   1.00
H716   H     0.62104   0.42194   0.22373   0.00000  Uiso   1.00
H717   H     0.73950   0.42730   0.15822   0.00000  Uiso   1.00
H718   H     0.72150   0.78290   0.23952   0.00000  Uiso   1.00
H719   H     0.53748   0.53248   0.23806   0.00000  Uiso   1.00
H720   H     0.78728   0.54380   0.09994   0.00000  Uiso   1.00
H721   H     0.61181   0.11023   0.10265   0.00000  Uiso   1.00
H722   H     0.62843   0.86626   0.12228   0.00000  Uiso   1.00
H723   H     0.54115   0.22174   0.12160   0.00000  Uiso   1.00
H724   H     0.65961   0.22711   0.05610   0.00000  Uiso   1.00
H725   H     0.65666   0.62041   0.15663   0.00000  Uiso   1.00
H726   H     0.47264   0.37001   0.15517   0.00000  Uiso   1.00
H727   H     0.72243   0.38132   0.01705   0.00000  Uiso   1.00
O728   O     0.70136   0.54459   0.21274   0.00000  Uiso   1.00
O729   O     0.45994   0.52804   0.21083   0.00000  Uiso   1.00
O730   O     0.78766   0.54288   0.02962   0.00000  Uiso   1.00
N731   N     0.70397   0.77814   0.21731   0.00000  Uiso   1.00
N732   N     0.53192   0.47894   0.21596   0.00000  Uiso   1.00
N733   N     0.76545   0.48955   0.08682   0.00000  Uiso   1.00
N734   N     0.66907   0.69070   0.17271   0.00000  Uiso   1.00
N735   N     0.49703   0.39151   0.17135   0.00000  Uiso   1.00
N736   N     0.73056   0.40212   0.04222   0.00000  Uiso   1.00
