data_job_05333
_audit_creation_date              2018-12-19
_audit_creation_method            'Materials Studio'
_symmetry_space_group_name_H-M    'P1'
_symmetry_Int_Tables_number       1
_symmetry_cell_setting            triclinic
loop_
_symmetry_equiv_pos_as_xyz
  x,y,z
_cell_length_a                    27.6765
_cell_length_b                    27.6765
_cell_length_c                    12.5064
_cell_angle_alpha                 90.0000
_cell_angle_beta                  90.0000
_cell_angle_gamma                 90.0000
loop_
_atom_site_label
_atom_site_type_symbol
_atom_site_fract_x
_atom_site_fract_y
_atom_site_fract_z
_atom_site_U_iso_or_equiv
_atom_site_adp_type
_atom_site_occupancy
C1     C     0.66950   0.12924   0.81601   0.00000  Uiso   1.00
C2     C     0.63278   0.11190   0.73359   0.00000  Uiso   1.00
C3     C     0.64357   0.08937   0.63738   0.00000  Uiso   1.00
C4     C     0.60485   0.07627   0.57303   0.00000  Uiso   1.00
C5     C     0.55510   0.04799   0.44034   0.00000  Uiso   1.00
C6     C     0.65940   0.18288   0.83261   0.00000  Uiso   1.00
C7     C     0.69257   0.22003   0.81967   0.00000  Uiso   1.00
C8     C     0.67626   0.26668   0.83869   0.00000  Uiso   1.00
C9     C     0.66784   0.34859   0.85981   0.00000  Uiso   1.00
C10    C     0.65604   0.10445   0.92075   0.00000  Uiso   1.00
C11    C     0.68640   0.07567   0.98194   0.00000  Uiso   1.00
C12    C     0.66726   0.05630   0.07518   0.00000  Uiso   1.00
C13    C     0.65364   0.01644   0.23315   0.00000  Uiso   1.00
C14    C     0.58154   0.14604   0.87282   0.00000  Uiso   1.00
C15    C     0.58501   0.12103   0.76445   0.00000  Uiso   1.00
C16    C     0.54626   0.10796   0.70024   0.00000  Uiso   1.00
C17    C     0.55699   0.08542   0.60394   0.00000  Uiso   1.00
C18    C     0.61163   0.19201   0.86347   0.00000  Uiso   1.00
C19    C     0.59526   0.23862   0.88252   0.00000  Uiso   1.00
C20    C     0.62839   0.27583   0.86961   0.00000  Uiso   1.00
C21    C     0.60827   0.11358   0.95161   0.00000  Uiso   1.00
C22    C     0.58908   0.09426   0.04479   0.00000  Uiso   1.00
C23    C     0.61940   0.06544   0.10610   0.00000  Uiso   1.00
H24    H     0.70670   0.12214   0.79198   0.00000  Uiso   1.00
H25    H     0.68055   0.08232   0.61352   0.00000  Uiso   1.00
H26    H     0.72954   0.21295   0.79579   0.00000  Uiso   1.00
H27    H     0.72337   0.06861   0.95803   0.00000  Uiso   1.00
H28    H     0.63050   0.04221   0.42925   0.00000  Uiso   1.00
H29    H     0.73380   0.31766   0.81362   0.00000  Uiso   1.00
H30    H     0.72078   0.01330   0.15573   0.00000  Uiso   1.00
H31    H     0.54434   0.15315   0.89685   0.00000  Uiso   1.00
H32    H     0.50929   0.11503   0.72414   0.00000  Uiso   1.00
H33    H     0.55828   0.24567   0.90641   0.00000  Uiso   1.00
H34    H     0.55211   0.10133   0.06864   0.00000  Uiso   1.00
H35    H     0.49149   0.06877   0.51903   0.00000  Uiso   1.00
H36    H     0.59480   0.34422   0.90340   0.00000  Uiso   1.00
H37    H     0.58178   0.03985   0.24551   0.00000  Uiso   1.00
O38    O     0.54086   0.02987   0.35862   0.00000  Uiso   1.00
O39    O     0.67640   0.39124   0.86291   0.00000  Uiso   1.00
O40    O     0.65932   0.99192   0.31174   0.00000  Uiso   1.00
N41    N     0.60259   0.05368   0.47409   0.00000  Uiso   1.00
N42    N     0.69918   0.31121   0.83344   0.00000  Uiso   1.00
N43    N     0.68701   0.02667   0.15330   0.00000  Uiso   1.00
N44    N     0.52780   0.06797   0.52240   0.00000  Uiso   1.00
N45    N     0.62438   0.32550   0.88175   0.00000  Uiso   1.00
N46    N     0.61221   0.04095   0.20160   0.00000  Uiso   1.00
C47    C     0.16950   0.62924   0.31601   0.00000  Uiso   1.00
C48    C     0.13278   0.61190   0.23359   0.00000  Uiso   1.00
C49    C     0.14357   0.58937   0.13738   0.00000  Uiso   1.00
C50    C     0.10485   0.57627   0.07303   0.00000  Uiso   1.00
C51    C     0.05510   0.54799   0.94034   0.00000  Uiso   1.00
C52    C     0.15940   0.68288   0.33261   0.00000  Uiso   1.00
C53    C     0.19257   0.72003   0.31967   0.00000  Uiso   1.00
C54    C     0.17626   0.76668   0.33869   0.00000  Uiso   1.00
C55    C     0.16784   0.84859   0.35981   0.00000  Uiso   1.00
C56    C     0.15604   0.60445   0.42075   0.00000  Uiso   1.00
C57    C     0.18640   0.57567   0.48194   0.00000  Uiso   1.00
C58    C     0.16726   0.55630   0.57518   0.00000  Uiso   1.00
C59    C     0.15364   0.51644   0.73315   0.00000  Uiso   1.00
C60    C     0.08154   0.64604   0.37282   0.00000  Uiso   1.00
C61    C     0.08501   0.62103   0.26445   0.00000  Uiso   1.00
C62    C     0.04626   0.60796   0.20024   0.00000  Uiso   1.00
C63    C     0.05699   0.58542   0.10394   0.00000  Uiso   1.00
C64    C     0.11163   0.69201   0.36347   0.00000  Uiso   1.00
C65    C     0.09526   0.73862   0.38252   0.00000  Uiso   1.00
C66    C     0.12839   0.77583   0.36961   0.00000  Uiso   1.00
C67    C     0.10827   0.61358   0.45161   0.00000  Uiso   1.00
C68    C     0.08908   0.59426   0.54479   0.00000  Uiso   1.00
C69    C     0.11940   0.56544   0.60610   0.00000  Uiso   1.00
H70    H     0.20670   0.62214   0.29198   0.00000  Uiso   1.00
H71    H     0.18055   0.58232   0.11352   0.00000  Uiso   1.00
H72    H     0.22954   0.71295   0.29579   0.00000  Uiso   1.00
H73    H     0.22337   0.56861   0.45803   0.00000  Uiso   1.00
H74    H     0.13050   0.54221   0.92925   0.00000  Uiso   1.00
H75    H     0.23380   0.81766   0.31362   0.00000  Uiso   1.00
H76    H     0.22078   0.51330   0.65573   0.00000  Uiso   1.00
H77    H     0.04434   0.65315   0.39685   0.00000  Uiso   1.00
H78    H     0.00929   0.61503   0.22414   0.00000  Uiso   1.00
H79    H     0.05828   0.74567   0.40641   0.00000  Uiso   1.00
H80    H     0.05211   0.60133   0.56864   0.00000  Uiso   1.00
H81    H     0.99149   0.56877   0.01903   0.00000  Uiso   1.00
H82    H     0.09480   0.84422   0.40340   0.00000  Uiso   1.00
H83    H     0.08178   0.53985   0.74551   0.00000  Uiso   1.00
O84    O     0.04086   0.52987   0.85862   0.00000  Uiso   1.00
O85    O     0.17640   0.89124   0.36291   0.00000  Uiso   1.00
O86    O     0.15932   0.49192   0.81174   0.00000  Uiso   1.00
N87    N     0.10259   0.55368   0.97409   0.00000  Uiso   1.00
N88    N     0.19918   0.81121   0.33344   0.00000  Uiso   1.00
N89    N     0.18701   0.52667   0.65330   0.00000  Uiso   1.00
N90    N     0.02780   0.56797   0.02240   0.00000  Uiso   1.00
N91    N     0.12438   0.82550   0.38175   0.00000  Uiso   1.00
N92    N     0.11221   0.54095   0.70160   0.00000  Uiso   1.00
C93    C     0.33050   0.87076   0.81601   0.00000  Uiso   1.00
C94    C     0.36722   0.88810   0.73359   0.00000  Uiso   1.00
C95    C     0.35643   0.91063   0.63738   0.00000  Uiso   1.00
C96    C     0.39515   0.92373   0.57303   0.00000  Uiso   1.00
C97    C     0.44490   0.95201   0.44034   0.00000  Uiso   1.00
C98    C     0.34060   0.81712   0.83261   0.00000  Uiso   1.00
C99    C     0.30743   0.77997   0.81967   0.00000  Uiso   1.00
C100   C     0.32374   0.73332   0.83869   0.00000  Uiso   1.00
C101   C     0.33216   0.65141   0.85981   0.00000  Uiso   1.00
C102   C     0.34396   0.89555   0.92075   0.00000  Uiso   1.00
C103   C     0.31360   0.92433   0.98194   0.00000  Uiso   1.00
C104   C     0.33274   0.94370   0.07518   0.00000  Uiso   1.00
C105   C     0.34636   0.98356   0.23315   0.00000  Uiso   1.00
C106   C     0.41846   0.85396   0.87282   0.00000  Uiso   1.00
C107   C     0.41499   0.87897   0.76445   0.00000  Uiso   1.00
C108   C     0.45374   0.89204   0.70024   0.00000  Uiso   1.00
C109   C     0.44301   0.91458   0.60394   0.00000  Uiso   1.00
C110   C     0.38837   0.80799   0.86347   0.00000  Uiso   1.00
C111   C     0.40474   0.76138   0.88252   0.00000  Uiso   1.00
C112   C     0.37161   0.72417   0.86961   0.00000  Uiso   1.00
C113   C     0.39173   0.88642   0.95161   0.00000  Uiso   1.00
C114   C     0.41092   0.90574   0.04479   0.00000  Uiso   1.00
C115   C     0.38060   0.93456   0.10610   0.00000  Uiso   1.00
H116   H     0.29330   0.87786   0.79198   0.00000  Uiso   1.00
H117   H     0.31945   0.91768   0.61352   0.00000  Uiso   1.00
H118   H     0.27046   0.78705   0.79579   0.00000  Uiso   1.00
H119   H     0.27663   0.93139   0.95803   0.00000  Uiso   1.00
H120   H     0.36950   0.95779   0.42925   0.00000  Uiso   1.00
H121   H     0.26620   0.68234   0.81362   0.00000  Uiso   1.00
H122   H     0.27922   0.98670   0.15573   0.00000  Uiso   1.00
H123   H     0.45566   0.84685   0.89685   0.00000  Uiso   1.00
H124   H     0.49071   0.88497   0.72414   0.00000  Uiso   1.00
H125   H     0.44172   0.75433   0.90641   0.00000  Uiso   1.00
H126   H     0.44789   0.89867   0.06864   0.00000  Uiso   1.00
H127   H     0.50851   0.93123   0.51903   0.00000  Uiso   1.00
H128   H     0.40520   0.65578   0.90340   0.00000  Uiso   1.00
H129   H     0.41822   0.96015   0.24551   0.00000  Uiso   1.00
O130   O     0.45914   0.97013   0.35862   0.00000  Uiso   1.00
O131   O     0.32360   0.60876   0.86291   0.00000  Uiso   1.00
O132   O     0.34068   0.00808   0.31174   0.00000  Uiso   1.00
N133   N     0.39741   0.94632   0.47409   0.00000  Uiso   1.00
N134   N     0.30082   0.68879   0.83344   0.00000  Uiso   1.00
N135   N     0.31299   0.97333   0.15330   0.00000  Uiso   1.00
N136   N     0.47220   0.93203   0.52240   0.00000  Uiso   1.00
N137   N     0.37562   0.67450   0.88175   0.00000  Uiso   1.00
N138   N     0.38779   0.95905   0.20160   0.00000  Uiso   1.00
C139   C     0.83050   0.37076   0.31601   0.00000  Uiso   1.00
C140   C     0.86722   0.38810   0.23359   0.00000  Uiso   1.00
C141   C     0.85643   0.41063   0.13738   0.00000  Uiso   1.00
C142   C     0.89515   0.42373   0.07303   0.00000  Uiso   1.00
C143   C     0.94490   0.45201   0.94034   0.00000  Uiso   1.00
C144   C     0.84060   0.31712   0.33261   0.00000  Uiso   1.00
C145   C     0.80743   0.27997   0.31967   0.00000  Uiso   1.00
C146   C     0.82374   0.23332   0.33869   0.00000  Uiso   1.00
C147   C     0.83216   0.15141   0.35981   0.00000  Uiso   1.00
C148   C     0.84396   0.39555   0.42075   0.00000  Uiso   1.00
C149   C     0.81360   0.42433   0.48194   0.00000  Uiso   1.00
C150   C     0.83274   0.44370   0.57518   0.00000  Uiso   1.00
C151   C     0.84636   0.48356   0.73315   0.00000  Uiso   1.00
C152   C     0.91846   0.35396   0.37282   0.00000  Uiso   1.00
C153   C     0.91499   0.37897   0.26445   0.00000  Uiso   1.00
C154   C     0.95374   0.39204   0.20024   0.00000  Uiso   1.00
C155   C     0.94301   0.41458   0.10394   0.00000  Uiso   1.00
C156   C     0.88837   0.30799   0.36347   0.00000  Uiso   1.00
C157   C     0.90474   0.26138   0.38252   0.00000  Uiso   1.00
C158   C     0.87161   0.22417   0.36961   0.00000  Uiso   1.00
C159   C     0.89173   0.38642   0.45161   0.00000  Uiso   1.00
C160   C     0.91092   0.40574   0.54479   0.00000  Uiso   1.00
C161   C     0.88060   0.43456   0.60610   0.00000  Uiso   1.00
H162   H     0.79330   0.37786   0.29198   0.00000  Uiso   1.00
H163   H     0.81945   0.41768   0.11352   0.00000  Uiso   1.00
H164   H     0.77046   0.28705   0.29579   0.00000  Uiso   1.00
H165   H     0.77663   0.43139   0.45803   0.00000  Uiso   1.00
H166   H     0.86950   0.45779   0.92925   0.00000  Uiso   1.00
H167   H     0.76620   0.18234   0.31362   0.00000  Uiso   1.00
H168   H     0.77922   0.48670   0.65573   0.00000  Uiso   1.00
H169   H     0.95566   0.34685   0.39685   0.00000  Uiso   1.00
H170   H     0.99071   0.38497   0.22414   0.00000  Uiso   1.00
H171   H     0.94172   0.25433   0.40641   0.00000  Uiso   1.00
H172   H     0.94789   0.39867   0.56864   0.00000  Uiso   1.00
H173   H     0.00851   0.43123   0.01903   0.00000  Uiso   1.00
H174   H     0.90520   0.15578   0.40340   0.00000  Uiso   1.00
H175   H     0.91822   0.46015   0.74551   0.00000  Uiso   1.00
O176   O     0.95914   0.47013   0.85862   0.00000  Uiso   1.00
O177   O     0.82360   0.10876   0.36291   0.00000  Uiso   1.00
O178   O     0.84068   0.50808   0.81174   0.00000  Uiso   1.00
N179   N     0.89741   0.44632   0.97409   0.00000  Uiso   1.00
N180   N     0.80082   0.18879   0.33344   0.00000  Uiso   1.00
N181   N     0.81299   0.47333   0.65330   0.00000  Uiso   1.00
N182   N     0.97220   0.43203   0.02240   0.00000  Uiso   1.00
N183   N     0.87562   0.17450   0.38175   0.00000  Uiso   1.00
N184   N     0.88779   0.45905   0.70160   0.00000  Uiso   1.00
C185   C     0.12924   0.33050   0.18399   0.00000  Uiso   1.00
C186   C     0.11190   0.36722   0.26641   0.00000  Uiso   1.00
C187   C     0.08937   0.35643   0.36262   0.00000  Uiso   1.00
C188   C     0.07627   0.39515   0.42697   0.00000  Uiso   1.00
C189   C     0.04799   0.44490   0.55966   0.00000  Uiso   1.00
C190   C     0.18288   0.34060   0.16739   0.00000  Uiso   1.00
C191   C     0.22003   0.30743   0.18033   0.00000  Uiso   1.00
C192   C     0.26668   0.32374   0.16131   0.00000  Uiso   1.00
C193   C     0.34859   0.33216   0.14019   0.00000  Uiso   1.00
C194   C     0.10445   0.34396   0.07925   0.00000  Uiso   1.00
C195   C     0.07567   0.31360   0.01806   0.00000  Uiso   1.00
C196   C     0.05630   0.33274   0.92482   0.00000  Uiso   1.00
C197   C     0.01644   0.34636   0.76685   0.00000  Uiso   1.00
C198   C     0.14604   0.41846   0.12718   0.00000  Uiso   1.00
C199   C     0.12103   0.41499   0.23555   0.00000  Uiso   1.00
C200   C     0.10796   0.45374   0.29976   0.00000  Uiso   1.00
C201   C     0.08542   0.44301   0.39606   0.00000  Uiso   1.00
C202   C     0.19201   0.38837   0.13653   0.00000  Uiso   1.00
C203   C     0.23862   0.40474   0.11748   0.00000  Uiso   1.00
C204   C     0.27583   0.37161   0.13039   0.00000  Uiso   1.00
C205   C     0.11358   0.39173   0.04839   0.00000  Uiso   1.00
C206   C     0.09426   0.41092   0.95521   0.00000  Uiso   1.00
C207   C     0.06544   0.38060   0.89390   0.00000  Uiso   1.00
H208   H     0.12214   0.29330   0.20802   0.00000  Uiso   1.00
H209   H     0.08232   0.31945   0.38648   0.00000  Uiso   1.00
H210   H     0.21295   0.27046   0.20421   0.00000  Uiso   1.00
H211   H     0.06861   0.27663   0.04197   0.00000  Uiso   1.00
H212   H     0.04221   0.36950   0.57075   0.00000  Uiso   1.00
H213   H     0.31766   0.26620   0.18638   0.00000  Uiso   1.00
H214   H     0.01330   0.27922   0.84427   0.00000  Uiso   1.00
H215   H     0.15315   0.45566   0.10315   0.00000  Uiso   1.00
H216   H     0.11503   0.49071   0.27586   0.00000  Uiso   1.00
H217   H     0.24567   0.44172   0.09359   0.00000  Uiso   1.00
H218   H     0.10133   0.44789   0.93136   0.00000  Uiso   1.00
H219   H     0.06877   0.50851   0.48097   0.00000  Uiso   1.00
H220   H     0.34422   0.40520   0.09660   0.00000  Uiso   1.00
H221   H     0.03985   0.41822   0.75449   0.00000  Uiso   1.00
O222   O     0.02987   0.45914   0.64138   0.00000  Uiso   1.00
O223   O     0.39124   0.32360   0.13709   0.00000  Uiso   1.00
O224   O     0.99192   0.34068   0.68826   0.00000  Uiso   1.00
N225   N     0.05368   0.39741   0.52591   0.00000  Uiso   1.00
N226   N     0.31121   0.30082   0.16656   0.00000  Uiso   1.00
N227   N     0.02667   0.31299   0.84670   0.00000  Uiso   1.00
N228   N     0.06797   0.47220   0.47760   0.00000  Uiso   1.00
N229   N     0.32550   0.37562   0.11825   0.00000  Uiso   1.00
N230   N     0.04095   0.38779   0.79840   0.00000  Uiso   1.00
C231   C     0.62924   0.83050   0.68399   0.00000  Uiso   1.00
C232   C     0.61190   0.86722   0.76641   0.00000  Uiso   1.00
C233   C     0.58937   0.85643   0.86262   0.00000  Uiso   1.00
C234   C     0.57627   0.89515   0.92697   0.00000  Uiso   1.00
C235   C     0.54799   0.94490   0.05966   0.00000  Uiso   1.00
C236   C     0.68288   0.84060   0.66739   0.00000  Uiso   1.00
C237   C     0.72003   0.80743   0.68033   0.00000  Uiso   1.00
C238   C     0.76668   0.82374   0.66131   0.00000  Uiso   1.00
C239   C     0.84859   0.83216   0.64019   0.00000  Uiso   1.00
C240   C     0.60445   0.84396   0.57925   0.00000  Uiso   1.00
C241   C     0.57567   0.81360   0.51806   0.00000  Uiso   1.00
C242   C     0.55630   0.83274   0.42482   0.00000  Uiso   1.00
C243   C     0.51644   0.84636   0.26685   0.00000  Uiso   1.00
C244   C     0.64604   0.91846   0.62718   0.00000  Uiso   1.00
C245   C     0.62103   0.91499   0.73555   0.00000  Uiso   1.00
C246   C     0.60796   0.95374   0.79976   0.00000  Uiso   1.00
C247   C     0.58542   0.94301   0.89606   0.00000  Uiso   1.00
C248   C     0.69201   0.88837   0.63653   0.00000  Uiso   1.00
C249   C     0.73862   0.90474   0.61748   0.00000  Uiso   1.00
C250   C     0.77583   0.87161   0.63039   0.00000  Uiso   1.00
C251   C     0.61358   0.89173   0.54839   0.00000  Uiso   1.00
C252   C     0.59426   0.91092   0.45521   0.00000  Uiso   1.00
C253   C     0.56544   0.88060   0.39390   0.00000  Uiso   1.00
H254   H     0.62214   0.79330   0.70802   0.00000  Uiso   1.00
H255   H     0.58232   0.81945   0.88648   0.00000  Uiso   1.00
H256   H     0.71295   0.77046   0.70421   0.00000  Uiso   1.00
H257   H     0.56861   0.77663   0.54197   0.00000  Uiso   1.00
H258   H     0.54221   0.86950   0.07075   0.00000  Uiso   1.00
H259   H     0.81766   0.76620   0.68638   0.00000  Uiso   1.00
H260   H     0.51330   0.77922   0.34427   0.00000  Uiso   1.00
H261   H     0.65315   0.95566   0.60315   0.00000  Uiso   1.00
H262   H     0.61503   0.99071   0.77586   0.00000  Uiso   1.00
H263   H     0.74567   0.94172   0.59359   0.00000  Uiso   1.00
H264   H     0.60133   0.94789   0.43136   0.00000  Uiso   1.00
H265   H     0.56877   0.00851   0.98097   0.00000  Uiso   1.00
H266   H     0.84422   0.90520   0.59660   0.00000  Uiso   1.00
H267   H     0.53985   0.91822   0.25449   0.00000  Uiso   1.00
O268   O     0.52987   0.95914   0.14138   0.00000  Uiso   1.00
O269   O     0.89124   0.82360   0.63709   0.00000  Uiso   1.00
O270   O     0.49192   0.84068   0.18826   0.00000  Uiso   1.00
N271   N     0.55368   0.89741   0.02591   0.00000  Uiso   1.00
N272   N     0.81121   0.80082   0.66656   0.00000  Uiso   1.00
N273   N     0.52667   0.81299   0.34670   0.00000  Uiso   1.00
N274   N     0.56797   0.97220   0.97760   0.00000  Uiso   1.00
N275   N     0.82550   0.87562   0.61825   0.00000  Uiso   1.00
N276   N     0.54095   0.88779   0.29840   0.00000  Uiso   1.00
C277   C     0.87076   0.66950   0.18399   0.00000  Uiso   1.00
C278   C     0.88810   0.63278   0.26641   0.00000  Uiso   1.00
C279   C     0.91063   0.64357   0.36262   0.00000  Uiso   1.00
C280   C     0.92373   0.60485   0.42697   0.00000  Uiso   1.00
C281   C     0.95201   0.55510   0.55966   0.00000  Uiso   1.00
C282   C     0.81712   0.65940   0.16739   0.00000  Uiso   1.00
C283   C     0.77997   0.69257   0.18033   0.00000  Uiso   1.00
C284   C     0.73332   0.67626   0.16131   0.00000  Uiso   1.00
C285   C     0.65141   0.66784   0.14019   0.00000  Uiso   1.00
C286   C     0.89555   0.65604   0.07925   0.00000  Uiso   1.00
C287   C     0.92433   0.68640   0.01806   0.00000  Uiso   1.00
C288   C     0.94370   0.66726   0.92482   0.00000  Uiso   1.00
C289   C     0.98356   0.65364   0.76685   0.00000  Uiso   1.00
C290   C     0.85396   0.58154   0.12718   0.00000  Uiso   1.00
C291   C     0.87897   0.58501   0.23555   0.00000  Uiso   1.00
C292   C     0.89204   0.54626   0.29976   0.00000  Uiso   1.00
C293   C     0.91458   0.55699   0.39606   0.00000  Uiso   1.00
C294   C     0.80799   0.61163   0.13653   0.00000  Uiso   1.00
C295   C     0.76138   0.59526   0.11748   0.00000  Uiso   1.00
C296   C     0.72417   0.62839   0.13039   0.00000  Uiso   1.00
C297   C     0.88642   0.60827   0.04839   0.00000  Uiso   1.00
C298   C     0.90574   0.58908   0.95521   0.00000  Uiso   1.00
C299   C     0.93456   0.61940   0.89390   0.00000  Uiso   1.00
H300   H     0.87786   0.70670   0.20802   0.00000  Uiso   1.00
H301   H     0.91768   0.68055   0.38648   0.00000  Uiso   1.00
H302   H     0.78705   0.72954   0.20421   0.00000  Uiso   1.00
H303   H     0.93139   0.72337   0.04197   0.00000  Uiso   1.00
H304   H     0.95779   0.63050   0.57075   0.00000  Uiso   1.00
H305   H     0.68234   0.73380   0.18638   0.00000  Uiso   1.00
H306   H     0.98670   0.72078   0.84427   0.00000  Uiso   1.00
H307   H     0.84685   0.54434   0.10315   0.00000  Uiso   1.00
H308   H     0.88497   0.50929   0.27586   0.00000  Uiso   1.00
H309   H     0.75433   0.55828   0.09359   0.00000  Uiso   1.00
H310   H     0.89867   0.55211   0.93136   0.00000  Uiso   1.00
H311   H     0.93123   0.49149   0.48097   0.00000  Uiso   1.00
H312   H     0.65578   0.59480   0.09660   0.00000  Uiso   1.00
H313   H     0.96015   0.58178   0.75449   0.00000  Uiso   1.00
O314   O     0.97013   0.54086   0.64138   0.00000  Uiso   1.00
O315   O     0.60876   0.67640   0.13709   0.00000  Uiso   1.00
O316   O     0.00808   0.65932   0.68826   0.00000  Uiso   1.00
N317   N     0.94632   0.60259   0.52591   0.00000  Uiso   1.00
N318   N     0.68879   0.69918   0.16656   0.00000  Uiso   1.00
N319   N     0.97333   0.68701   0.84670   0.00000  Uiso   1.00
N320   N     0.93203   0.52780   0.47760   0.00000  Uiso   1.00
N321   N     0.67450   0.62438   0.11825   0.00000  Uiso   1.00
N322   N     0.95905   0.61221   0.79840   0.00000  Uiso   1.00
C323   C     0.37076   0.16950   0.68399   0.00000  Uiso   1.00
C324   C     0.38810   0.13278   0.76641   0.00000  Uiso   1.00
C325   C     0.41063   0.14357   0.86262   0.00000  Uiso   1.00
C326   C     0.42373   0.10485   0.92697   0.00000  Uiso   1.00
C327   C     0.45201   0.05510   0.05966   0.00000  Uiso   1.00
C328   C     0.31712   0.15940   0.66739   0.00000  Uiso   1.00
C329   C     0.27997   0.19257   0.68033   0.00000  Uiso   1.00
C330   C     0.23332   0.17626   0.66131   0.00000  Uiso   1.00
C331   C     0.15141   0.16784   0.64019   0.00000  Uiso   1.00
C332   C     0.39555   0.15604   0.57925   0.00000  Uiso   1.00
C333   C     0.42433   0.18640   0.51806   0.00000  Uiso   1.00
C334   C     0.44370   0.16726   0.42482   0.00000  Uiso   1.00
C335   C     0.48356   0.15364   0.26685   0.00000  Uiso   1.00
C336   C     0.35396   0.08154   0.62718   0.00000  Uiso   1.00
C337   C     0.37897   0.08501   0.73555   0.00000  Uiso   1.00
C338   C     0.39204   0.04626   0.79976   0.00000  Uiso   1.00
C339   C     0.41458   0.05699   0.89606   0.00000  Uiso   1.00
C340   C     0.30799   0.11163   0.63653   0.00000  Uiso   1.00
C341   C     0.26138   0.09526   0.61748   0.00000  Uiso   1.00
C342   C     0.22417   0.12839   0.63039   0.00000  Uiso   1.00
C343   C     0.38642   0.10827   0.54839   0.00000  Uiso   1.00
C344   C     0.40574   0.08908   0.45521   0.00000  Uiso   1.00
C345   C     0.43456   0.11940   0.39390   0.00000  Uiso   1.00
H346   H     0.37786   0.20670   0.70802   0.00000  Uiso   1.00
H347   H     0.41768   0.18055   0.88648   0.00000  Uiso   1.00
H348   H     0.28705   0.22954   0.70421   0.00000  Uiso   1.00
H349   H     0.43139   0.22337   0.54197   0.00000  Uiso   1.00
H350   H     0.45779   0.13050   0.07075   0.00000  Uiso   1.00
H351   H     0.18234   0.23380   0.68638   0.00000  Uiso   1.00
H352   H     0.48670   0.22078   0.34427   0.00000  Uiso   1.00
H353   H     0.34685   0.04434   0.60315   0.00000  Uiso   1.00
H354   H     0.38497   0.00929   0.77586   0.00000  Uiso   1.00
H355   H     0.25433   0.05828   0.59359   0.00000  Uiso   1.00
H356   H     0.39867   0.05211   0.43136   0.00000  Uiso   1.00
H357   H     0.43123   0.99149   0.98097   0.00000  Uiso   1.00
H358   H     0.15578   0.09480   0.59660   0.00000  Uiso   1.00
H359   H     0.46015   0.08178   0.25449   0.00000  Uiso   1.00
O360   O     0.47013   0.04086   0.14138   0.00000  Uiso   1.00
O361   O     0.10876   0.17640   0.63709   0.00000  Uiso   1.00
O362   O     0.50808   0.15932   0.18826   0.00000  Uiso   1.00
N363   N     0.44632   0.10259   0.02591   0.00000  Uiso   1.00
N364   N     0.18879   0.19918   0.66656   0.00000  Uiso   1.00
N365   N     0.47333   0.18701   0.34670   0.00000  Uiso   1.00
N366   N     0.43203   0.02780   0.97760   0.00000  Uiso   1.00
N367   N     0.17450   0.12438   0.61825   0.00000  Uiso   1.00
N368   N     0.45905   0.11221   0.29840   0.00000  Uiso   1.00
C369   C     0.83050   0.12924   0.93399   0.00000  Uiso   1.00
C370   C     0.86722   0.11190   0.01641   0.00000  Uiso   1.00
C371   C     0.85643   0.08937   0.11262   0.00000  Uiso   1.00
C372   C     0.89515   0.07627   0.17697   0.00000  Uiso   1.00
C373   C     0.94490   0.04799   0.30966   0.00000  Uiso   1.00
C374   C     0.84060   0.18288   0.91739   0.00000  Uiso   1.00
C375   C     0.80743   0.22003   0.93033   0.00000  Uiso   1.00
C376   C     0.82374   0.26668   0.91131   0.00000  Uiso   1.00
C377   C     0.83216   0.34859   0.89019   0.00000  Uiso   1.00
C378   C     0.84396   0.10445   0.82925   0.00000  Uiso   1.00
C379   C     0.81360   0.07567   0.76806   0.00000  Uiso   1.00
C380   C     0.83274   0.05630   0.67482   0.00000  Uiso   1.00
C381   C     0.84636   0.01644   0.51685   0.00000  Uiso   1.00
C382   C     0.91846   0.14604   0.87718   0.00000  Uiso   1.00
C383   C     0.91499   0.12103   0.98555   0.00000  Uiso   1.00
C384   C     0.95374   0.10796   0.04976   0.00000  Uiso   1.00
C385   C     0.94301   0.08542   0.14606   0.00000  Uiso   1.00
C386   C     0.88837   0.19201   0.88653   0.00000  Uiso   1.00
C387   C     0.90474   0.23862   0.86748   0.00000  Uiso   1.00
C388   C     0.87161   0.27583   0.88039   0.00000  Uiso   1.00
C389   C     0.89173   0.11358   0.79839   0.00000  Uiso   1.00
C390   C     0.91092   0.09426   0.70521   0.00000  Uiso   1.00
C391   C     0.88060   0.06544   0.64390   0.00000  Uiso   1.00
H392   H     0.79330   0.12214   0.95802   0.00000  Uiso   1.00
H393   H     0.81945   0.08232   0.13648   0.00000  Uiso   1.00
H394   H     0.77046   0.21295   0.95421   0.00000  Uiso   1.00
H395   H     0.77663   0.06861   0.79197   0.00000  Uiso   1.00
H396   H     0.86950   0.04221   0.32075   0.00000  Uiso   1.00
H397   H     0.76620   0.31766   0.93638   0.00000  Uiso   1.00
H398   H     0.77922   0.01330   0.59427   0.00000  Uiso   1.00
H399   H     0.95566   0.15315   0.85315   0.00000  Uiso   1.00
H400   H     0.99071   0.11503   0.02586   0.00000  Uiso   1.00
H401   H     0.94172   0.24567   0.84359   0.00000  Uiso   1.00
H402   H     0.94789   0.10133   0.68136   0.00000  Uiso   1.00
H403   H     0.00851   0.06877   0.23097   0.00000  Uiso   1.00
H404   H     0.90520   0.34422   0.84660   0.00000  Uiso   1.00
H405   H     0.91822   0.03985   0.50449   0.00000  Uiso   1.00
O406   O     0.95914   0.02987   0.39138   0.00000  Uiso   1.00
O407   O     0.82360   0.39124   0.88709   0.00000  Uiso   1.00
O408   O     0.84068   0.99192   0.43826   0.00000  Uiso   1.00
N409   N     0.89741   0.05368   0.27591   0.00000  Uiso   1.00
N410   N     0.80082   0.31121   0.91656   0.00000  Uiso   1.00
N411   N     0.81299   0.02667   0.59670   0.00000  Uiso   1.00
N412   N     0.97220   0.06797   0.22760   0.00000  Uiso   1.00
N413   N     0.87562   0.32550   0.86825   0.00000  Uiso   1.00
N414   N     0.88779   0.04095   0.54840   0.00000  Uiso   1.00
C415   C     0.33050   0.62924   0.43399   0.00000  Uiso   1.00
C416   C     0.36722   0.61190   0.51641   0.00000  Uiso   1.00
C417   C     0.35643   0.58937   0.61262   0.00000  Uiso   1.00
C418   C     0.39515   0.57627   0.67697   0.00000  Uiso   1.00
C419   C     0.44490   0.54799   0.80966   0.00000  Uiso   1.00
C420   C     0.34060   0.68288   0.41739   0.00000  Uiso   1.00
C421   C     0.30743   0.72003   0.43033   0.00000  Uiso   1.00
C422   C     0.32374   0.76668   0.41131   0.00000  Uiso   1.00
C423   C     0.33216   0.84859   0.39019   0.00000  Uiso   1.00
C424   C     0.34396   0.60445   0.32925   0.00000  Uiso   1.00
C425   C     0.31360   0.57567   0.26806   0.00000  Uiso   1.00
C426   C     0.33274   0.55630   0.17482   0.00000  Uiso   1.00
C427   C     0.34636   0.51644   0.01685   0.00000  Uiso   1.00
C428   C     0.41846   0.64604   0.37718   0.00000  Uiso   1.00
C429   C     0.41499   0.62103   0.48555   0.00000  Uiso   1.00
C430   C     0.45374   0.60796   0.54976   0.00000  Uiso   1.00
C431   C     0.44301   0.58542   0.64606   0.00000  Uiso   1.00
C432   C     0.38837   0.69201   0.38653   0.00000  Uiso   1.00
C433   C     0.40474   0.73862   0.36748   0.00000  Uiso   1.00
C434   C     0.37161   0.77583   0.38039   0.00000  Uiso   1.00
C435   C     0.39173   0.61358   0.29839   0.00000  Uiso   1.00
C436   C     0.41092   0.59426   0.20521   0.00000  Uiso   1.00
C437   C     0.38060   0.56544   0.14390   0.00000  Uiso   1.00
H438   H     0.29330   0.62214   0.45802   0.00000  Uiso   1.00
H439   H     0.31945   0.58232   0.63648   0.00000  Uiso   1.00
H440   H     0.27046   0.71295   0.45421   0.00000  Uiso   1.00
H441   H     0.27663   0.56861   0.29197   0.00000  Uiso   1.00
H442   H     0.36950   0.54221   0.82075   0.00000  Uiso   1.00
H443   H     0.26620   0.81766   0.43638   0.00000  Uiso   1.00
H444   H     0.27922   0.51330   0.09427   0.00000  Uiso   1.00
H445   H     0.45566   0.65315   0.35315   0.00000  Uiso   1.00
H446   H     0.49071   0.61503   0.52586   0.00000  Uiso   1.00
H447   H     0.44172   0.74567   0.34359   0.00000  Uiso   1.00
H448   H     0.44789   0.60133   0.18136   0.00000  Uiso   1.00
H449   H     0.50851   0.56877   0.73097   0.00000  Uiso   1.00
H450   H     0.40520   0.84422   0.34660   0.00000  Uiso   1.00
H451   H     0.41822   0.53985   0.00449   0.00000  Uiso   1.00
O452   O     0.45914   0.52987   0.89138   0.00000  Uiso   1.00
O453   O     0.32360   0.89124   0.38709   0.00000  Uiso   1.00
O454   O     0.34068   0.49192   0.93826   0.00000  Uiso   1.00
N455   N     0.39741   0.55368   0.77591   0.00000  Uiso   1.00
N456   N     0.30082   0.81121   0.41656   0.00000  Uiso   1.00
N457   N     0.31299   0.52667   0.09670   0.00000  Uiso   1.00
N458   N     0.47220   0.56797   0.72760   0.00000  Uiso   1.00
N459   N     0.37562   0.82550   0.36825   0.00000  Uiso   1.00
N460   N     0.38779   0.54095   0.04840   0.00000  Uiso   1.00
C461   C     0.16950   0.87076   0.93399   0.00000  Uiso   1.00
C462   C     0.13278   0.88810   0.01641   0.00000  Uiso   1.00
C463   C     0.14357   0.91063   0.11262   0.00000  Uiso   1.00
C464   C     0.10485   0.92373   0.17697   0.00000  Uiso   1.00
C465   C     0.05510   0.95201   0.30966   0.00000  Uiso   1.00
C466   C     0.15940   0.81712   0.91739   0.00000  Uiso   1.00
C467   C     0.19257   0.77997   0.93033   0.00000  Uiso   1.00
C468   C     0.17626   0.73332   0.91131   0.00000  Uiso   1.00
C469   C     0.16784   0.65141   0.89019   0.00000  Uiso   1.00
C470   C     0.15604   0.89555   0.82925   0.00000  Uiso   1.00
C471   C     0.18640   0.92433   0.76806   0.00000  Uiso   1.00
C472   C     0.16726   0.94370   0.67482   0.00000  Uiso   1.00
C473   C     0.15364   0.98356   0.51685   0.00000  Uiso   1.00
C474   C     0.08154   0.85396   0.87718   0.00000  Uiso   1.00
C475   C     0.08501   0.87897   0.98555   0.00000  Uiso   1.00
C476   C     0.04626   0.89204   0.04976   0.00000  Uiso   1.00
C477   C     0.05699   0.91458   0.14606   0.00000  Uiso   1.00
C478   C     0.11163   0.80799   0.88653   0.00000  Uiso   1.00
C479   C     0.09526   0.76138   0.86748   0.00000  Uiso   1.00
C480   C     0.12839   0.72417   0.88039   0.00000  Uiso   1.00
C481   C     0.10827   0.88642   0.79839   0.00000  Uiso   1.00
C482   C     0.08908   0.90574   0.70521   0.00000  Uiso   1.00
C483   C     0.11940   0.93456   0.64390   0.00000  Uiso   1.00
H484   H     0.20670   0.87786   0.95802   0.00000  Uiso   1.00
H485   H     0.18055   0.91768   0.13648   0.00000  Uiso   1.00
H486   H     0.22954   0.78705   0.95421   0.00000  Uiso   1.00
H487   H     0.22337   0.93139   0.79197   0.00000  Uiso   1.00
H488   H     0.13050   0.95779   0.32075   0.00000  Uiso   1.00
H489   H     0.23380   0.68234   0.93638   0.00000  Uiso   1.00
H490   H     0.22078   0.98670   0.59427   0.00000  Uiso   1.00
H491   H     0.04434   0.84685   0.85315   0.00000  Uiso   1.00
H492   H     0.00929   0.88497   0.02586   0.00000  Uiso   1.00
H493   H     0.05828   0.75433   0.84359   0.00000  Uiso   1.00
H494   H     0.05211   0.89867   0.68136   0.00000  Uiso   1.00
H495   H     0.99149   0.93123   0.23097   0.00000  Uiso   1.00
H496   H     0.09480   0.65578   0.84660   0.00000  Uiso   1.00
H497   H     0.08178   0.96015   0.50449   0.00000  Uiso   1.00
O498   O     0.04086   0.97013   0.39138   0.00000  Uiso   1.00
O499   O     0.17640   0.60876   0.88709   0.00000  Uiso   1.00
O500   O     0.15932   0.00808   0.43826   0.00000  Uiso   1.00
N501   N     0.10259   0.94632   0.27591   0.00000  Uiso   1.00
N502   N     0.19918   0.68879   0.91656   0.00000  Uiso   1.00
N503   N     0.18701   0.97333   0.59670   0.00000  Uiso   1.00
N504   N     0.02780   0.93203   0.22760   0.00000  Uiso   1.00
N505   N     0.12438   0.67450   0.86825   0.00000  Uiso   1.00
N506   N     0.11221   0.95905   0.54840   0.00000  Uiso   1.00
C507   C     0.66950   0.37076   0.43399   0.00000  Uiso   1.00
C508   C     0.63278   0.38810   0.51641   0.00000  Uiso   1.00
C509   C     0.64357   0.41063   0.61262   0.00000  Uiso   1.00
C510   C     0.60485   0.42373   0.67697   0.00000  Uiso   1.00
C511   C     0.55510   0.45201   0.80966   0.00000  Uiso   1.00
C512   C     0.65940   0.31712   0.41739   0.00000  Uiso   1.00
C513   C     0.69257   0.27997   0.43033   0.00000  Uiso   1.00
C514   C     0.67626   0.23332   0.41131   0.00000  Uiso   1.00
C515   C     0.66784   0.15141   0.39019   0.00000  Uiso   1.00
C516   C     0.65604   0.39555   0.32925   0.00000  Uiso   1.00
C517   C     0.68640   0.42433   0.26806   0.00000  Uiso   1.00
C518   C     0.66726   0.44370   0.17482   0.00000  Uiso   1.00
C519   C     0.65364   0.48356   0.01685   0.00000  Uiso   1.00
C520   C     0.58154   0.35396   0.37718   0.00000  Uiso   1.00
C521   C     0.58501   0.37897   0.48555   0.00000  Uiso   1.00
C522   C     0.54626   0.39204   0.54976   0.00000  Uiso   1.00
C523   C     0.55699   0.41458   0.64606   0.00000  Uiso   1.00
C524   C     0.61163   0.30799   0.38653   0.00000  Uiso   1.00
C525   C     0.59526   0.26138   0.36748   0.00000  Uiso   1.00
C526   C     0.62839   0.22417   0.38039   0.00000  Uiso   1.00
C527   C     0.60827   0.38642   0.29839   0.00000  Uiso   1.00
C528   C     0.58908   0.40574   0.20521   0.00000  Uiso   1.00
C529   C     0.61940   0.43456   0.14390   0.00000  Uiso   1.00
H530   H     0.70670   0.37786   0.45802   0.00000  Uiso   1.00
H531   H     0.68055   0.41768   0.63648   0.00000  Uiso   1.00
H532   H     0.72954   0.28705   0.45421   0.00000  Uiso   1.00
H533   H     0.72337   0.43139   0.29197   0.00000  Uiso   1.00
H534   H     0.63050   0.45779   0.82075   0.00000  Uiso   1.00
H535   H     0.73380   0.18234   0.43638   0.00000  Uiso   1.00
H536   H     0.72078   0.48670   0.09427   0.00000  Uiso   1.00
H537   H     0.54434   0.34685   0.35315   0.00000  Uiso   1.00
H538   H     0.50929   0.38497   0.52586   0.00000  Uiso   1.00
H539   H     0.55828   0.25433   0.34359   0.00000  Uiso   1.00
H540   H     0.55211   0.39867   0.18136   0.00000  Uiso   1.00
H541   H     0.49149   0.43123   0.73097   0.00000  Uiso   1.00
H542   H     0.59480   0.15578   0.34660   0.00000  Uiso   1.00
H543   H     0.58178   0.46015   0.00449   0.00000  Uiso   1.00
O544   O     0.54086   0.47013   0.89138   0.00000  Uiso   1.00
O545   O     0.67640   0.10876   0.38709   0.00000  Uiso   1.00
O546   O     0.65932   0.50808   0.93826   0.00000  Uiso   1.00
N547   N     0.60259   0.44632   0.77591   0.00000  Uiso   1.00
N548   N     0.69918   0.18879   0.41656   0.00000  Uiso   1.00
N549   N     0.68701   0.47333   0.09670   0.00000  Uiso   1.00
N550   N     0.52780   0.43203   0.72760   0.00000  Uiso   1.00
N551   N     0.62438   0.17450   0.36825   0.00000  Uiso   1.00
N552   N     0.61221   0.45905   0.04840   0.00000  Uiso   1.00
C553   C     0.37076   0.33050   0.56601   0.00000  Uiso   1.00
C554   C     0.38810   0.36722   0.48359   0.00000  Uiso   1.00
C555   C     0.41063   0.35643   0.38738   0.00000  Uiso   1.00
C556   C     0.42373   0.39515   0.32303   0.00000  Uiso   1.00
C557   C     0.45201   0.44490   0.19034   0.00000  Uiso   1.00
C558   C     0.31712   0.34060   0.58261   0.00000  Uiso   1.00
C559   C     0.27997   0.30743   0.56967   0.00000  Uiso   1.00
C560   C     0.23332   0.32374   0.58869   0.00000  Uiso   1.00
C561   C     0.15141   0.33216   0.60981   0.00000  Uiso   1.00
C562   C     0.39555   0.34396   0.67075   0.00000  Uiso   1.00
C563   C     0.42433   0.31360   0.73194   0.00000  Uiso   1.00
C564   C     0.44370   0.33274   0.82518   0.00000  Uiso   1.00
C565   C     0.48356   0.34636   0.98315   0.00000  Uiso   1.00
C566   C     0.35396   0.41846   0.62282   0.00000  Uiso   1.00
C567   C     0.37897   0.41499   0.51445   0.00000  Uiso   1.00
C568   C     0.39204   0.45374   0.45024   0.00000  Uiso   1.00
C569   C     0.41458   0.44301   0.35394   0.00000  Uiso   1.00
C570   C     0.30799   0.38837   0.61347   0.00000  Uiso   1.00
C571   C     0.26138   0.40474   0.63252   0.00000  Uiso   1.00
C572   C     0.22417   0.37161   0.61961   0.00000  Uiso   1.00
C573   C     0.38642   0.39173   0.70161   0.00000  Uiso   1.00
C574   C     0.40574   0.41092   0.79479   0.00000  Uiso   1.00
C575   C     0.43456   0.38060   0.85610   0.00000  Uiso   1.00
H576   H     0.37786   0.29330   0.54198   0.00000  Uiso   1.00
H577   H     0.41768   0.31945   0.36352   0.00000  Uiso   1.00
H578   H     0.28705   0.27046   0.54579   0.00000  Uiso   1.00
H579   H     0.43139   0.27663   0.70803   0.00000  Uiso   1.00
H580   H     0.45779   0.36950   0.17925   0.00000  Uiso   1.00
H581   H     0.18234   0.26620   0.56362   0.00000  Uiso   1.00
H582   H     0.48670   0.27922   0.90573   0.00000  Uiso   1.00
H583   H     0.34685   0.45566   0.64685   0.00000  Uiso   1.00
H584   H     0.38497   0.49071   0.47414   0.00000  Uiso   1.00
H585   H     0.25433   0.44172   0.65641   0.00000  Uiso   1.00
H586   H     0.39867   0.44789   0.81864   0.00000  Uiso   1.00
H587   H     0.43123   0.50851   0.26903   0.00000  Uiso   1.00
H588   H     0.15578   0.40520   0.65340   0.00000  Uiso   1.00
H589   H     0.46015   0.41822   0.99551   0.00000  Uiso   1.00
O590   O     0.47013   0.45914   0.10862   0.00000  Uiso   1.00
O591   O     0.10876   0.32360   0.61291   0.00000  Uiso   1.00
O592   O     0.50808   0.34068   0.06174   0.00000  Uiso   1.00
N593   N     0.44632   0.39741   0.22409   0.00000  Uiso   1.00
N594   N     0.18879   0.30082   0.58344   0.00000  Uiso   1.00
N595   N     0.47333   0.31299   0.90330   0.00000  Uiso   1.00
N596   N     0.43203   0.47220   0.27240   0.00000  Uiso   1.00
N597   N     0.17450   0.37562   0.63175   0.00000  Uiso   1.00
N598   N     0.45905   0.38779   0.95160   0.00000  Uiso   1.00
C599   C     0.87076   0.83050   0.06601   0.00000  Uiso   1.00
C600   C     0.88810   0.86722   0.98359   0.00000  Uiso   1.00
C601   C     0.91063   0.85643   0.88738   0.00000  Uiso   1.00
C602   C     0.92373   0.89515   0.82303   0.00000  Uiso   1.00
C603   C     0.95201   0.94490   0.69034   0.00000  Uiso   1.00
C604   C     0.81712   0.84060   0.08261   0.00000  Uiso   1.00
C605   C     0.77997   0.80743   0.06967   0.00000  Uiso   1.00
C606   C     0.73332   0.82374   0.08869   0.00000  Uiso   1.00
C607   C     0.65141   0.83216   0.10981   0.00000  Uiso   1.00
C608   C     0.89555   0.84396   0.17075   0.00000  Uiso   1.00
C609   C     0.92433   0.81360   0.23194   0.00000  Uiso   1.00
C610   C     0.94370   0.83274   0.32518   0.00000  Uiso   1.00
C611   C     0.98356   0.84636   0.48315   0.00000  Uiso   1.00
C612   C     0.85396   0.91846   0.12282   0.00000  Uiso   1.00
C613   C     0.87897   0.91499   0.01445   0.00000  Uiso   1.00
C614   C     0.89204   0.95374   0.95024   0.00000  Uiso   1.00
C615   C     0.91458   0.94301   0.85394   0.00000  Uiso   1.00
C616   C     0.80799   0.88837   0.11347   0.00000  Uiso   1.00
C617   C     0.76138   0.90474   0.13252   0.00000  Uiso   1.00
C618   C     0.72417   0.87161   0.11961   0.00000  Uiso   1.00
C619   C     0.88642   0.89173   0.20161   0.00000  Uiso   1.00
C620   C     0.90574   0.91092   0.29479   0.00000  Uiso   1.00
C621   C     0.93456   0.88060   0.35610   0.00000  Uiso   1.00
H622   H     0.87786   0.79330   0.04198   0.00000  Uiso   1.00
H623   H     0.91768   0.81945   0.86352   0.00000  Uiso   1.00
H624   H     0.78705   0.77046   0.04579   0.00000  Uiso   1.00
H625   H     0.93139   0.77663   0.20803   0.00000  Uiso   1.00
H626   H     0.95779   0.86950   0.67925   0.00000  Uiso   1.00
H627   H     0.68234   0.76620   0.06362   0.00000  Uiso   1.00
H628   H     0.98670   0.77922   0.40573   0.00000  Uiso   1.00
H629   H     0.84685   0.95566   0.14685   0.00000  Uiso   1.00
H630   H     0.88497   0.99071   0.97414   0.00000  Uiso   1.00
H631   H     0.75433   0.94172   0.15641   0.00000  Uiso   1.00
H632   H     0.89867   0.94789   0.31864   0.00000  Uiso   1.00
H633   H     0.93123   0.00851   0.76903   0.00000  Uiso   1.00
H634   H     0.65578   0.90520   0.15340   0.00000  Uiso   1.00
H635   H     0.96015   0.91822   0.49551   0.00000  Uiso   1.00
O636   O     0.97013   0.95914   0.60862   0.00000  Uiso   1.00
O637   O     0.60876   0.82360   0.11291   0.00000  Uiso   1.00
O638   O     0.00808   0.84068   0.56174   0.00000  Uiso   1.00
N639   N     0.94632   0.89741   0.72409   0.00000  Uiso   1.00
N640   N     0.68879   0.80082   0.08344   0.00000  Uiso   1.00
N641   N     0.97333   0.81299   0.40330   0.00000  Uiso   1.00
N642   N     0.93203   0.97220   0.77240   0.00000  Uiso   1.00
N643   N     0.67450   0.87562   0.13175   0.00000  Uiso   1.00
N644   N     0.95905   0.88779   0.45160   0.00000  Uiso   1.00
C645   C     0.62924   0.66950   0.56601   0.00000  Uiso   1.00
C646   C     0.61190   0.63278   0.48359   0.00000  Uiso   1.00
C647   C     0.58937   0.64357   0.38738   0.00000  Uiso   1.00
C648   C     0.57627   0.60485   0.32303   0.00000  Uiso   1.00
C649   C     0.54799   0.55510   0.19034   0.00000  Uiso   1.00
C650   C     0.68288   0.65940   0.58261   0.00000  Uiso   1.00
C651   C     0.72003   0.69257   0.56967   0.00000  Uiso   1.00
C652   C     0.76668   0.67626   0.58869   0.00000  Uiso   1.00
C653   C     0.84859   0.66784   0.60981   0.00000  Uiso   1.00
C654   C     0.60445   0.65604   0.67075   0.00000  Uiso   1.00
C655   C     0.57567   0.68640   0.73194   0.00000  Uiso   1.00
C656   C     0.55630   0.66726   0.82518   0.00000  Uiso   1.00
C657   C     0.51644   0.65364   0.98315   0.00000  Uiso   1.00
C658   C     0.64604   0.58154   0.62282   0.00000  Uiso   1.00
C659   C     0.62103   0.58501   0.51445   0.00000  Uiso   1.00
C660   C     0.60796   0.54626   0.45024   0.00000  Uiso   1.00
C661   C     0.58542   0.55699   0.35394   0.00000  Uiso   1.00
C662   C     0.69201   0.61163   0.61347   0.00000  Uiso   1.00
C663   C     0.73862   0.59526   0.63252   0.00000  Uiso   1.00
C664   C     0.77583   0.62839   0.61961   0.00000  Uiso   1.00
C665   C     0.61358   0.60827   0.70161   0.00000  Uiso   1.00
C666   C     0.59426   0.58908   0.79479   0.00000  Uiso   1.00
C667   C     0.56544   0.61940   0.85610   0.00000  Uiso   1.00
H668   H     0.62214   0.70670   0.54198   0.00000  Uiso   1.00
H669   H     0.58232   0.68055   0.36352   0.00000  Uiso   1.00
H670   H     0.71295   0.72954   0.54579   0.00000  Uiso   1.00
H671   H     0.56861   0.72337   0.70803   0.00000  Uiso   1.00
H672   H     0.54221   0.63050   0.17925   0.00000  Uiso   1.00
H673   H     0.81766   0.73380   0.56362   0.00000  Uiso   1.00
H674   H     0.51330   0.72078   0.90573   0.00000  Uiso   1.00
H675   H     0.65315   0.54434   0.64685   0.00000  Uiso   1.00
H676   H     0.61503   0.50929   0.47414   0.00000  Uiso   1.00
H677   H     0.74567   0.55828   0.65641   0.00000  Uiso   1.00
H678   H     0.60133   0.55211   0.81864   0.00000  Uiso   1.00
H679   H     0.56877   0.49149   0.26903   0.00000  Uiso   1.00
H680   H     0.84422   0.59480   0.65340   0.00000  Uiso   1.00
H681   H     0.53985   0.58178   0.99551   0.00000  Uiso   1.00
O682   O     0.52987   0.54086   0.10862   0.00000  Uiso   1.00
O683   O     0.89124   0.67640   0.61291   0.00000  Uiso   1.00
O684   O     0.49192   0.65932   0.06174   0.00000  Uiso   1.00
N685   N     0.55368   0.60259   0.22409   0.00000  Uiso   1.00
N686   N     0.81121   0.69918   0.58344   0.00000  Uiso   1.00
N687   N     0.52667   0.68701   0.90330   0.00000  Uiso   1.00
N688   N     0.56797   0.52780   0.27240   0.00000  Uiso   1.00
N689   N     0.82550   0.62438   0.63175   0.00000  Uiso   1.00
N690   N     0.54095   0.61221   0.95160   0.00000  Uiso   1.00
C691   C     0.12924   0.16950   0.06601   0.00000  Uiso   1.00
C692   C     0.11190   0.13278   0.98359   0.00000  Uiso   1.00
C693   C     0.08937   0.14357   0.88738   0.00000  Uiso   1.00
C694   C     0.07627   0.10485   0.82303   0.00000  Uiso   1.00
C695   C     0.04799   0.05510   0.69034   0.00000  Uiso   1.00
C696   C     0.18288   0.15940   0.08261   0.00000  Uiso   1.00
C697   C     0.22003   0.19257   0.06967   0.00000  Uiso   1.00
C698   C     0.26668   0.17626   0.08869   0.00000  Uiso   1.00
C699   C     0.34859   0.16784   0.10981   0.00000  Uiso   1.00
C700   C     0.10445   0.15604   0.17075   0.00000  Uiso   1.00
C701   C     0.07567   0.18640   0.23194   0.00000  Uiso   1.00
C702   C     0.05630   0.16726   0.32518   0.00000  Uiso   1.00
C703   C     0.01644   0.15364   0.48315   0.00000  Uiso   1.00
C704   C     0.14604   0.08154   0.12282   0.00000  Uiso   1.00
C705   C     0.12103   0.08501   0.01445   0.00000  Uiso   1.00
C706   C     0.10796   0.04626   0.95024   0.00000  Uiso   1.00
C707   C     0.08542   0.05699   0.85394   0.00000  Uiso   1.00
C708   C     0.19201   0.11163   0.11347   0.00000  Uiso   1.00
C709   C     0.23862   0.09526   0.13252   0.00000  Uiso   1.00
C710   C     0.27583   0.12839   0.11961   0.00000  Uiso   1.00
C711   C     0.11358   0.10827   0.20161   0.00000  Uiso   1.00
C712   C     0.09426   0.08908   0.29479   0.00000  Uiso   1.00
C713   C     0.06544   0.11940   0.35610   0.00000  Uiso   1.00
H714   H     0.12214   0.20670   0.04198   0.00000  Uiso   1.00
H715   H     0.08232   0.18055   0.86352   0.00000  Uiso   1.00
H716   H     0.21295   0.22954   0.04579   0.00000  Uiso   1.00
H717   H     0.06861   0.22337   0.20803   0.00000  Uiso   1.00
H718   H     0.04221   0.13050   0.67925   0.00000  Uiso   1.00
H719   H     0.31766   0.23380   0.06362   0.00000  Uiso   1.00
H720   H     0.01330   0.22078   0.40573   0.00000  Uiso   1.00
H721   H     0.15315   0.04434   0.14685   0.00000  Uiso   1.00
H722   H     0.11503   0.00929   0.97414   0.00000  Uiso   1.00
H723   H     0.24567   0.05828   0.15641   0.00000  Uiso   1.00
H724   H     0.10133   0.05211   0.31864   0.00000  Uiso   1.00
H725   H     0.06877   0.99149   0.76903   0.00000  Uiso   1.00
H726   H     0.34422   0.09480   0.15340   0.00000  Uiso   1.00
H727   H     0.03985   0.08178   0.49551   0.00000  Uiso   1.00
O728   O     0.02987   0.04086   0.60862   0.00000  Uiso   1.00
O729   O     0.39124   0.17640   0.11291   0.00000  Uiso   1.00
O730   O     0.99192   0.15932   0.56174   0.00000  Uiso   1.00
N731   N     0.05368   0.10259   0.72409   0.00000  Uiso   1.00
N732   N     0.31121   0.19918   0.08344   0.00000  Uiso   1.00
N733   N     0.02667   0.18701   0.40330   0.00000  Uiso   1.00
N734   N     0.06797   0.02780   0.77240   0.00000  Uiso   1.00
N735   N     0.32550   0.12438   0.13175   0.00000  Uiso   1.00
N736   N     0.04095   0.11221   0.45160   0.00000  Uiso   1.00
