data_job_03396
_audit_creation_date              2018-12-19
_audit_creation_method            'Materials Studio'
_symmetry_space_group_name_H-M    'P1'
_symmetry_Int_Tables_number       1
_symmetry_cell_setting            triclinic
loop_
_symmetry_equiv_pos_as_xyz
  x,y,z
_cell_length_a                    24.1111
_cell_length_b                    18.8739
_cell_length_c                    24.0495
_cell_angle_alpha                 90.0000
_cell_angle_beta                  90.0000
_cell_angle_gamma                 90.0000
loop_
_atom_site_label
_atom_site_type_symbol
_atom_site_fract_x
_atom_site_fract_y
_atom_site_fract_z
_atom_site_U_iso_or_equiv
_atom_site_adp_type
_atom_site_occupancy
C1     C     0.34643   0.21390   0.62450   0.00000  Uiso   1.00
C2     C     0.30886   0.15230   0.64078   0.00000  Uiso   1.00
C3     C     0.26778   0.15420   0.68118   0.00000  Uiso   1.00
C4     C     0.23794   0.09227   0.68989   0.00000  Uiso   1.00
C5     C     0.17797   0.00598   0.71984   0.00000  Uiso   1.00
C6     C     0.40570   0.18737   0.63196   0.00000  Uiso   1.00
C7     C     0.44605   0.21876   0.66493   0.00000  Uiso   1.00
C8     C     0.49774   0.18636   0.66621   0.00000  Uiso   1.00
C9     C     0.58813   0.15455   0.68244   0.00000  Uiso   1.00
C10    C     0.33846   0.22434   0.56214   0.00000  Uiso   1.00
C11    C     0.32229   0.28683   0.53639   0.00000  Uiso   1.00
C12    C     0.31738   0.28556   0.47888   0.00000  Uiso   1.00
C13    C     0.30337   0.31116   0.38670   0.00000  Uiso   1.00
C14    C     0.36647   0.10055   0.56814   0.00000  Uiso   1.00
C15    C     0.31975   0.09074   0.61017   0.00000  Uiso   1.00
C16    C     0.28996   0.02879   0.61881   0.00000  Uiso   1.00
C17    C     0.24884   0.03060   0.65921   0.00000  Uiso   1.00
C18    C     0.41659   0.12581   0.60135   0.00000  Uiso   1.00
C19    C     0.46823   0.09336   0.60257   0.00000  Uiso   1.00
C20    C     0.50864   0.12468   0.63554   0.00000  Uiso   1.00
C21    C     0.34935   0.16278   0.53152   0.00000  Uiso   1.00
C22    C     0.34447   0.16142   0.47403   0.00000  Uiso   1.00
C23    C     0.32829   0.22389   0.44821   0.00000  Uiso   1.00
H24    H     0.33796   0.26183   0.64834   0.00000  Uiso   1.00
H25    H     0.25937   0.20185   0.70486   0.00000  Uiso   1.00
H26    H     0.43762   0.26640   0.68861   0.00000  Uiso   1.00
H27    H     0.31387   0.33446   0.56010   0.00000  Uiso   1.00
H28    H     0.17706   0.10819   0.75405   0.00000  Uiso   1.00
H29    H     0.55290   0.24433   0.71977   0.00000  Uiso   1.00
H30    H     0.29197   0.38783   0.44877   0.00000  Uiso   1.00
H31    H     0.37495   0.05262   0.54430   0.00000  Uiso   1.00
H32    H     0.29840   0.98116   0.59512   0.00000  Uiso   1.00
H33    H     0.47664   0.04572   0.57887   0.00000  Uiso   1.00
H34    H     0.35290   0.11377   0.45036   0.00000  Uiso   1.00
H35    H     0.20874   0.92907   0.66497   0.00000  Uiso   1.00
H36    H     0.58458   0.06521   0.63070   0.00000  Uiso   1.00
H37    H     0.32364   0.20871   0.35970   0.00000  Uiso   1.00
O38    O     0.14188   0.97539   0.74483   0.00000  Uiso   1.00
O39    O     0.63497   0.15400   0.69985   0.00000  Uiso   1.00
O40    O     0.29263   0.34228   0.34431   0.00000  Uiso   1.00
N41    N     0.19502   0.07585   0.72610   0.00000  Uiso   1.00
N42    N     0.54640   0.20312   0.69406   0.00000  Uiso   1.00
N43    N     0.30246   0.33729   0.44070   0.00000  Uiso   1.00
N44    N     0.21206   0.97946   0.67817   0.00000  Uiso   1.00
N45    N     0.56345   0.10674   0.64613   0.00000  Uiso   1.00
N46    N     0.31951   0.24091   0.39277   0.00000  Uiso   1.00
C47    C     0.84643   0.71390   0.62450   0.00000  Uiso   1.00
C48    C     0.80886   0.65230   0.64078   0.00000  Uiso   1.00
C49    C     0.76778   0.65420   0.68118   0.00000  Uiso   1.00
C50    C     0.73794   0.59227   0.68989   0.00000  Uiso   1.00
C51    C     0.67797   0.50598   0.71984   0.00000  Uiso   1.00
C52    C     0.90570   0.68737   0.63196   0.00000  Uiso   1.00
C53    C     0.94605   0.71876   0.66493   0.00000  Uiso   1.00
C54    C     0.99774   0.68636   0.66621   0.00000  Uiso   1.00
C55    C     0.08813   0.65455   0.68244   0.00000  Uiso   1.00
C56    C     0.83846   0.72434   0.56214   0.00000  Uiso   1.00
C57    C     0.82229   0.78683   0.53639   0.00000  Uiso   1.00
C58    C     0.81738   0.78556   0.47888   0.00000  Uiso   1.00
C59    C     0.80337   0.81116   0.38670   0.00000  Uiso   1.00
C60    C     0.86647   0.60055   0.56814   0.00000  Uiso   1.00
C61    C     0.81975   0.59074   0.61017   0.00000  Uiso   1.00
C62    C     0.78996   0.52879   0.61881   0.00000  Uiso   1.00
C63    C     0.74884   0.53060   0.65921   0.00000  Uiso   1.00
C64    C     0.91659   0.62581   0.60135   0.00000  Uiso   1.00
C65    C     0.96823   0.59336   0.60257   0.00000  Uiso   1.00
C66    C     0.00864   0.62468   0.63554   0.00000  Uiso   1.00
C67    C     0.84935   0.66278   0.53152   0.00000  Uiso   1.00
C68    C     0.84447   0.66142   0.47403   0.00000  Uiso   1.00
C69    C     0.82829   0.72389   0.44821   0.00000  Uiso   1.00
H70    H     0.83796   0.76183   0.64834   0.00000  Uiso   1.00
H71    H     0.75937   0.70185   0.70486   0.00000  Uiso   1.00
H72    H     0.93762   0.76640   0.68861   0.00000  Uiso   1.00
H73    H     0.81387   0.83446   0.56010   0.00000  Uiso   1.00
H74    H     0.67706   0.60819   0.75405   0.00000  Uiso   1.00
H75    H     0.05290   0.74433   0.71977   0.00000  Uiso   1.00
H76    H     0.79197   0.88783   0.44877   0.00000  Uiso   1.00
H77    H     0.87495   0.55262   0.54430   0.00000  Uiso   1.00
H78    H     0.79840   0.48116   0.59512   0.00000  Uiso   1.00
H79    H     0.97664   0.54572   0.57887   0.00000  Uiso   1.00
H80    H     0.85290   0.61377   0.45036   0.00000  Uiso   1.00
H81    H     0.70874   0.42907   0.66497   0.00000  Uiso   1.00
H82    H     0.08458   0.56521   0.63070   0.00000  Uiso   1.00
H83    H     0.82364   0.70871   0.35970   0.00000  Uiso   1.00
O84    O     0.64188   0.47539   0.74483   0.00000  Uiso   1.00
O85    O     0.13497   0.65400   0.69985   0.00000  Uiso   1.00
O86    O     0.79263   0.84228   0.34431   0.00000  Uiso   1.00
N87    N     0.69502   0.57585   0.72610   0.00000  Uiso   1.00
N88    N     0.04640   0.70312   0.69406   0.00000  Uiso   1.00
N89    N     0.80246   0.83729   0.44070   0.00000  Uiso   1.00
N90    N     0.71206   0.47946   0.67817   0.00000  Uiso   1.00
N91    N     0.06345   0.60674   0.64613   0.00000  Uiso   1.00
N92    N     0.81951   0.74091   0.39277   0.00000  Uiso   1.00
C93    C     0.15357   0.28610   0.62450   0.00000  Uiso   1.00
C94    C     0.19114   0.34770   0.64078   0.00000  Uiso   1.00
C95    C     0.23222   0.34580   0.68118   0.00000  Uiso   1.00
C96    C     0.26206   0.40773   0.68989   0.00000  Uiso   1.00
C97    C     0.32203   0.49402   0.71984   0.00000  Uiso   1.00
C98    C     0.09430   0.31263   0.63196   0.00000  Uiso   1.00
C99    C     0.05395   0.28124   0.66493   0.00000  Uiso   1.00
C100   C     0.00226   0.31364   0.66621   0.00000  Uiso   1.00
C101   C     0.91187   0.34545   0.68244   0.00000  Uiso   1.00
C102   C     0.16154   0.27566   0.56214   0.00000  Uiso   1.00
C103   C     0.17771   0.21317   0.53639   0.00000  Uiso   1.00
C104   C     0.18262   0.21444   0.47888   0.00000  Uiso   1.00
C105   C     0.19663   0.18884   0.38670   0.00000  Uiso   1.00
C106   C     0.13353   0.39945   0.56814   0.00000  Uiso   1.00
C107   C     0.18025   0.40926   0.61017   0.00000  Uiso   1.00
C108   C     0.21004   0.47121   0.61881   0.00000  Uiso   1.00
C109   C     0.25116   0.46940   0.65921   0.00000  Uiso   1.00
C110   C     0.08341   0.37419   0.60135   0.00000  Uiso   1.00
C111   C     0.03177   0.40664   0.60257   0.00000  Uiso   1.00
C112   C     0.99136   0.37532   0.63554   0.00000  Uiso   1.00
C113   C     0.15065   0.33722   0.53152   0.00000  Uiso   1.00
C114   C     0.15553   0.33858   0.47403   0.00000  Uiso   1.00
C115   C     0.17171   0.27611   0.44821   0.00000  Uiso   1.00
H116   H     0.16204   0.23817   0.64834   0.00000  Uiso   1.00
H117   H     0.24063   0.29815   0.70486   0.00000  Uiso   1.00
H118   H     0.06238   0.23360   0.68861   0.00000  Uiso   1.00
H119   H     0.18613   0.16554   0.56010   0.00000  Uiso   1.00
H120   H     0.32294   0.39181   0.75405   0.00000  Uiso   1.00
H121   H     0.94710   0.25567   0.71977   0.00000  Uiso   1.00
H122   H     0.20803   0.11217   0.44877   0.00000  Uiso   1.00
H123   H     0.12505   0.44738   0.54430   0.00000  Uiso   1.00
H124   H     0.20160   0.51884   0.59512   0.00000  Uiso   1.00
H125   H     0.02336   0.45428   0.57887   0.00000  Uiso   1.00
H126   H     0.14710   0.38623   0.45036   0.00000  Uiso   1.00
H127   H     0.29126   0.57093   0.66497   0.00000  Uiso   1.00
H128   H     0.91542   0.43479   0.63070   0.00000  Uiso   1.00
H129   H     0.17636   0.29129   0.35970   0.00000  Uiso   1.00
O130   O     0.35812   0.52461   0.74483   0.00000  Uiso   1.00
O131   O     0.86503   0.34600   0.69985   0.00000  Uiso   1.00
O132   O     0.20737   0.15772   0.34431   0.00000  Uiso   1.00
N133   N     0.30498   0.42415   0.72610   0.00000  Uiso   1.00
N134   N     0.95360   0.29688   0.69406   0.00000  Uiso   1.00
N135   N     0.19754   0.16271   0.44070   0.00000  Uiso   1.00
N136   N     0.28794   0.52054   0.67817   0.00000  Uiso   1.00
N137   N     0.93655   0.39326   0.64613   0.00000  Uiso   1.00
N138   N     0.18049   0.25909   0.39277   0.00000  Uiso   1.00
C139   C     0.65357   0.78610   0.62450   0.00000  Uiso   1.00
C140   C     0.69114   0.84770   0.64078   0.00000  Uiso   1.00
C141   C     0.73222   0.84580   0.68118   0.00000  Uiso   1.00
C142   C     0.76206   0.90773   0.68989   0.00000  Uiso   1.00
C143   C     0.82203   0.99402   0.71984   0.00000  Uiso   1.00
C144   C     0.59430   0.81263   0.63196   0.00000  Uiso   1.00
C145   C     0.55395   0.78124   0.66493   0.00000  Uiso   1.00
C146   C     0.50226   0.81364   0.66621   0.00000  Uiso   1.00
C147   C     0.41187   0.84545   0.68244   0.00000  Uiso   1.00
C148   C     0.66154   0.77566   0.56214   0.00000  Uiso   1.00
C149   C     0.67771   0.71317   0.53639   0.00000  Uiso   1.00
C150   C     0.68262   0.71444   0.47888   0.00000  Uiso   1.00
C151   C     0.69663   0.68884   0.38670   0.00000  Uiso   1.00
C152   C     0.63353   0.89945   0.56814   0.00000  Uiso   1.00
C153   C     0.68025   0.90926   0.61017   0.00000  Uiso   1.00
C154   C     0.71004   0.97121   0.61881   0.00000  Uiso   1.00
C155   C     0.75116   0.96940   0.65921   0.00000  Uiso   1.00
C156   C     0.58341   0.87419   0.60135   0.00000  Uiso   1.00
C157   C     0.53177   0.90664   0.60257   0.00000  Uiso   1.00
C158   C     0.49136   0.87532   0.63554   0.00000  Uiso   1.00
C159   C     0.65065   0.83722   0.53152   0.00000  Uiso   1.00
C160   C     0.65553   0.83858   0.47403   0.00000  Uiso   1.00
C161   C     0.67171   0.77611   0.44821   0.00000  Uiso   1.00
H162   H     0.66204   0.73817   0.64834   0.00000  Uiso   1.00
H163   H     0.74063   0.79815   0.70486   0.00000  Uiso   1.00
H164   H     0.56238   0.73360   0.68861   0.00000  Uiso   1.00
H165   H     0.68613   0.66554   0.56010   0.00000  Uiso   1.00
H166   H     0.82294   0.89181   0.75405   0.00000  Uiso   1.00
H167   H     0.44710   0.75567   0.71977   0.00000  Uiso   1.00
H168   H     0.70803   0.61217   0.44877   0.00000  Uiso   1.00
H169   H     0.62505   0.94738   0.54430   0.00000  Uiso   1.00
H170   H     0.70160   0.01884   0.59512   0.00000  Uiso   1.00
H171   H     0.52336   0.95428   0.57887   0.00000  Uiso   1.00
H172   H     0.64710   0.88623   0.45036   0.00000  Uiso   1.00
H173   H     0.79126   0.07093   0.66497   0.00000  Uiso   1.00
H174   H     0.41542   0.93479   0.63070   0.00000  Uiso   1.00
H175   H     0.67636   0.79129   0.35970   0.00000  Uiso   1.00
O176   O     0.85812   0.02461   0.74483   0.00000  Uiso   1.00
O177   O     0.36503   0.84600   0.69985   0.00000  Uiso   1.00
O178   O     0.70737   0.65772   0.34431   0.00000  Uiso   1.00
N179   N     0.80498   0.92415   0.72610   0.00000  Uiso   1.00
N180   N     0.45360   0.79688   0.69406   0.00000  Uiso   1.00
N181   N     0.69754   0.66271   0.44070   0.00000  Uiso   1.00
N182   N     0.78794   0.02054   0.67817   0.00000  Uiso   1.00
N183   N     0.43655   0.89326   0.64613   0.00000  Uiso   1.00
N184   N     0.68049   0.75909   0.39277   0.00000  Uiso   1.00
C185   C     0.65357   0.21390   0.37550   0.00000  Uiso   1.00
C186   C     0.69114   0.15230   0.35922   0.00000  Uiso   1.00
C187   C     0.73222   0.15420   0.31882   0.00000  Uiso   1.00
C188   C     0.76206   0.09227   0.31011   0.00000  Uiso   1.00
C189   C     0.82203   0.00598   0.28016   0.00000  Uiso   1.00
C190   C     0.59430   0.18737   0.36804   0.00000  Uiso   1.00
C191   C     0.55395   0.21876   0.33507   0.00000  Uiso   1.00
C192   C     0.50226   0.18636   0.33379   0.00000  Uiso   1.00
C193   C     0.41187   0.15455   0.31756   0.00000  Uiso   1.00
C194   C     0.66154   0.22434   0.43786   0.00000  Uiso   1.00
C195   C     0.67771   0.28683   0.46361   0.00000  Uiso   1.00
C196   C     0.68262   0.28556   0.52112   0.00000  Uiso   1.00
C197   C     0.69663   0.31116   0.61330   0.00000  Uiso   1.00
C198   C     0.63353   0.10055   0.43186   0.00000  Uiso   1.00
C199   C     0.68025   0.09074   0.38983   0.00000  Uiso   1.00
C200   C     0.71004   0.02879   0.38119   0.00000  Uiso   1.00
C201   C     0.75116   0.03060   0.34079   0.00000  Uiso   1.00
C202   C     0.58341   0.12581   0.39865   0.00000  Uiso   1.00
C203   C     0.53177   0.09336   0.39743   0.00000  Uiso   1.00
C204   C     0.49136   0.12468   0.36446   0.00000  Uiso   1.00
C205   C     0.65065   0.16278   0.46848   0.00000  Uiso   1.00
C206   C     0.65553   0.16142   0.52597   0.00000  Uiso   1.00
C207   C     0.67171   0.22389   0.55179   0.00000  Uiso   1.00
H208   H     0.66204   0.26183   0.35166   0.00000  Uiso   1.00
H209   H     0.74063   0.20185   0.29514   0.00000  Uiso   1.00
H210   H     0.56238   0.26640   0.31139   0.00000  Uiso   1.00
H211   H     0.68613   0.33446   0.43990   0.00000  Uiso   1.00
H212   H     0.82294   0.10819   0.24595   0.00000  Uiso   1.00
H213   H     0.44710   0.24433   0.28023   0.00000  Uiso   1.00
H214   H     0.70803   0.38783   0.55123   0.00000  Uiso   1.00
H215   H     0.62505   0.05262   0.45570   0.00000  Uiso   1.00
H216   H     0.70160   0.98116   0.40488   0.00000  Uiso   1.00
H217   H     0.52336   0.04572   0.42113   0.00000  Uiso   1.00
H218   H     0.64710   0.11377   0.54964   0.00000  Uiso   1.00
H219   H     0.79126   0.92907   0.33503   0.00000  Uiso   1.00
H220   H     0.41542   0.06521   0.36930   0.00000  Uiso   1.00
H221   H     0.67636   0.20871   0.64030   0.00000  Uiso   1.00
O222   O     0.85812   0.97539   0.25517   0.00000  Uiso   1.00
O223   O     0.36503   0.15400   0.30015   0.00000  Uiso   1.00
O224   O     0.70737   0.34228   0.65569   0.00000  Uiso   1.00
N225   N     0.80498   0.07585   0.27390   0.00000  Uiso   1.00
N226   N     0.45360   0.20312   0.30594   0.00000  Uiso   1.00
N227   N     0.69754   0.33729   0.55930   0.00000  Uiso   1.00
N228   N     0.78794   0.97946   0.32183   0.00000  Uiso   1.00
N229   N     0.43655   0.10674   0.35387   0.00000  Uiso   1.00
N230   N     0.68049   0.24091   0.60723   0.00000  Uiso   1.00
C231   C     0.15357   0.71390   0.37550   0.00000  Uiso   1.00
C232   C     0.19114   0.65230   0.35922   0.00000  Uiso   1.00
C233   C     0.23222   0.65420   0.31882   0.00000  Uiso   1.00
C234   C     0.26206   0.59227   0.31011   0.00000  Uiso   1.00
C235   C     0.32203   0.50598   0.28016   0.00000  Uiso   1.00
C236   C     0.09430   0.68737   0.36804   0.00000  Uiso   1.00
C237   C     0.05395   0.71876   0.33507   0.00000  Uiso   1.00
C238   C     0.00226   0.68636   0.33379   0.00000  Uiso   1.00
C239   C     0.91187   0.65455   0.31756   0.00000  Uiso   1.00
C240   C     0.16154   0.72434   0.43786   0.00000  Uiso   1.00
C241   C     0.17771   0.78683   0.46361   0.00000  Uiso   1.00
C242   C     0.18262   0.78556   0.52112   0.00000  Uiso   1.00
C243   C     0.19663   0.81116   0.61330   0.00000  Uiso   1.00
C244   C     0.13353   0.60055   0.43186   0.00000  Uiso   1.00
C245   C     0.18025   0.59074   0.38983   0.00000  Uiso   1.00
C246   C     0.21004   0.52879   0.38119   0.00000  Uiso   1.00
C247   C     0.25116   0.53060   0.34079   0.00000  Uiso   1.00
C248   C     0.08341   0.62581   0.39865   0.00000  Uiso   1.00
C249   C     0.03177   0.59336   0.39743   0.00000  Uiso   1.00
C250   C     0.99136   0.62468   0.36446   0.00000  Uiso   1.00
C251   C     0.15065   0.66278   0.46848   0.00000  Uiso   1.00
C252   C     0.15553   0.66142   0.52597   0.00000  Uiso   1.00
C253   C     0.17171   0.72389   0.55179   0.00000  Uiso   1.00
H254   H     0.16204   0.76183   0.35166   0.00000  Uiso   1.00
H255   H     0.24063   0.70185   0.29514   0.00000  Uiso   1.00
H256   H     0.06238   0.76640   0.31139   0.00000  Uiso   1.00
H257   H     0.18613   0.83446   0.43990   0.00000  Uiso   1.00
H258   H     0.32294   0.60819   0.24595   0.00000  Uiso   1.00
H259   H     0.94710   0.74433   0.28023   0.00000  Uiso   1.00
H260   H     0.20803   0.88783   0.55123   0.00000  Uiso   1.00
H261   H     0.12505   0.55262   0.45570   0.00000  Uiso   1.00
H262   H     0.20160   0.48116   0.40488   0.00000  Uiso   1.00
H263   H     0.02336   0.54572   0.42113   0.00000  Uiso   1.00
H264   H     0.14710   0.61377   0.54964   0.00000  Uiso   1.00
H265   H     0.29126   0.42907   0.33503   0.00000  Uiso   1.00
H266   H     0.91542   0.56521   0.36930   0.00000  Uiso   1.00
H267   H     0.17636   0.70871   0.64030   0.00000  Uiso   1.00
O268   O     0.35812   0.47539   0.25517   0.00000  Uiso   1.00
O269   O     0.86503   0.65400   0.30015   0.00000  Uiso   1.00
O270   O     0.20737   0.84228   0.65569   0.00000  Uiso   1.00
N271   N     0.30498   0.57585   0.27390   0.00000  Uiso   1.00
N272   N     0.95360   0.70312   0.30594   0.00000  Uiso   1.00
N273   N     0.19754   0.83729   0.55930   0.00000  Uiso   1.00
N274   N     0.28794   0.47946   0.32183   0.00000  Uiso   1.00
N275   N     0.93655   0.60674   0.35387   0.00000  Uiso   1.00
N276   N     0.18049   0.74091   0.60723   0.00000  Uiso   1.00
C277   C     0.84643   0.28610   0.37550   0.00000  Uiso   1.00
C278   C     0.80886   0.34770   0.35922   0.00000  Uiso   1.00
C279   C     0.76778   0.34580   0.31882   0.00000  Uiso   1.00
C280   C     0.73794   0.40773   0.31011   0.00000  Uiso   1.00
C281   C     0.67797   0.49402   0.28016   0.00000  Uiso   1.00
C282   C     0.90570   0.31263   0.36804   0.00000  Uiso   1.00
C283   C     0.94605   0.28124   0.33507   0.00000  Uiso   1.00
C284   C     0.99774   0.31364   0.33379   0.00000  Uiso   1.00
C285   C     0.08813   0.34545   0.31756   0.00000  Uiso   1.00
C286   C     0.83846   0.27566   0.43786   0.00000  Uiso   1.00
C287   C     0.82229   0.21317   0.46361   0.00000  Uiso   1.00
C288   C     0.81738   0.21444   0.52112   0.00000  Uiso   1.00
C289   C     0.80337   0.18884   0.61330   0.00000  Uiso   1.00
C290   C     0.86647   0.39945   0.43186   0.00000  Uiso   1.00
C291   C     0.81975   0.40926   0.38983   0.00000  Uiso   1.00
C292   C     0.78996   0.47121   0.38119   0.00000  Uiso   1.00
C293   C     0.74884   0.46940   0.34079   0.00000  Uiso   1.00
C294   C     0.91659   0.37419   0.39865   0.00000  Uiso   1.00
C295   C     0.96823   0.40664   0.39743   0.00000  Uiso   1.00
C296   C     0.00864   0.37532   0.36446   0.00000  Uiso   1.00
C297   C     0.84935   0.33722   0.46848   0.00000  Uiso   1.00
C298   C     0.84447   0.33858   0.52597   0.00000  Uiso   1.00
C299   C     0.82829   0.27611   0.55179   0.00000  Uiso   1.00
H300   H     0.83796   0.23817   0.35166   0.00000  Uiso   1.00
H301   H     0.75937   0.29815   0.29514   0.00000  Uiso   1.00
H302   H     0.93762   0.23360   0.31139   0.00000  Uiso   1.00
H303   H     0.81387   0.16554   0.43990   0.00000  Uiso   1.00
H304   H     0.67706   0.39181   0.24595   0.00000  Uiso   1.00
H305   H     0.05290   0.25567   0.28023   0.00000  Uiso   1.00
H306   H     0.79197   0.11217   0.55123   0.00000  Uiso   1.00
H307   H     0.87495   0.44738   0.45570   0.00000  Uiso   1.00
H308   H     0.79840   0.51884   0.40488   0.00000  Uiso   1.00
H309   H     0.97664   0.45428   0.42113   0.00000  Uiso   1.00
H310   H     0.85290   0.38623   0.54964   0.00000  Uiso   1.00
H311   H     0.70874   0.57093   0.33503   0.00000  Uiso   1.00
H312   H     0.08458   0.43479   0.36930   0.00000  Uiso   1.00
H313   H     0.82364   0.29129   0.64030   0.00000  Uiso   1.00
O314   O     0.64188   0.52461   0.25517   0.00000  Uiso   1.00
O315   O     0.13497   0.34600   0.30015   0.00000  Uiso   1.00
O316   O     0.79263   0.15772   0.65569   0.00000  Uiso   1.00
N317   N     0.69502   0.42415   0.27390   0.00000  Uiso   1.00
N318   N     0.04640   0.29688   0.30594   0.00000  Uiso   1.00
N319   N     0.80246   0.16271   0.55930   0.00000  Uiso   1.00
N320   N     0.71206   0.52054   0.32183   0.00000  Uiso   1.00
N321   N     0.06345   0.39326   0.35387   0.00000  Uiso   1.00
N322   N     0.81951   0.25909   0.60723   0.00000  Uiso   1.00
C323   C     0.34643   0.78610   0.37550   0.00000  Uiso   1.00
C324   C     0.30886   0.84770   0.35922   0.00000  Uiso   1.00
C325   C     0.26778   0.84580   0.31882   0.00000  Uiso   1.00
C326   C     0.23794   0.90773   0.31011   0.00000  Uiso   1.00
C327   C     0.17797   0.99402   0.28016   0.00000  Uiso   1.00
C328   C     0.40570   0.81263   0.36804   0.00000  Uiso   1.00
C329   C     0.44605   0.78124   0.33507   0.00000  Uiso   1.00
C330   C     0.49774   0.81364   0.33379   0.00000  Uiso   1.00
C331   C     0.58813   0.84545   0.31756   0.00000  Uiso   1.00
C332   C     0.33846   0.77566   0.43786   0.00000  Uiso   1.00
C333   C     0.32229   0.71317   0.46361   0.00000  Uiso   1.00
C334   C     0.31738   0.71444   0.52112   0.00000  Uiso   1.00
C335   C     0.30337   0.68884   0.61330   0.00000  Uiso   1.00
C336   C     0.36647   0.89945   0.43186   0.00000  Uiso   1.00
C337   C     0.31975   0.90926   0.38983   0.00000  Uiso   1.00
C338   C     0.28996   0.97121   0.38119   0.00000  Uiso   1.00
C339   C     0.24884   0.96940   0.34079   0.00000  Uiso   1.00
C340   C     0.41659   0.87419   0.39865   0.00000  Uiso   1.00
C341   C     0.46823   0.90664   0.39743   0.00000  Uiso   1.00
C342   C     0.50864   0.87532   0.36446   0.00000  Uiso   1.00
C343   C     0.34935   0.83722   0.46848   0.00000  Uiso   1.00
C344   C     0.34447   0.83858   0.52597   0.00000  Uiso   1.00
C345   C     0.32829   0.77611   0.55179   0.00000  Uiso   1.00
H346   H     0.33796   0.73817   0.35166   0.00000  Uiso   1.00
H347   H     0.25937   0.79815   0.29514   0.00000  Uiso   1.00
H348   H     0.43762   0.73360   0.31139   0.00000  Uiso   1.00
H349   H     0.31387   0.66554   0.43990   0.00000  Uiso   1.00
H350   H     0.17706   0.89181   0.24595   0.00000  Uiso   1.00
H351   H     0.55290   0.75567   0.28023   0.00000  Uiso   1.00
H352   H     0.29197   0.61217   0.55123   0.00000  Uiso   1.00
H353   H     0.37495   0.94738   0.45570   0.00000  Uiso   1.00
H354   H     0.29840   0.01884   0.40488   0.00000  Uiso   1.00
H355   H     0.47664   0.95428   0.42113   0.00000  Uiso   1.00
H356   H     0.35290   0.88623   0.54964   0.00000  Uiso   1.00
H357   H     0.20874   0.07093   0.33503   0.00000  Uiso   1.00
H358   H     0.58458   0.93479   0.36930   0.00000  Uiso   1.00
H359   H     0.32364   0.79129   0.64030   0.00000  Uiso   1.00
O360   O     0.14188   0.02461   0.25517   0.00000  Uiso   1.00
O361   O     0.63497   0.84600   0.30015   0.00000  Uiso   1.00
O362   O     0.29263   0.65772   0.65569   0.00000  Uiso   1.00
N363   N     0.19502   0.92415   0.27390   0.00000  Uiso   1.00
N364   N     0.54640   0.79688   0.30594   0.00000  Uiso   1.00
N365   N     0.30246   0.66271   0.55930   0.00000  Uiso   1.00
N366   N     0.21206   0.02054   0.32183   0.00000  Uiso   1.00
N367   N     0.56345   0.89326   0.35387   0.00000  Uiso   1.00
N368   N     0.31951   0.75909   0.60723   0.00000  Uiso   1.00
C369   C     0.65357   0.28610   0.87550   0.00000  Uiso   1.00
C370   C     0.69114   0.34770   0.85922   0.00000  Uiso   1.00
C371   C     0.73222   0.34580   0.81882   0.00000  Uiso   1.00
C372   C     0.76206   0.40773   0.81011   0.00000  Uiso   1.00
C373   C     0.82203   0.49402   0.78016   0.00000  Uiso   1.00
C374   C     0.59430   0.31263   0.86804   0.00000  Uiso   1.00
C375   C     0.55395   0.28124   0.83507   0.00000  Uiso   1.00
C376   C     0.50226   0.31364   0.83379   0.00000  Uiso   1.00
C377   C     0.41187   0.34545   0.81756   0.00000  Uiso   1.00
C378   C     0.66154   0.27566   0.93786   0.00000  Uiso   1.00
C379   C     0.67771   0.21317   0.96361   0.00000  Uiso   1.00
C380   C     0.68262   0.21444   0.02112   0.00000  Uiso   1.00
C381   C     0.69663   0.18884   0.11330   0.00000  Uiso   1.00
C382   C     0.63353   0.39945   0.93186   0.00000  Uiso   1.00
C383   C     0.68025   0.40926   0.88983   0.00000  Uiso   1.00
C384   C     0.71004   0.47121   0.88119   0.00000  Uiso   1.00
C385   C     0.75116   0.46940   0.84079   0.00000  Uiso   1.00
C386   C     0.58341   0.37419   0.89865   0.00000  Uiso   1.00
C387   C     0.53177   0.40664   0.89743   0.00000  Uiso   1.00
C388   C     0.49136   0.37532   0.86446   0.00000  Uiso   1.00
C389   C     0.65065   0.33722   0.96848   0.00000  Uiso   1.00
C390   C     0.65553   0.33858   0.02597   0.00000  Uiso   1.00
C391   C     0.67171   0.27611   0.05179   0.00000  Uiso   1.00
H392   H     0.66204   0.23817   0.85166   0.00000  Uiso   1.00
H393   H     0.74063   0.29815   0.79514   0.00000  Uiso   1.00
H394   H     0.56238   0.23360   0.81139   0.00000  Uiso   1.00
H395   H     0.68613   0.16554   0.93990   0.00000  Uiso   1.00
H396   H     0.82294   0.39181   0.74595   0.00000  Uiso   1.00
H397   H     0.44710   0.25567   0.78023   0.00000  Uiso   1.00
H398   H     0.70803   0.11217   0.05123   0.00000  Uiso   1.00
H399   H     0.62505   0.44738   0.95570   0.00000  Uiso   1.00
H400   H     0.70160   0.51884   0.90488   0.00000  Uiso   1.00
H401   H     0.52336   0.45428   0.92113   0.00000  Uiso   1.00
H402   H     0.64710   0.38623   0.04964   0.00000  Uiso   1.00
H403   H     0.79126   0.57093   0.83503   0.00000  Uiso   1.00
H404   H     0.41542   0.43479   0.86930   0.00000  Uiso   1.00
H405   H     0.67636   0.29129   0.14030   0.00000  Uiso   1.00
O406   O     0.85812   0.52461   0.75517   0.00000  Uiso   1.00
O407   O     0.36503   0.34600   0.80015   0.00000  Uiso   1.00
O408   O     0.70737   0.15772   0.15569   0.00000  Uiso   1.00
N409   N     0.80498   0.42415   0.77390   0.00000  Uiso   1.00
N410   N     0.45360   0.29688   0.80594   0.00000  Uiso   1.00
N411   N     0.69754   0.16271   0.05930   0.00000  Uiso   1.00
N412   N     0.78794   0.52054   0.82183   0.00000  Uiso   1.00
N413   N     0.43655   0.39326   0.85387   0.00000  Uiso   1.00
N414   N     0.68049   0.25909   0.10723   0.00000  Uiso   1.00
C415   C     0.15357   0.78610   0.87550   0.00000  Uiso   1.00
C416   C     0.19114   0.84770   0.85922   0.00000  Uiso   1.00
C417   C     0.23222   0.84580   0.81882   0.00000  Uiso   1.00
C418   C     0.26206   0.90773   0.81011   0.00000  Uiso   1.00
C419   C     0.32203   0.99402   0.78016   0.00000  Uiso   1.00
C420   C     0.09430   0.81263   0.86804   0.00000  Uiso   1.00
C421   C     0.05395   0.78124   0.83507   0.00000  Uiso   1.00
C422   C     0.00226   0.81364   0.83379   0.00000  Uiso   1.00
C423   C     0.91187   0.84545   0.81756   0.00000  Uiso   1.00
C424   C     0.16154   0.77566   0.93786   0.00000  Uiso   1.00
C425   C     0.17771   0.71317   0.96361   0.00000  Uiso   1.00
C426   C     0.18262   0.71444   0.02112   0.00000  Uiso   1.00
C427   C     0.19663   0.68884   0.11330   0.00000  Uiso   1.00
C428   C     0.13353   0.89945   0.93186   0.00000  Uiso   1.00
C429   C     0.18025   0.90926   0.88983   0.00000  Uiso   1.00
C430   C     0.21004   0.97121   0.88119   0.00000  Uiso   1.00
C431   C     0.25116   0.96940   0.84079   0.00000  Uiso   1.00
C432   C     0.08341   0.87419   0.89865   0.00000  Uiso   1.00
C433   C     0.03177   0.90664   0.89743   0.00000  Uiso   1.00
C434   C     0.99136   0.87532   0.86446   0.00000  Uiso   1.00
C435   C     0.15065   0.83722   0.96848   0.00000  Uiso   1.00
C436   C     0.15553   0.83858   0.02597   0.00000  Uiso   1.00
C437   C     0.17171   0.77611   0.05179   0.00000  Uiso   1.00
H438   H     0.16204   0.73817   0.85166   0.00000  Uiso   1.00
H439   H     0.24063   0.79815   0.79514   0.00000  Uiso   1.00
H440   H     0.06238   0.73360   0.81139   0.00000  Uiso   1.00
H441   H     0.18613   0.66554   0.93990   0.00000  Uiso   1.00
H442   H     0.32294   0.89181   0.74595   0.00000  Uiso   1.00
H443   H     0.94710   0.75567   0.78023   0.00000  Uiso   1.00
H444   H     0.20803   0.61217   0.05123   0.00000  Uiso   1.00
H445   H     0.12505   0.94738   0.95570   0.00000  Uiso   1.00
H446   H     0.20160   0.01884   0.90488   0.00000  Uiso   1.00
H447   H     0.02336   0.95428   0.92113   0.00000  Uiso   1.00
H448   H     0.14710   0.88623   0.04964   0.00000  Uiso   1.00
H449   H     0.29126   0.07093   0.83503   0.00000  Uiso   1.00
H450   H     0.91542   0.93479   0.86930   0.00000  Uiso   1.00
H451   H     0.17636   0.79129   0.14030   0.00000  Uiso   1.00
O452   O     0.35812   0.02461   0.75517   0.00000  Uiso   1.00
O453   O     0.86503   0.84600   0.80015   0.00000  Uiso   1.00
O454   O     0.20737   0.65772   0.15569   0.00000  Uiso   1.00
N455   N     0.30498   0.92415   0.77390   0.00000  Uiso   1.00
N456   N     0.95360   0.79688   0.80594   0.00000  Uiso   1.00
N457   N     0.19754   0.66271   0.05930   0.00000  Uiso   1.00
N458   N     0.28794   0.02054   0.82183   0.00000  Uiso   1.00
N459   N     0.93655   0.89326   0.85387   0.00000  Uiso   1.00
N460   N     0.18049   0.75909   0.10723   0.00000  Uiso   1.00
C461   C     0.84643   0.21390   0.87550   0.00000  Uiso   1.00
C462   C     0.80886   0.15230   0.85922   0.00000  Uiso   1.00
C463   C     0.76778   0.15420   0.81882   0.00000  Uiso   1.00
C464   C     0.73794   0.09227   0.81011   0.00000  Uiso   1.00
C465   C     0.67797   0.00598   0.78016   0.00000  Uiso   1.00
C466   C     0.90570   0.18737   0.86804   0.00000  Uiso   1.00
C467   C     0.94605   0.21876   0.83507   0.00000  Uiso   1.00
C468   C     0.99774   0.18636   0.83379   0.00000  Uiso   1.00
C469   C     0.08813   0.15455   0.81756   0.00000  Uiso   1.00
C470   C     0.83846   0.22434   0.93786   0.00000  Uiso   1.00
C471   C     0.82229   0.28683   0.96361   0.00000  Uiso   1.00
C472   C     0.81738   0.28556   0.02112   0.00000  Uiso   1.00
C473   C     0.80337   0.31116   0.11330   0.00000  Uiso   1.00
C474   C     0.86647   0.10055   0.93186   0.00000  Uiso   1.00
C475   C     0.81975   0.09074   0.88983   0.00000  Uiso   1.00
C476   C     0.78996   0.02879   0.88119   0.00000  Uiso   1.00
C477   C     0.74884   0.03060   0.84079   0.00000  Uiso   1.00
C478   C     0.91659   0.12581   0.89865   0.00000  Uiso   1.00
C479   C     0.96823   0.09336   0.89743   0.00000  Uiso   1.00
C480   C     0.00864   0.12468   0.86446   0.00000  Uiso   1.00
C481   C     0.84935   0.16278   0.96848   0.00000  Uiso   1.00
C482   C     0.84447   0.16142   0.02597   0.00000  Uiso   1.00
C483   C     0.82829   0.22389   0.05179   0.00000  Uiso   1.00
H484   H     0.83796   0.26183   0.85166   0.00000  Uiso   1.00
H485   H     0.75937   0.20185   0.79514   0.00000  Uiso   1.00
H486   H     0.93762   0.26640   0.81139   0.00000  Uiso   1.00
H487   H     0.81387   0.33446   0.93990   0.00000  Uiso   1.00
H488   H     0.67706   0.10819   0.74595   0.00000  Uiso   1.00
H489   H     0.05290   0.24433   0.78023   0.00000  Uiso   1.00
H490   H     0.79197   0.38783   0.05123   0.00000  Uiso   1.00
H491   H     0.87495   0.05262   0.95570   0.00000  Uiso   1.00
H492   H     0.79840   0.98116   0.90488   0.00000  Uiso   1.00
H493   H     0.97664   0.04572   0.92113   0.00000  Uiso   1.00
H494   H     0.85290   0.11377   0.04964   0.00000  Uiso   1.00
H495   H     0.70874   0.92907   0.83503   0.00000  Uiso   1.00
H496   H     0.08458   0.06521   0.86930   0.00000  Uiso   1.00
H497   H     0.82364   0.20871   0.14030   0.00000  Uiso   1.00
O498   O     0.64188   0.97539   0.75517   0.00000  Uiso   1.00
O499   O     0.13497   0.15400   0.80015   0.00000  Uiso   1.00
O500   O     0.79263   0.34228   0.15569   0.00000  Uiso   1.00
N501   N     0.69502   0.07585   0.77390   0.00000  Uiso   1.00
N502   N     0.04640   0.20312   0.80594   0.00000  Uiso   1.00
N503   N     0.80246   0.33729   0.05930   0.00000  Uiso   1.00
N504   N     0.71206   0.97946   0.82183   0.00000  Uiso   1.00
N505   N     0.06345   0.10674   0.85387   0.00000  Uiso   1.00
N506   N     0.81951   0.24091   0.10723   0.00000  Uiso   1.00
C507   C     0.34643   0.71390   0.87550   0.00000  Uiso   1.00
C508   C     0.30886   0.65230   0.85922   0.00000  Uiso   1.00
C509   C     0.26778   0.65420   0.81882   0.00000  Uiso   1.00
C510   C     0.23794   0.59227   0.81011   0.00000  Uiso   1.00
C511   C     0.17797   0.50598   0.78016   0.00000  Uiso   1.00
C512   C     0.40570   0.68737   0.86804   0.00000  Uiso   1.00
C513   C     0.44605   0.71876   0.83507   0.00000  Uiso   1.00
C514   C     0.49774   0.68636   0.83379   0.00000  Uiso   1.00
C515   C     0.58813   0.65455   0.81756   0.00000  Uiso   1.00
C516   C     0.33846   0.72434   0.93786   0.00000  Uiso   1.00
C517   C     0.32229   0.78683   0.96361   0.00000  Uiso   1.00
C518   C     0.31738   0.78556   0.02112   0.00000  Uiso   1.00
C519   C     0.30337   0.81116   0.11330   0.00000  Uiso   1.00
C520   C     0.36647   0.60055   0.93186   0.00000  Uiso   1.00
C521   C     0.31975   0.59074   0.88983   0.00000  Uiso   1.00
C522   C     0.28996   0.52879   0.88119   0.00000  Uiso   1.00
C523   C     0.24884   0.53060   0.84079   0.00000  Uiso   1.00
C524   C     0.41659   0.62581   0.89865   0.00000  Uiso   1.00
C525   C     0.46823   0.59336   0.89743   0.00000  Uiso   1.00
C526   C     0.50864   0.62468   0.86446   0.00000  Uiso   1.00
C527   C     0.34935   0.66278   0.96848   0.00000  Uiso   1.00
C528   C     0.34447   0.66142   0.02597   0.00000  Uiso   1.00
C529   C     0.32829   0.72389   0.05179   0.00000  Uiso   1.00
H530   H     0.33796   0.76183   0.85166   0.00000  Uiso   1.00
H531   H     0.25937   0.70185   0.79514   0.00000  Uiso   1.00
H532   H     0.43762   0.76640   0.81139   0.00000  Uiso   1.00
H533   H     0.31387   0.83446   0.93990   0.00000  Uiso   1.00
H534   H     0.17706   0.60819   0.74595   0.00000  Uiso   1.00
H535   H     0.55290   0.74433   0.78023   0.00000  Uiso   1.00
H536   H     0.29197   0.88783   0.05123   0.00000  Uiso   1.00
H537   H     0.37495   0.55262   0.95570   0.00000  Uiso   1.00
H538   H     0.29840   0.48116   0.90488   0.00000  Uiso   1.00
H539   H     0.47664   0.54572   0.92113   0.00000  Uiso   1.00
H540   H     0.35290   0.61377   0.04964   0.00000  Uiso   1.00
H541   H     0.20874   0.42907   0.83503   0.00000  Uiso   1.00
H542   H     0.58458   0.56521   0.86930   0.00000  Uiso   1.00
H543   H     0.32364   0.70871   0.14030   0.00000  Uiso   1.00
O544   O     0.14188   0.47539   0.75517   0.00000  Uiso   1.00
O545   O     0.63497   0.65400   0.80015   0.00000  Uiso   1.00
O546   O     0.29263   0.84228   0.15569   0.00000  Uiso   1.00
N547   N     0.19502   0.57585   0.77390   0.00000  Uiso   1.00
N548   N     0.54640   0.70312   0.80594   0.00000  Uiso   1.00
N549   N     0.30246   0.83729   0.05930   0.00000  Uiso   1.00
N550   N     0.21206   0.47946   0.82183   0.00000  Uiso   1.00
N551   N     0.56345   0.60674   0.85387   0.00000  Uiso   1.00
N552   N     0.31951   0.74091   0.10723   0.00000  Uiso   1.00
C553   C     0.34643   0.28610   0.12450   0.00000  Uiso   1.00
C554   C     0.30886   0.34770   0.14078   0.00000  Uiso   1.00
C555   C     0.26778   0.34580   0.18118   0.00000  Uiso   1.00
C556   C     0.23794   0.40773   0.18989   0.00000  Uiso   1.00
C557   C     0.17797   0.49402   0.21984   0.00000  Uiso   1.00
C558   C     0.40570   0.31263   0.13196   0.00000  Uiso   1.00
C559   C     0.44605   0.28124   0.16493   0.00000  Uiso   1.00
C560   C     0.49774   0.31364   0.16621   0.00000  Uiso   1.00
C561   C     0.58813   0.34545   0.18244   0.00000  Uiso   1.00
C562   C     0.33846   0.27566   0.06214   0.00000  Uiso   1.00
C563   C     0.32229   0.21317   0.03639   0.00000  Uiso   1.00
C564   C     0.31738   0.21444   0.97888   0.00000  Uiso   1.00
C565   C     0.30337   0.18884   0.88670   0.00000  Uiso   1.00
C566   C     0.36647   0.39945   0.06814   0.00000  Uiso   1.00
C567   C     0.31975   0.40926   0.11017   0.00000  Uiso   1.00
C568   C     0.28996   0.47121   0.11881   0.00000  Uiso   1.00
C569   C     0.24884   0.46940   0.15921   0.00000  Uiso   1.00
C570   C     0.41659   0.37419   0.10135   0.00000  Uiso   1.00
C571   C     0.46823   0.40664   0.10257   0.00000  Uiso   1.00
C572   C     0.50864   0.37532   0.13554   0.00000  Uiso   1.00
C573   C     0.34935   0.33722   0.03152   0.00000  Uiso   1.00
C574   C     0.34447   0.33858   0.97403   0.00000  Uiso   1.00
C575   C     0.32829   0.27611   0.94821   0.00000  Uiso   1.00
H576   H     0.33796   0.23817   0.14834   0.00000  Uiso   1.00
H577   H     0.25937   0.29815   0.20486   0.00000  Uiso   1.00
H578   H     0.43762   0.23360   0.18861   0.00000  Uiso   1.00
H579   H     0.31387   0.16554   0.06010   0.00000  Uiso   1.00
H580   H     0.17706   0.39181   0.25405   0.00000  Uiso   1.00
H581   H     0.55290   0.25567   0.21977   0.00000  Uiso   1.00
H582   H     0.29197   0.11217   0.94877   0.00000  Uiso   1.00
H583   H     0.37495   0.44738   0.04430   0.00000  Uiso   1.00
H584   H     0.29840   0.51884   0.09512   0.00000  Uiso   1.00
H585   H     0.47664   0.45428   0.07887   0.00000  Uiso   1.00
H586   H     0.35290   0.38623   0.95036   0.00000  Uiso   1.00
H587   H     0.20874   0.57093   0.16497   0.00000  Uiso   1.00
H588   H     0.58458   0.43479   0.13070   0.00000  Uiso   1.00
H589   H     0.32364   0.29129   0.85970   0.00000  Uiso   1.00
O590   O     0.14188   0.52461   0.24483   0.00000  Uiso   1.00
O591   O     0.63497   0.34600   0.19985   0.00000  Uiso   1.00
O592   O     0.29263   0.15772   0.84431   0.00000  Uiso   1.00
N593   N     0.19502   0.42415   0.22610   0.00000  Uiso   1.00
N594   N     0.54640   0.29688   0.19406   0.00000  Uiso   1.00
N595   N     0.30246   0.16271   0.94070   0.00000  Uiso   1.00
N596   N     0.21206   0.52054   0.17817   0.00000  Uiso   1.00
N597   N     0.56345   0.39326   0.14613   0.00000  Uiso   1.00
N598   N     0.31951   0.25909   0.89277   0.00000  Uiso   1.00
C599   C     0.84643   0.78610   0.12450   0.00000  Uiso   1.00
C600   C     0.80886   0.84770   0.14078   0.00000  Uiso   1.00
C601   C     0.76778   0.84580   0.18118   0.00000  Uiso   1.00
C602   C     0.73794   0.90773   0.18989   0.00000  Uiso   1.00
C603   C     0.67797   0.99402   0.21984   0.00000  Uiso   1.00
C604   C     0.90570   0.81263   0.13196   0.00000  Uiso   1.00
C605   C     0.94605   0.78124   0.16493   0.00000  Uiso   1.00
C606   C     0.99774   0.81364   0.16621   0.00000  Uiso   1.00
C607   C     0.08813   0.84545   0.18244   0.00000  Uiso   1.00
C608   C     0.83846   0.77566   0.06214   0.00000  Uiso   1.00
C609   C     0.82229   0.71317   0.03639   0.00000  Uiso   1.00
C610   C     0.81738   0.71444   0.97888   0.00000  Uiso   1.00
C611   C     0.80337   0.68884   0.88670   0.00000  Uiso   1.00
C612   C     0.86647   0.89945   0.06814   0.00000  Uiso   1.00
C613   C     0.81975   0.90926   0.11017   0.00000  Uiso   1.00
C614   C     0.78996   0.97121   0.11881   0.00000  Uiso   1.00
C615   C     0.74884   0.96940   0.15921   0.00000  Uiso   1.00
C616   C     0.91659   0.87419   0.10135   0.00000  Uiso   1.00
C617   C     0.96823   0.90664   0.10257   0.00000  Uiso   1.00
C618   C     0.00864   0.87532   0.13554   0.00000  Uiso   1.00
C619   C     0.84935   0.83722   0.03152   0.00000  Uiso   1.00
C620   C     0.84447   0.83858   0.97403   0.00000  Uiso   1.00
C621   C     0.82829   0.77611   0.94821   0.00000  Uiso   1.00
H622   H     0.83796   0.73817   0.14834   0.00000  Uiso   1.00
H623   H     0.75937   0.79815   0.20486   0.00000  Uiso   1.00
H624   H     0.93762   0.73360   0.18861   0.00000  Uiso   1.00
H625   H     0.81387   0.66554   0.06010   0.00000  Uiso   1.00
H626   H     0.67706   0.89181   0.25405   0.00000  Uiso   1.00
H627   H     0.05290   0.75567   0.21977   0.00000  Uiso   1.00
H628   H     0.79197   0.61217   0.94877   0.00000  Uiso   1.00
H629   H     0.87495   0.94738   0.04430   0.00000  Uiso   1.00
H630   H     0.79840   0.01884   0.09512   0.00000  Uiso   1.00
H631   H     0.97664   0.95428   0.07887   0.00000  Uiso   1.00
H632   H     0.85290   0.88623   0.95036   0.00000  Uiso   1.00
H633   H     0.70874   0.07093   0.16497   0.00000  Uiso   1.00
H634   H     0.08458   0.93479   0.13070   0.00000  Uiso   1.00
H635   H     0.82364   0.79129   0.85970   0.00000  Uiso   1.00
O636   O     0.64188   0.02461   0.24483   0.00000  Uiso   1.00
O637   O     0.13497   0.84600   0.19985   0.00000  Uiso   1.00
O638   O     0.79263   0.65772   0.84431   0.00000  Uiso   1.00
N639   N     0.69502   0.92415   0.22610   0.00000  Uiso   1.00
N640   N     0.04640   0.79688   0.19406   0.00000  Uiso   1.00
N641   N     0.80246   0.66271   0.94070   0.00000  Uiso   1.00
N642   N     0.71206   0.02054   0.17817   0.00000  Uiso   1.00
N643   N     0.06345   0.89326   0.14613   0.00000  Uiso   1.00
N644   N     0.81951   0.75909   0.89277   0.00000  Uiso   1.00
C645   C     0.15357   0.21390   0.12450   0.00000  Uiso   1.00
C646   C     0.19114   0.15230   0.14078   0.00000  Uiso   1.00
C647   C     0.23222   0.15420   0.18118   0.00000  Uiso   1.00
C648   C     0.26206   0.09227   0.18989   0.00000  Uiso   1.00
C649   C     0.32203   0.00598   0.21984   0.00000  Uiso   1.00
C650   C     0.09430   0.18737   0.13196   0.00000  Uiso   1.00
C651   C     0.05395   0.21876   0.16493   0.00000  Uiso   1.00
C652   C     0.00226   0.18636   0.16621   0.00000  Uiso   1.00
C653   C     0.91187   0.15455   0.18244   0.00000  Uiso   1.00
C654   C     0.16154   0.22434   0.06214   0.00000  Uiso   1.00
C655   C     0.17771   0.28683   0.03639   0.00000  Uiso   1.00
C656   C     0.18262   0.28556   0.97888   0.00000  Uiso   1.00
C657   C     0.19663   0.31116   0.88670   0.00000  Uiso   1.00
C658   C     0.13353   0.10055   0.06814   0.00000  Uiso   1.00
C659   C     0.18025   0.09074   0.11017   0.00000  Uiso   1.00
C660   C     0.21004   0.02879   0.11881   0.00000  Uiso   1.00
C661   C     0.25116   0.03060   0.15921   0.00000  Uiso   1.00
C662   C     0.08341   0.12581   0.10135   0.00000  Uiso   1.00
C663   C     0.03177   0.09336   0.10257   0.00000  Uiso   1.00
C664   C     0.99136   0.12468   0.13554   0.00000  Uiso   1.00
C665   C     0.15065   0.16278   0.03152   0.00000  Uiso   1.00
C666   C     0.15553   0.16142   0.97403   0.00000  Uiso   1.00
C667   C     0.17171   0.22389   0.94821   0.00000  Uiso   1.00
H668   H     0.16204   0.26183   0.14834   0.00000  Uiso   1.00
H669   H     0.24063   0.20185   0.20486   0.00000  Uiso   1.00
H670   H     0.06238   0.26640   0.18861   0.00000  Uiso   1.00
H671   H     0.18613   0.33446   0.06010   0.00000  Uiso   1.00
H672   H     0.32294   0.10819   0.25405   0.00000  Uiso   1.00
H673   H     0.94710   0.24433   0.21977   0.00000  Uiso   1.00
H674   H     0.20803   0.38783   0.94877   0.00000  Uiso   1.00
H675   H     0.12505   0.05262   0.04430   0.00000  Uiso   1.00
H676   H     0.20160   0.98116   0.09512   0.00000  Uiso   1.00
H677   H     0.02336   0.04572   0.07887   0.00000  Uiso   1.00
H678   H     0.14710   0.11377   0.95036   0.00000  Uiso   1.00
H679   H     0.29126   0.92907   0.16497   0.00000  Uiso   1.00
H680   H     0.91542   0.06521   0.13070   0.00000  Uiso   1.00
H681   H     0.17636   0.20871   0.85970   0.00000  Uiso   1.00
O682   O     0.35812   0.97539   0.24483   0.00000  Uiso   1.00
O683   O     0.86503   0.15400   0.19985   0.00000  Uiso   1.00
O684   O     0.20737   0.34228   0.84431   0.00000  Uiso   1.00
N685   N     0.30498   0.07585   0.22610   0.00000  Uiso   1.00
N686   N     0.95360   0.20312   0.19406   0.00000  Uiso   1.00
N687   N     0.19754   0.33729   0.94070   0.00000  Uiso   1.00
N688   N     0.28794   0.97946   0.17817   0.00000  Uiso   1.00
N689   N     0.93655   0.10674   0.14613   0.00000  Uiso   1.00
N690   N     0.18049   0.24091   0.89277   0.00000  Uiso   1.00
C691   C     0.65357   0.71390   0.12450   0.00000  Uiso   1.00
C692   C     0.69114   0.65230   0.14078   0.00000  Uiso   1.00
C693   C     0.73222   0.65420   0.18118   0.00000  Uiso   1.00
C694   C     0.76206   0.59227   0.18989   0.00000  Uiso   1.00
C695   C     0.82203   0.50598   0.21984   0.00000  Uiso   1.00
C696   C     0.59430   0.68737   0.13196   0.00000  Uiso   1.00
C697   C     0.55395   0.71876   0.16493   0.00000  Uiso   1.00
C698   C     0.50226   0.68636   0.16621   0.00000  Uiso   1.00
C699   C     0.41187   0.65455   0.18244   0.00000  Uiso   1.00
C700   C     0.66154   0.72434   0.06214   0.00000  Uiso   1.00
C701   C     0.67771   0.78683   0.03639   0.00000  Uiso   1.00
C702   C     0.68262   0.78556   0.97888   0.00000  Uiso   1.00
C703   C     0.69663   0.81116   0.88670   0.00000  Uiso   1.00
C704   C     0.63353   0.60055   0.06814   0.00000  Uiso   1.00
C705   C     0.68025   0.59074   0.11017   0.00000  Uiso   1.00
C706   C     0.71004   0.52879   0.11881   0.00000  Uiso   1.00
C707   C     0.75116   0.53060   0.15921   0.00000  Uiso   1.00
C708   C     0.58341   0.62581   0.10135   0.00000  Uiso   1.00
C709   C     0.53177   0.59336   0.10257   0.00000  Uiso   1.00
C710   C     0.49136   0.62468   0.13554   0.00000  Uiso   1.00
C711   C     0.65065   0.66278   0.03152   0.00000  Uiso   1.00
C712   C     0.65553   0.66142   0.97403   0.00000  Uiso   1.00
C713   C     0.67171   0.72389   0.94821   0.00000  Uiso   1.00
H714   H     0.66204   0.76183   0.14834   0.00000  Uiso   1.00
H715   H     0.74063   0.70185   0.20486   0.00000  Uiso   1.00
H716   H     0.56238   0.76640   0.18861   0.00000  Uiso   1.00
H717   H     0.68613   0.83446   0.06010   0.00000  Uiso   1.00
H718   H     0.82294   0.60819   0.25405   0.00000  Uiso   1.00
H719   H     0.44710   0.74433   0.21977   0.00000  Uiso   1.00
H720   H     0.70803   0.88783   0.94877   0.00000  Uiso   1.00
H721   H     0.62505   0.55262   0.04430   0.00000  Uiso   1.00
H722   H     0.70160   0.48116   0.09512   0.00000  Uiso   1.00
H723   H     0.52336   0.54572   0.07887   0.00000  Uiso   1.00
H724   H     0.64710   0.61377   0.95036   0.00000  Uiso   1.00
H725   H     0.79126   0.42907   0.16497   0.00000  Uiso   1.00
H726   H     0.41542   0.56521   0.13070   0.00000  Uiso   1.00
H727   H     0.67636   0.70871   0.85970   0.00000  Uiso   1.00
O728   O     0.85812   0.47539   0.24483   0.00000  Uiso   1.00
O729   O     0.36503   0.65400   0.19985   0.00000  Uiso   1.00
O730   O     0.70737   0.84228   0.84431   0.00000  Uiso   1.00
N731   N     0.80498   0.57585   0.22610   0.00000  Uiso   1.00
N732   N     0.45360   0.70312   0.19406   0.00000  Uiso   1.00
N733   N     0.69754   0.83729   0.94070   0.00000  Uiso   1.00
N734   N     0.78794   0.47946   0.17817   0.00000  Uiso   1.00
N735   N     0.43655   0.60674   0.14613   0.00000  Uiso   1.00
N736   N     0.68049   0.74091   0.89277   0.00000  Uiso   1.00
